data_mof_unit_67616.cif
_audit_creation_date              2012-12-10T18:05:47-0500
_audit_creation_method            fapswitch 2.2
_symmetry_space_group_name_H-M    P1
_symmetry_Int_Tables_number       1
_space_group_crystal_system       triclinic
_cell_length_a                    11.046044
_cell_length_b                    10.994881
_cell_length_c                    9.559528
_cell_angle_alpha                 90.681895
_cell_angle_beta                  89.920975
_cell_angle_gamma                 90.191091
_cell_volume                      1160.91437489

loop_
_atom_site_label
_atom_site_type_symbol
_atom_type_description
_atom_site_fract_x
_atom_site_fract_y
_atom_site_fract_z
_atom_type_partial_charge
C1    C     C_R   0.506075 0.262207 0.498462 0.864091
C2    C     C_R   0.493725 0.737661 0.501380 0.867776
C3    C     C_R   0.872116 0.506100 0.499967 -0.259536
C4    C     C_R   0.127976 0.495586 0.500102 -0.154593
C5    C     C_R   0.934233 0.438289 0.602900 -0.111233
C6    C     C_R   0.065926 0.564418 0.397895 -0.075176
C7    C     C_R   0.547075 0.056284 0.379836 0.413361
C8    C     C_R   0.452601 0.942988 0.619534 0.497777
C9    C     C_R   0.534138 0.930355 0.384420 -0.173490
C10   C     C_R   0.464602 0.069160 0.614768 -0.157460
C11   C     C_R   0.490469 0.871638 0.503130 -0.229658
C12   C     C_R   0.508652 0.128024 0.496107 -0.209004
C13   C     C_R   0.444137 0.409320 0.073250 0.007874
C14   C     C_R   0.556039 0.590672 0.926736 0.002490
C15   C     C_R   0.446126 0.408093 0.924943 0.065482
C16   C     C_R   0.554376 0.591651 0.075088 0.051121
C17   C     C_R   0.262271 0.497006 0.500262 0.898269
C18   C     C_R   0.737733 0.503816 0.499733 0.850053
C19   C     C_R   0.206011 0.849761 0.244597 0.340757
C20   C     C_R   0.789522 0.157924 0.763824 0.346120
C21   C     C_R   0.151328 0.771357 0.343689 0.318201
C22   C     C_R   0.845632 0.233596 0.662598 0.242468
C23   C     C_R   0.135509 0.647150 0.306955 0.004817
C24   C     C_R   0.864560 0.358106 0.696657 0.012637
C25   C     C_R   0.182048 0.601588 0.180338 -0.122995
C26   C     C_R   0.822984 0.406391 0.824319 -0.101232
C27   C     C_R   0.251469 0.675896 0.095292 -0.229465
C28   C     C_R   0.756258 0.334429 0.914440 -0.139505
C29   C     C_R   0.263096 0.799075 0.127241 -0.196259
C30   C     C_R   0.739205 0.211824 0.883605 -0.167942
C31   C     C_R   0.938335 0.569536 0.395763 0.409371
C32   C     C_R   0.061787 0.432376 0.604356 0.390395
Cu1   Cu    Cu3+1 0.500000 0.500020 0.640660 1.045738
Cu2   Cu    Cu3+1 0.500000 0.499980 0.359340 1.045397
H1    H     H_    0.311911 0.856559 0.056631 0.267692
H2    H     H_    0.692170 0.156908 0.957702 0.279636
H3    H     H_    0.403376 0.333634 0.869208 0.205900
H4    H     H_    0.597013 0.666140 0.130882 0.207904
H5    H     H_    0.169263 0.506822 0.151494 0.188337
H6    H     H_    0.839298 0.501008 0.851464 0.163075
H7    H     H_    0.293366 0.638634 0.002175 0.210077
H8    H     H_    0.720607 0.372703 0.010600 0.223538
H9    H     H_    0.562327 0.876876 0.294304 0.223191
H10   H     H_    0.436345 0.122634 0.704793 0.217677
H11   H     H_    0.396504 0.338536 0.128034 0.149592
H12   H     H_    0.603139 0.662077 0.872006 0.188211
N1    N     N_R   0.500030 0.500030 0.852070 -0.194403
N2    N     N_R   0.499970 0.499970 0.147930 -0.190763
O1    O     O_R   0.499990 0.319660 0.618740 -0.602791
O2    O     O_R   0.500010 0.680340 0.381260 -0.600499
O3    O     O_R   0.499990 0.319630 0.381170 -0.546275
O4    O     O_R   0.500010 0.680370 0.618830 -0.529764
O5    O     O_R   0.319650 0.500020 0.618780 -0.480781
O6    O     O_R   0.680350 0.499980 0.381220 -0.494915
O7    O     O_R   0.319640 0.500000 0.381210 -0.616537
O8    O     O_R   0.680360 0.500000 0.618790 -0.620023
S1    S     S_3+6 0.183191 0.009302 0.244936 0.093551
O9    O     O_2   0.051248 0.034580 0.267680 -0.096818
O10   O     O_2   0.256415 0.070103 0.358111 -0.298605
O11   O     O_3   0.222447 0.067993 0.089822 -0.490955
H13   H     H_    0.199242 0.154865 0.095998 0.387201
S2    S     S_3+6 0.802293 0.996544 0.763470 0.092179
O12   O     O_2   0.934178 0.963901 0.761750 -0.170682
O13   O     O_2   0.746132 0.945028 0.893277 -0.227739
O14   O     O_3   0.733730 0.932352 0.624624 -0.507063
H14   H     H_    0.747359 0.843839 0.634408 0.367619
S3    S     S_3+6 0.090239 0.828468 0.503366 0.109607
O15   O     O_2   0.169873 0.927642 0.560652 -0.152006
O16   O     O_2   0.966925 0.877554 0.472102 -0.140598
O17   O     O_3   0.075894 0.722405 0.627612 -0.583760
H15   H     H_    0.994429 0.734306 0.668884 0.369256
S4    S     S_3+6 0.910896 0.171492 0.507574 0.141571
O18   O     O_2   0.027721 0.114571 0.550022 -0.070892
O19   O     O_2   0.829365 0.076829 0.444162 -0.158504
O20   O     O_3   0.943987 0.272869 0.382843 -0.516575
H16   H     H_    0.865444 0.295935 0.342120 0.377985
S5    S     S_3+6 0.861521 0.653001 0.261247 0.031369
O21   O     O_2   0.811217 0.561463 0.158680 -0.363944
O22   O     O_2   0.759340 0.724110 0.325582 -0.260257
O23   O     O_3   0.946311 0.752449 0.170864 -0.463944
H17   H     H_    0.951787 0.719004 0.074389 0.367911
S6    S     S_3+6 0.138522 0.349365 0.739395 0.045922
O24   O     O_2   0.061203 0.261740 0.819443 -0.234953
O25   O     O_2   0.241126 0.278136 0.676166 -0.247864
O26   O     O_3   0.192624 0.452115 0.854741 -0.561319
H18   H     H_    0.121515 0.501720 0.882008 0.334774
S7    S     S_3+6 0.613992 0.111618 0.224612 0.034094
O27   O     O_2   0.673372 0.233554 0.242634 -0.315085
O28   O     O_2   0.708476 0.022278 0.176595 -0.150444
O29   O     O_3   0.506773 0.119055 0.100738 -0.529347
H19   H     H_    0.431162 0.134735 0.152965 0.362429
S8    S     S_3+6 0.386541 0.884730 0.773294 0.041251
O30   O     O_2   0.485129 0.861600 0.877438 -0.295608
O31   O     O_2   0.301999 0.978968 0.832804 -0.211330
O32   O     O_3   0.307751 0.756109 0.743344 -0.492814
H20   H     H_    0.239494 0.759128 0.810368 0.389668

loop_
_geom_bond_atom_site_label_1
_geom_bond_atom_site_label_2
_ccdc_geom_bond_type
S7    O27   D    
C27   C29   A    
O32   H20   S    
C15   N1    A    
C16   N2    A    
S1    O9    D    
C14   H12   S    
C20   C30   A    
S5    O21   D    
C19   S1    S    
Cu1   O4    S    
Cu2   O3    S    
C19   C21   A    
C24   C26   A    
S1    O10   D    
Cu1   O1    S    
C3    C18   S    
C28   H8    S    
C15   H3    S    
S2    O13   D    
C2    O2    A    
C7    S7    S    
O17   H15   S    
C8    S8    S    
C17   O7    A    
C18   O8    A    
C5    C32   A    
Cu1   O8    S    
C6    C31   A    
Cu2   O7    S    
C21   S3    S    
C1    C12   S    
S4    O20   S    
C2    C11   S    
C10   C12   A    
C22   S4    S    
C31   S5    S    
S5    O22   D    
Cu1   O5    S    
C7    C12   A    
C9    H9    S    
Cu2   O2    S    
C10   H10   S    
S3    O15   D    
S4    O19   D    
O23   H17   S    
S1    O11   S    
O26   H18   S    
S8    O32   S    
O11   H13   S    
S3    O16   D    
O20   H16   S    
S2    O12   D    
C9    C11   A    
C27   H7    S    
S8    O31   D    
Cu1   Cu2   S    
C3    C31   A    
C1    O3    A    
C4    C32   A    
C2    O4    A    
C4    C17   S    
C4    C6    A    
C20   C22   A    
Cu2   O6    S    
S6    O25   D    
C13   C15   A    
Cu1   N1    S    
C14   C16   A    
Cu2   N2    S    
C19   C29   A    
C17   O5    A    
S5    O23   S    
C7    C9    A    
S2    O14   S    
S4    O18   D    
C3    C5    A    
C13   N2    A    
C14   N1    A    
C25   C27   A    
S6    O26   S    
C32   S6    S    
C29   H1    S    
C26   C28   A    
C30   H2    S    
S3    O17   S    
C21   C23   A    
O14   H14   S    
C25   H5    S    
C13   H11   S    
C26   H6    S    
O29   H19   S    
C5    C24   S    
C8    C11   A    
C6    C23   S    
C28   C30   A    
S8    O30   D    
C22   C24   A    
C23   C25   A    
C20   S2    S    
C18   O6    A    
C8    C10   A    
S6    O24   D    
S7    O29   S    
S7    O28   D    
C1    O1    A    
C16   H4    S    
