data_mof_unit_67279.cif
_audit_creation_date              2012-12-11T18:18:10-0500
_audit_creation_method            fapswitch 2.2
_symmetry_space_group_name_H-M    P1
_symmetry_Int_Tables_number       1
_space_group_crystal_system       triclinic
_cell_length_a                    8.399295
_cell_length_b                    14.889771
_cell_length_c                    15.07133
_cell_angle_alpha                 96.507341
_cell_angle_beta                  97.258017
_cell_angle_gamma                 92.618594
_cell_volume                      1854.27906932

loop_
_atom_site_label
_atom_site_type_symbol
_atom_type_description
_atom_site_fract_x
_atom_site_fract_y
_atom_site_fract_z
_atom_type_partial_charge
Ba1   Ba    Ba6+2 0.833410 0.543320 0.453520 1.722174
Ba2   Ba    Ba6+2 0.356410 0.456750 0.546480 1.712096
C1    C     C_3   0.517980 0.861421 0.190209 -0.332224
C2    C     C_R   0.111002 0.475827 0.204871 0.026843
C3    C     C_R   0.911178 0.505038 0.768852 -0.298144
C4    C     C_3   0.083475 0.772693 0.201880 0.316861
C5    C     C_R   0.813588 0.486489 0.832730 0.059669
C6    C     C_R   0.875203 0.496492 0.925195 -0.072176
C7    C     C_R   0.041544 0.517157 0.954265 0.020630
C8    C     C_R   0.133101 0.546586 0.887947 -0.046667
C9    C     C_R   0.118138 0.513249 0.046563 -0.035000
C10   C     C_R   0.278351 0.554567 0.072850 -0.089641
C11   C     C_R   0.358737 0.590464 0.004808 -0.085211
C12   C     C_3   0.541105 0.778599 0.239464 0.428803
C13   C     C_R   0.284470 0.587577 0.916834 -0.014813
C14   C     C_R   0.045747 0.465068 0.111601 -0.083194
C15   C     C_R   0.256403 0.527699 0.229608 -0.218452
C16   C     C_3   0.011375 0.773634 0.104651 -0.327878
C17   C     C_R   0.069887 0.535833 0.793797 0.056254
C18   C     C_R   0.673829 0.953502 0.561381 -0.027513
C19   C     C_R   0.514171 0.803679 0.497060 0.044724
C20   C     C_R   0.367675 0.768046 0.446635 -0.238261
C21   C     C_R   0.257021 0.823803 0.406687 0.004920
C22   C     C_R   0.303277 0.913540 0.400377 -0.111725
C23   C     C_3   0.573001 0.262668 0.253777 0.312626
C24   C     C_R   0.446999 0.954437 0.447598 0.026882
C25   C     C_R   0.549438 0.902452 0.501858 -0.041784
C26   C     C_R   0.619449 0.095153 0.495569 -0.081077
C27   C     C_R   0.716917 0.047012 0.555705 -0.086596
C28   C     C_3   0.163044 0.754502 0.682320 0.280241
C29   C     C_R   0.668407 0.187386 0.487135 0.006606
C30   C     C_R   0.820177 0.223244 0.526534 -0.305418
C31   C     C_R   0.919165 0.175278 0.581091 0.018875
C32   C     C_R   0.860572 0.092910 0.605222 0.349413
C33   C     C_R   0.481714 0.048560 0.444975 0.043885
C34   C     C_3   0.551798 0.189175 0.171280 0.296461
C35   C     C_3   0.123093 0.847519 0.728148 -0.196988
C36   C     C_3   0.068938 0.253202 0.333483 0.228525
C37   C     C_3   0.015127 0.152950 0.309370 0.283304
C38   C     C_3   0.732937 0.674391 0.722383 0.421552
C39   C     C_3   0.774634 0.712601 0.821800 0.359848
C40   C     C_2   0.201853 0.873356 0.824496 0.502532
C41   C     C_2   0.157565 0.920571 0.670134 0.467112
C42   C     C_3   0.958546 0.030297 0.384513 0.176195
C43   C     C_2   0.074658 0.115318 0.223253 0.559681
C44   C     C_3   0.726956 0.845447 0.908065 0.408468
C45   C     C_3   0.344888 0.211085 0.754803 0.393294
C46   C     C_2   0.520829 0.351364 0.225924 0.557742
C47   C     C_3   0.357890 0.105928 0.064229 0.232936
C48   C     C_2   0.626820 0.103762 0.196209 0.508176
C49   C     C_3   0.309728 0.296579 0.954493 0.102539
C50   C     C_3   0.473064 0.037613 0.826457 0.114753
C51   C     C_3   0.999971 0.316155 0.785064 0.192352
C52   C     C_2   0.526300 0.626801 0.015349 0.540193
C53   C     C_2   0.930018 0.387463 0.079120 0.459288
C54   C     C_3   0.920292 0.065473 0.752901 0.148121
C55   C     C_2   0.745444 0.911904 0.636241 0.608486
C56   C     C_3   0.360442 0.177307 0.848780 0.726720
C57   C     C_2   0.315995 0.758483 0.645578 0.619750
C58   C     C_3   0.772965 0.268847 0.842069 0.775802
C59   C     C_3   0.790219 0.204870 0.915247 -0.312713
C60   C     C_R   0.347794 0.559853 0.165811 -0.030040
H1    H     H_    0.620404 0.798347 0.304213 0.060873
H2    H     H_    0.776200 0.657551 0.865090 -0.060849
H3    H     H_    0.421402 0.754144 0.254165 -0.178150
H4    H     H_    0.453822 0.911517 0.230286 0.129976
H5    H     H_    0.700862 0.270500 0.283590 -0.060160
H6    H     H_    0.615695 0.214840 0.117902 -0.091820
H7    H     H_    0.444417 0.842209 0.123588 0.137532
H8    H     H_    0.099620 0.750849 0.059103 0.074930
H9    H     H_    0.455808 0.199289 0.723306 -0.051386
H10   H     H_    0.328814 0.284771 0.762085 -0.005480
H11   H     H_    0.482328 0.195163 0.884518 -0.059351
H12   H     H_    0.994653 0.842299 0.735598 0.005343
H13   H     H_    0.753561 0.228030 0.774505 -0.142940
H14   H     H_    0.918573 0.193133 0.936071 0.117855
H15   H     H_    0.732403 0.138033 0.890902 -0.007311
H16   H     H_    0.119800 0.702853 0.210204 -0.005468
H17   H     H_    0.737593 0.232745 0.975706 0.122618
H18   H     H_    0.306366 0.536828 0.300013 0.094532
H19   H     H_    0.862993 0.493246 0.698131 0.059139
H20   H     H_    0.793623 0.480659 0.971532 0.087280
H21   H     H_    0.350776 0.617877 0.869980 0.166967
H22   H     H_    0.333368 0.696802 0.444346 0.039761
H23   H     H_    0.043292 0.276018 0.402719 0.041279
H24   H     H_    0.223953 0.952557 0.360555 0.123761
H25   H     H_    0.189655 0.821571 0.215413 0.004510
H26   H     H_    0.863609 0.289593 0.513929 0.047700
H27   H     H_    0.402290 0.084808 0.401287 0.167468
H28   H     H_    0.901282 0.727427 0.088876 0.158064
H29   H     H_    0.981207 0.843730 0.093845 0.112158
H30   H     H_    0.064720 0.729875 0.627508 0.005658
H31   H     H_    0.158480 0.929830 0.864811 -0.020071
H32   H     H_    0.219815 0.983896 0.699175 0.130919
H33   H     H_    0.951761 0.980042 0.323571 0.081320
H34   H     H_    0.198067 0.264093 0.328999 0.083694
H35   H     H_    0.836874 0.052953 0.391277 0.045714
H36   H     H_    0.998735 0.997124 0.444879 0.134236
H37   H     H_    0.038979 0.144656 0.161576 -0.049172
H38   H     H_    0.807721 0.889331 0.875960 -0.024480
H39   H     H_    0.793489 0.821332 0.968053 -0.009399
H40   H     H_    0.630469 0.886793 0.931358 0.074747
H41   H     H_    0.491320 0.360770 0.155522 -0.053962
H42   H     H_    0.445291 0.114451 0.016052 0.017788
H43   H     H_    0.363139 0.037042 0.085692 0.072858
H44   H     H_    0.235099 0.111203 0.029084 0.109622
H45   H     H_    0.882548 0.151413 0.297684 -0.064807
H46   H     H_    0.712515 0.072746 0.155902 -0.123925
H47   H     H_    0.417379 0.284013 0.001261 0.070397
H48   H     H_    0.218801 0.321869 0.996501 0.069560
H49   H     H_    0.339467 0.350414 0.913170 0.074318
H50   H     H_    0.545308 0.033434 0.892446 0.025716
H51   H     H_    0.541993 0.069131 0.778932 0.034556
H52   H     H_    0.444265 0.967515 0.795345 0.158978
H53   H     H_    0.109375 0.362106 0.799540 0.067684
H54   H     H_    0.926515 0.330983 0.722355 -0.045299
H55   H     H_    0.037622 0.247909 0.776097 0.058058
H56   H     H_    0.842034 0.650581 0.695323 -0.136761
H57   H     H_    0.623451 0.583285 0.028507 -0.003120
H58   H     H_    0.959179 0.337948 0.026989 0.030180
H59   H     H_    0.795105 0.083784 0.755264 0.018121
H60   H     H_    0.006654 0.113997 0.796081 0.122143
H61   H     H_    0.935346 0.002666 0.784950 0.062297
H62   H     H_    0.845318 0.872455 0.626174 0.048600
H63   H     H_    0.338937 0.701281 0.599859 -0.147935
H64   H     H_    0.638542 0.618528 0.715506 0.002890
H65   H     H_    0.636523 0.892024 0.180211 0.139348
H66   H     H_    0.898490 0.745543 0.831287 -0.054464
O1    O     O_2   0.841250 0.444240 0.280450 -0.377162
O2    O     O_2   0.222557 0.173968 0.535354 -0.419189
O3    O     O_3   0.216249 0.160823 0.701080 -0.594906
O4    O     O_3   0.112870 0.447390 0.393710 -0.510688
O5    O     O_3   0.560600 0.613720 0.540760 -0.491792
O6    O     O_2   0.387470 0.270310 0.467210 -0.439764
O7    O     O_3   0.472985 0.236125 0.314804 -0.614476
O8    O     O_2   0.484184 0.460001 0.822403 -0.516808
O9    O     O_3   0.634801 0.318623 0.849963 -0.652915
O10   O     O_3   0.597960 0.615760 0.327700 -0.452460
O11   O     O_2   0.687433 0.544901 0.177909 -0.436938
O12   O     O_3   0.676487 0.745040 0.677241 -0.563562
O13   O     O_3   0.981140 0.300086 0.270861 -0.694318
O14   O     O_3   0.613863 0.713422 0.185705 -0.570250
O15   O     O_2   0.802240 0.729720 0.532850 -0.491346
O16   O     O_3   0.017190 0.664840 0.371090 -0.471708
O17   O     O_2   0.928286 0.825890 0.427507 -0.469158
O18   O     O_2   0.312148 0.832618 0.858584 -0.508114
O19   O     O_2   0.117820 0.908883 0.588695 -0.593598
O20   O     O_3   0.069375 0.103583 0.380789 -0.641966
O21   O     O_2   0.161517 0.051763 0.221535 -0.574909
O22   O     O_3   0.656231 0.772076 0.846286 -0.540230
O23   O     O_3   0.970215 0.799909 0.258891 -0.578845
O24   O     O_2   0.512707 0.414693 0.283481 -0.588085
O25   O     O_3   0.385051 0.172563 0.140020 -0.649705
O26   O     O_2   0.589171 0.067827 0.259922 -0.610980
O27   O     O_3   0.244906 0.216532 0.899730 -0.674887
O28   O     O_3   0.330941 0.081882 0.839180 -0.670771
O29   O     O_3   0.914817 0.325518 0.858801 -0.697793
O30   O     O_2   0.556699 0.704934 0.002967 -0.559849
O31   O     O_2   0.801516 0.379224 0.107741 -0.583330
O32   O     O_3   0.960692 0.050666 0.664472 -0.645112
O33   O     O_2   0.690225 0.920145 0.707529 -0.583935
O34   O     O_2   0.348460 0.555790 0.719610 -0.471805
O35   O     O_2   0.415267 0.821232 0.670759 -0.573065
O36   O     O_3   0.076820 0.552690 0.606290 -0.514160
O37   O     O_3   0.591740 0.384320 0.672310 -0.488693
O38   O     O_3   0.181746 0.696712 0.747024 -0.638513
O39   O     O_3   0.629090 0.386360 0.459240 -0.439892
O40   O     O_3   0.172500 0.335240 0.628910 -0.521870
P1    P     P_3+3 0.018620 0.416870 0.295980 1.014782
P2    P     P_3+3 0.635650 0.716500 0.560900 1.022995
P3    P     P_3+3 0.046219 0.780508 0.367980 0.977360
P4    P     P_3+3 0.171070 0.583210 0.704020 0.970384
P5    P     P_3+3 0.133166 0.215732 0.611159 0.989912
P6    P     P_3+3 0.558349 0.605941 0.211852 1.023735
P7    P     P_3+3 0.551355 0.269882 0.427668 1.000456
P8    P     P_3+3 0.631588 0.414222 0.791091 0.943269

loop_
_geom_bond_atom_site_label_1
_geom_bond_atom_site_label_2
_ccdc_geom_bond_type
C16   H8    S    
C38   H56   S    
C35   H12   S    
O17   P3    D    
O38   P4    S    
C40   H31   S    
C23   H5    S    
Ba1   O4    S    
Ba2   O34   S    
C47   H42   S    
C12   O14   S    
C5    C6    A    
O14   P6    S    
C29   P7    S    
C50   H51   S    
O37   P8    S    
C37   H45   S    
C44   H40   S    
O16   P3    S    
C49   O27   S    
C24   C25   A    
Ba2   O6    S    
C6    H20   S    
C16   H29   S    
C47   O25   S    
C26   C27   A    
C1    H7    S    
C22   C24   A    
Ba1   O1    S    
C8    C13   A    
C36   C37   S    
C1    H65   S    
C4    H16   S    
C50   H50   S    
C19   P2    S    
C60   P6    S    
C32   O32   S    
Ba1   P2    S    
C59   H17   S    
C41   H32   S    
O23   P3    S    
Ba1   Ba2   S    
C9    C14   A    
C35   C40   S    
C3    H19   S    
C42   H36   S    
Ba1   O36   S    
C59   H15   S    
C6    C7    A    
C37   O20   S    
O10   P6    S    
Ba2   O4    S    
C21   C22   A    
C31   P5    S    
C7    C8    A    
C43   O21   D    
C51   H54   S    
C58   O9    S    
C37   C43   S    
C53   O31   D    
C19   C25   A    
C59   H14   S    
C52   H57   S    
C28   C57   S    
C48   H46   S    
C39   H66   S    
Ba1   O5    S    
Ba2   P4    S    
O12   P2    S    
C2    C14   A    
C34   O25   S    
C18   C27   A    
O2    P5    D    
O40   P5    S    
C4    C16   S    
C44   H39   S    
Ba2   O5    S    
O6    P7    D    
C36   H23   S    
C16   H28   S    
C54   H61   S    
C57   O35   D    
C17   P4    S    
C28   O38   S    
O9    P8    S    
C28   H30   S    
C2    P1    S    
Ba2   O36   S    
C3    C5    A    
C13   H21   S    
O8    P8    D    
C46   H41   S    
C27   C32   A    
O3    P5    S    
C15   H18   S    
C4    H25   S    
C28   C35   S    
C45   O3    S    
C58   C59   S    
O7    P7    S    
C35   C41   S    
O5    P2    S    
Ba1   O15   S    
C15   C60   A    
C52   O30   D    
C10   C60   A    
C42   H35   S    
C29   C30   A    
C23   C46   S    
C8    C17   A    
C38   H64   S    
C5    P8    S    
O13   P1    S    
C31   C32   A    
O34   P4    D    
C58   O29   S    
C7    C9    A    
Ba2   O37   S    
C45   H9    S    
C1    C12   S    
C56   O28   S    
C3    C17   A    
C2    C15   A    
C33   H27   S    
C38   C39   S    
C44   O22   S    
C49   H48   S    
C11   C13   A    
C43   H37   S    
C36   O13   S    
O36   P4    S    
C1    H4    S    
C57   H63   S    
O4    P1    S    
C4    O23   S    
C40   O18   D    
Ba2   O40   S    
C34   C48   S    
O39   P7    S    
C11   C52   S    
O1    P1    D    
C26   C33   A    
C44   H38   S    
C49   H49   S    
C26   C29   A    
O15   P2    D    
C47   H43   S    
C9    C10   A    
C34   H6    S    
C47   H44   S    
C39   O22   S    
C18   C25   A    
C50   H52   S    
C50   O28   S    
C58   H13   S    
C51   O29   S    
C30   C31   A    
Ba2   O39   S    
C46   O24   D    
C14   C53   S    
C54   O32   S    
Ba1   O16   S    
C54   H59   S    
C55   H62   S    
C48   O26   D    
C12   H1    S    
C38   O12   S    
Ba1   P1    S    
C42   O20   S    
C12   H3    S    
C51   H55   S    
C23   O7    S    
C45   H10   S    
C41   O19   D    
C56   O27   S    
C23   C34   S    
C24   C33   A    
C55   O33   D    
C10   C11   A    
C49   H47   S    
C36   H34   S    
C20   H22   S    
Ba1   O39   S    
C20   C21   A    
O11   P6    D    
C39   H2    S    
C18   C55   S    
C19   C20   A    
C22   H24   S    
C53   H58   S    
C42   H33   S    
Ba1   O10   S    
C51   H53   S    
C56   H11   S    
C54   H60   S    
C45   C56   S    
C21   P3    S    
C30   H26   S    
