data_mof_unit_36266.cif
_audit_creation_date              2012-10-26T21:13:36-0400
_audit_creation_method            fapswitch 2.2
_symmetry_space_group_name_H-M    P1
_symmetry_Int_Tables_number       1
_space_group_crystal_system       triclinic
_cell_length_a                    9.074322
_cell_length_b                    10.860325
_cell_length_c                    9.569507
_cell_angle_alpha                 90.334864
_cell_angle_beta                  90.36152
_cell_angle_gamma                 90.439964
_cell_volume                      943.012786621

loop_
_atom_site_label
_atom_site_type_symbol
_atom_type_description
_atom_site_fract_x
_atom_site_fract_y
_atom_site_fract_z
_atom_type_partial_charge
C1    C     C_R   0.498824 0.262668 0.499528 0.547120
C2    C     C_R   0.626225 0.524617 0.927590 0.141675
C3    C     C_3   0.720704 0.637194 0.922375 -0.271393
C4    C     C_R   0.220752 0.499881 0.499706 0.558176
C5    C     C_3   0.718782 0.639414 0.081487 -0.278263
C6    C     C_R   0.495706 0.737692 0.499864 0.563454
C7    C     C_R   0.779242 0.500132 0.500286 0.546265
C8    C     C_1   0.065566 0.499966 0.499591 -0.046577
C9    C     C_1   0.934428 0.500064 0.500362 -0.057855
C10   C     C_R   0.545465 0.064784 0.614971 0.012555
C11   C     C_R   0.502567 0.129749 0.497036 -0.033486
C12   C     C_R   0.460007 0.935690 0.372745 0.248183
C13   C     C_R   0.464624 0.065257 0.374633 -0.151403
C14   C     C_3   0.449512 0.915546 0.130424 -0.127365
C15   C     C_3   0.234684 0.280906 0.097292 -0.135181
C16   C     C_R   0.495615 0.871659 0.497219 0.019964
C17   C     C_R   0.543151 0.937840 0.615042 -0.026294
C18   C     C_3   0.485133 0.934705 0.761018 -0.275935
C19   C     C_3   0.487507 0.073974 0.760111 -0.263200
C20   C     C_R   0.625630 0.526160 0.074264 0.114887
C21   C     C_R   0.383945 0.451447 0.073114 0.382444
C22   C     C_R   0.382532 0.456625 0.923713 -0.006641
Cu1   Cu    Cu3+1 0.499990 0.499980 0.640670 0.929778
Cu2   Cu    Cu3+1 0.500010 0.500020 0.359330 1.029065
H1    H     H_    0.428956 0.115974 0.283896 0.127337
H2    H     H_    0.831427 0.617598 0.878858 0.139966
H3    H     H_    0.436265 0.840877 0.051721 0.141040
H4    H     H_    0.568262 0.942443 0.132865 0.098053
H5    H     H_    0.380155 0.993353 0.095253 0.106776
H6    H     H_    0.173726 0.231910 0.180602 0.147396
H7    H     H_    0.336567 0.227421 0.075989 0.080876
H8    H     H_    0.162622 0.282045 0.003096 0.100911
H9    H     H_    0.663316 0.715524 0.873726 0.141090
H10   H     H_    0.828567 0.621493 0.129012 0.148983
H11   H     H_    0.659629 0.719322 0.126276 0.155543
H12   H     H_    0.372341 0.894428 0.767622 0.143231
H13   H     H_    0.566426 0.897484 0.835993 0.118651
H14   H     H_    0.375748 0.115137 0.764745 0.135399
H15   H     H_    0.569691 0.114772 0.833936 0.136211
H16   H     H_    0.286392 0.425404 0.866250 0.125696
N1    N     N_R   0.500920 0.500930 0.147930 -0.217648
N2    N     N_R   0.500930 0.500890 0.852020 -0.263333
O1    O     O_R   0.500000 0.319640 0.618810 -0.503408
O2    O     O_3   0.265008 0.402188 0.143887 -0.531475
O3    O     O_R   0.500020 0.319680 0.381230 -0.497162
O4    O     O_R   0.288380 0.499980 0.618770 -0.523186
O5    O     O_R   0.288400 0.500020 0.381190 -0.421137
O6    O     O_R   0.499980 0.680320 0.618770 -0.513934
O7    O     O_R   0.500000 0.680360 0.381190 -0.453049
O8    O     O_R   0.711600 0.499980 0.618810 -0.497993
O9    O     O_R   0.711620 0.500020 0.381230 -0.504792
O10   O     O_3   0.399800 0.870502 0.260019 -0.540010

loop_
_geom_bond_atom_site_label_1
_geom_bond_atom_site_label_2
_ccdc_geom_bond_type
Cu1   Cu2   S    
C15   H7    S    
C19   H14   S    
C14   H3    S    
C21   O2    S    
C1    O1    A    
C1    C11   S    
C10   C19   S    
C4    C8    S    
C1    O3    A    
C5    H10   S    
Cu2   O9    S    
C20   N1    A    
C7    O9    A    
C15   H8    S    
C5    C20   S    
C4    O4    A    
C21   C22   A    
Cu2   N1    S    
C11   C13   A    
C13   H1    S    
C22   N2    A    
Cu1   N2    S    
C6    O6    A    
C2    N2    A    
C21   N1    A    
Cu2   O3    S    
C5    H11   S    
C12   O10   S    
C18   H13   S    
Cu1   O4    S    
C15   O2    S    
C17   C18   S    
C2    C3    S    
C6    O7    A    
C10   C11   A    
C3    H9    S    
C14   H5    S    
C2    C20   A    
Cu1   O1    S    
C12   C13   A    
C15   H6    S    
C19   H15   S    
C18   C19   S    
Cu2   O7    S    
C7    C9    S    
C22   H16   S    
C16   C17   A    
Cu1   O8    S    
Cu1   O6    S    
C10   C17   A    
C14   H4    S    
Cu2   O5    S    
C18   H12   S    
C6    C16   S    
C3    H2    S    
C14   O10   S    
C12   C16   A    
C7    O8    A    
C8    C9    T    
C3    C5    S    
C4    O5    A    
