data_mof_unit_9661.cif
_audit_creation_date              2012-12-11T20:22:05-0500
_audit_creation_method            fapswitch 2.2
_symmetry_space_group_name_H-M    P1
_symmetry_Int_Tables_number       1
_space_group_crystal_system       triclinic
_cell_length_a                    8.258523
_cell_length_b                    17.406213
_cell_length_c                    26.923571
_cell_angle_alpha                 99.636178
_cell_angle_beta                  92.849658
_cell_angle_gamma                 81.512785
_cell_volume                      3772.61826265

loop_
_atom_site_label
_atom_site_type_symbol
_atom_type_description
_atom_site_fract_x
_atom_site_fract_y
_atom_site_fract_z
_atom_type_partial_charge
Ba1   Ba    Ba6+2 0.860160 0.462360 0.521850 1.340912
Ba2   Ba    Ba6+2 0.329680 0.537570 0.478140 1.309242
C1    C     C_3   0.693751 0.183506 0.646858 0.687790
C2    C     C_3   0.693723 0.263179 0.629941 0.471606
C3    C     C_3   0.497785 0.658458 0.634680 0.249377
C4    C     C_3   0.481919 0.686767 0.691284 0.302885
C5    C     C_3   0.994640 0.729839 0.348207 1.085758
C6    C     C_3   0.944562 0.783654 0.308004 0.636946
C7    C     C_3   0.479051 0.746932 0.371916 0.259316
C8    C     C_3   0.441645 0.825053 0.352583 -0.239780
C9    C     C_R   0.024913 0.438769 0.175996 0.535761
C10   C     C_R   0.905817 0.574152 0.180831 0.592141
C11   C     C_2   0.752655 0.548227 0.273528 -0.131026
C12   C     C_3   0.172282 0.290988 0.651821 0.198457
C13   C     C_3   0.732983 0.576277 0.329429 0.040669
C14   C     C_1   0.982316 0.485497 0.342380 0.041890
C15   C     C_2   0.021521 0.478530 0.294143 -0.093620
C16   C     C_2   0.899463 0.509886 0.256132 0.198871
C17   C     C_R   0.023358 0.503502 0.101707 -0.091416
C18   C     C_R   0.069199 0.436783 0.125392 0.078217
C19   C     C_R   0.157442 0.369188 0.097839 -0.161186
C20   C     C_R   0.939318 0.572226 0.129648 -0.031404
C21   C     C_2   0.845618 0.527325 0.361310 -0.242193
C22   C     C_2   0.351320 0.479347 0.639691 -0.295868
C23   C     C_3   0.142029 0.273469 0.703729 -0.338487
C24   C     C_R   0.202154 0.434032 0.972599 0.039543
C25   C     C_R   0.040690 0.565554 0.974310 -0.005143
C26   C     C_R   0.141291 0.499278 0.948059 0.079239
C27   C     C_R   0.307851 0.371305 0.945397 -0.094904
C28   C     C_R   0.348346 0.371665 0.895748 -0.053298
C29   C     C_R   0.285413 0.434443 0.870633 -0.069985
C30   C     C_R   0.181561 0.498367 0.896727 -0.052814
C31   C     C_R   0.118200 0.561539 0.871539 -0.056387
C32   C     C_R   0.159863 0.560331 0.820999 0.568233
C33   C     C_R   0.324580 0.434507 0.819953 0.662359
C34   C     C_3   0.218637 0.297693 0.410790 0.371018
C35   C     C_2   0.459750 0.483729 0.728128 -0.034144
C36   C     C_3   0.499712 0.487982 0.674153 -0.061273
C37   C     C_1   0.207299 0.513310 0.656708 0.081992
C38   C     C_2   0.169074 0.512799 0.704036 -0.135708
C39   C     C_2   0.301663 0.496610 0.742969 0.212172
C40   C     C_R   0.156594 0.433855 0.023264 -0.013234
C41   C     C_R   0.062656 0.501867 0.050205 0.053563
C42   C     C_R   0.007968 0.568508 0.026289 0.025690
C43   C     C_R   0.201144 0.367797 0.048214 -0.027871
C44   C     C_R   0.891626 0.638512 0.106127 -0.044998
C45   C     C_3   0.236161 0.208653 0.396263 -0.523289
C46   C     C_R   0.975428 0.626754 0.947317 -0.092385
C47   C     C_R   0.013727 0.624782 0.897300 -0.039518
C48   C     C_R   0.923813 0.636668 0.055685 -0.091650
C49   C     C_2   0.442141 0.278467 0.512205 -0.359911
C50   C     C_3   0.371973 0.226765 0.542832 0.033486
C51   C     C_2   0.415225 0.140806 0.523817 -0.059335
C52   C     C_2   0.549352 0.115136 0.495612 -0.001958
C53   C     C_2   0.634956 0.174249 0.476862 -0.126983
C54   C     C_1   0.572415 0.249871 0.484551 0.128671
C55   C     C_R   0.790616 0.863187 0.474685 -0.089404
C56   C     C_3   0.011770 0.713425 0.596593 0.640462
C57   C     C_R   0.849115 0.782852 0.468613 0.021739
C58   C     C_R   0.616950 0.759844 0.512487 0.091924
C59   C     C_R   0.558178 0.840124 0.519285 -0.154485
C60   C     C_R   0.642996 0.892234 0.499681 0.082493
C61   C     C_2   0.612365 0.030039 0.482580 -0.065351
C62   C     C_2   0.582640 0.977135 0.510965 -0.125912
C63   C     C_R   0.758907 0.731109 0.485614 -0.186830
C64   C     C_3   0.097196 0.786884 0.608894 -0.331673
C65   C     C_3   0.691544 0.363581 0.368311 0.371048
C66   C     C_3   0.673705 0.346803 0.310967 0.233016
H1    H     H_    0.808663 0.261763 0.609919 0.025226
H2    H     H_    0.316524 0.189225 0.363493 0.169855
H3    H     H_    0.290228 0.179818 0.427993 0.089952
H4    H     H_    0.114213 0.190084 0.386325 0.175932
H5    H     H_    0.050636 0.681836 0.558884 0.071066
H6    H     H_    0.051658 0.823517 0.644595 0.111762
H7    H     H_    0.072918 0.822610 0.578118 0.104051
H8    H     H_    0.230498 0.770779 0.613762 0.113922
H9    H     H_    0.818605 0.373792 0.378697 -0.078862
H10   H     H_    0.605382 0.417217 0.382273 0.046931
H11   H     H_    0.712538 0.136209 0.613047 -0.104028
H12   H     H_    0.755198 0.292134 0.295708 0.057790
H13   H     H_    0.711657 0.395617 0.294959 0.017860
H14   H     H_    0.589412 0.272393 0.603394 -0.134128
H15   H     H_    0.379640 0.640051 0.619473 -0.070085
H16   H     H_    0.596077 0.607280 0.627947 0.077577
H17   H     H_    0.397025 0.743029 0.697777 0.108058
H18   H     H_    0.428163 0.643814 0.709325 -0.033209
H19   H     H_    0.201884 0.313618 0.732879 0.125617
H20   H     H_    0.879459 0.716446 0.362557 -1.136464
H21   H     H_    0.856046 0.755948 0.280641 0.056952
H22   H     H_    0.613530 0.735356 0.378172 0.048462
H23   H     H_    0.419008 0.752586 0.408622 0.085386
H24   H     H_    0.495020 0.871192 0.379134 0.055486
H25   H     H_    0.307582 0.843029 0.349643 0.172674
H26   H     H_    0.114325 0.352156 0.649953 0.084108
H27   H     H_    0.495599 0.819886 0.315009 0.152454
H28   H     H_    0.145514 0.454590 0.282699 0.170519
H29   H     H_    0.194567 0.316672 0.114762 0.155347
H30   H     H_    0.559408 0.475743 0.755455 0.104097
H31   H     H_    0.430119 0.321986 0.876984 0.145220
H32   H     H_    0.364380 0.321203 0.961699 0.086554
H33   H     H_    0.267701 0.312968 0.030093 0.079034
H34   H     H_    0.658583 0.570395 0.247841 0.127886
H35   H     H_    0.827323 0.692609 0.126682 0.137492
H36   H     H_    0.891103 0.676836 0.963437 0.082180
H37   H     H_    0.306518 0.286992 0.647469 0.092210
H38   H     H_    0.960318 0.673545 0.878739 0.138844
H39   H     H_    0.042366 0.525764 0.715083 0.141254
H40   H     H_    0.884171 0.690928 0.041256 0.081585
H41   H     H_    0.828038 0.539685 0.401664 0.087483
H42   H     H_    0.362942 0.447322 0.601513 0.078631
H43   H     H_    0.510277 0.996006 0.544444 0.090374
H44   H     H_    0.745841 0.154389 0.455532 0.093975
H45   H     H_    0.864347 0.902586 0.462366 0.058083
H46   H     H_    0.687559 0.011420 0.449638 0.088312
H47   H     H_    0.343466 0.100772 0.536449 0.050673
H48   H     H_    0.008719 0.283166 0.710644 0.195226
H49   H     H_    0.449633 0.862205 0.541207 0.089634
H50   H     H_    0.806506 0.669134 0.481845 0.076765
H51   H     H_    0.193115 0.211673 0.706716 0.183313
H52   H     H_    0.340929 0.315497 0.419516 0.021060
N1    N     N_R   0.942990 0.507073 0.203459 -0.391449
N2    N     N_R   0.261592 0.497027 0.795421 -0.433641
O1    O     O_2   0.906370 0.542040 0.619810 -0.455305
O2    O     O_3   0.658652 0.298128 0.388029 -0.646056
O3    O     O_3   0.104134 0.237223 0.614556 -0.601933
O4    O     O_2   0.283330 0.457940 0.380160 -0.429027
O5    O     O_3   0.051340 0.457960 0.440360 -0.489845
O6    O     O_3   0.503130 0.601610 0.416130 -0.475408
O7    O     O_3   0.147937 0.331875 0.370018 -0.609228
O8    O     O_3   0.616890 0.595000 0.528820 -0.441778
O9    O     O_3   0.087820 0.642040 0.442240 -0.422046
O10   O     O_2   0.182808 0.781162 0.480420 -0.511504
O11   O     O_3   0.089832 0.768968 0.386259 -0.611980
O12   O     O_3   0.138370 0.541980 0.559630 -0.498301
O13   O     O_3   0.572820 0.404940 0.471170 -0.496621
O14   O     O_2   0.345130 0.693150 0.532000 -0.478532
O15   O     O_3   0.535607 0.720575 0.612350 -0.598512
O16   O     O_2   0.410272 0.535116 0.324109 -0.425518
O17   O     O_3   0.420305 0.686960 0.336899 -0.528273
O18   O     O_2   0.058353 0.379335 0.195286 -0.568591
O19   O     O_2   0.413755 0.378408 0.797580 -0.578701
O20   O     O_2   0.845454 0.636396 0.205466 -0.626672
O21   O     O_2   0.107087 0.616422 0.800038 -0.557617
O22   O     O_3   0.686580 0.398330 0.583860 -0.488740
O23   O     O_2   0.840582 0.440344 0.670903 -0.505271
O24   O     O_3   0.048632 0.667649 0.635070 -0.633228
O25   O     O_3   0.677708 0.324440 0.671551 -0.560293
O26   O     O_2   0.844570 0.306830 0.467970 -0.454562
O27   O     O_3   0.101900 0.357890 0.557750 -0.479309
O28   O     O_2   0.036257 0.215016 0.516825 -0.490380
P1    P     P_3+3 0.071770 0.565500 0.613330 1.079253
P2    P     P_3+3 0.664870 0.318630 0.453960 0.995758
P3    P     P_3+3 0.151430 0.257204 0.555880 0.970407
P4    P     P_3+3 0.117940 0.434440 0.386660 1.061589
P5    P     P_3+3 0.053005 0.744209 0.444610 1.064977
P6    P     P_3+3 0.676271 0.414312 0.649843 0.994789
P7    P     P_3+3 0.530801 0.693654 0.546807 1.034112
P8    P     P_3+3 0.516791 0.596428 0.351031 1.042504
O29   O     O_3   0.843745 0.737781 0.594995 -0.765325
H53   H     H_    0.811549 0.763670 0.629514 0.348022
O30   O     O_3   0.510423 0.340771 0.296233 -0.692419
H54   H     H_    0.490682 0.287514 0.300539 0.320900
O31   O     O_3   0.541487 0.181535 0.667281 -0.719584
H55   H     H_    0.548542 0.128981 0.677628 0.321502
O32   O     O_3   0.634790 0.699265 0.713632 -0.685498
H56   H     H_    0.696340 0.646433 0.716073 0.300361
O33   O     O_3   0.818950 0.171648 0.683418 -0.703382
H57   H     H_    0.921614 0.150905 0.664846 0.298442
O34   O     O_3   0.088672 0.658952 0.327118 -0.692959
H58   H     H_    0.028854 0.637325 0.296512 0.268631
O35   O     O_3   0.082972 0.794053 0.282486 -0.713057
H59   H     H_    0.107882 0.746710 0.256311 0.306615
O36   O     O_3   0.863209 0.857350 0.330299 -0.732179
H60   H     H_    0.946976 0.887404 0.348508 0.328426
H61   H     H_    0.402955 0.341297 0.520600 0.120850
H62   H     H_    0.141258 0.315128 0.444443 0.082424

loop_
_geom_bond_atom_site_label_1
_geom_bond_atom_site_label_2
_ccdc_geom_bond_type
C25   C46   A    
C66   H12   S    
O35   H59   S    
O32   H56   S    
C37   P1    S    
C53   H44   S    
O34   H58   S    
C17   C18   A    
C65   H9    S    
C36   P6    S    
C9    O18   D    
C1    H11   S    
C65   O2    S    
C7    H23   S    
O30   H54   S    
C1    O33   S    
C55   C60   A    
C51   C52   D    
Ba2   O12   S    
C12   O3    S    
C11   C16   D    
C34   C45   S    
O8    P7    S    
C32   O21   D    
C66   H13   S    
C35   C36   S    
C5    O11   S    
C56   O29   S    
C28   C29   A    
C3    H15   S    
C55   C57   A    
C52   C61   S    
O12   P1    S    
C31   C47   A    
O13   P2    S    
C64   H6    S    
C10   C20   A    
C23   H19   S    
O10   P5    D    
Ba1   P2    S    
C49   C54   D    
C5    H20   S    
O27   P3    S    
C35   H30   S    
C60   C62   S    
O23   P6    D    
C25   C42   A    
C56   C64   S    
C12   H37   S    
C10   N1    Am   
O31   H55   S    
O17   P8    S    
O3    P3    S    
C14   C15   D    
O28   P3    D    
C22   C36   S    
C63   H50   S    
Ba1   O27   S    
C54   P2    S    
C7    C8    S    
C6    O35   S    
C1    O31   S    
Ba2   O5    S    
C13   C21   S    
O2    P2    S    
C4    O32   S    
C8    H24   S    
Ba2   P4    S    
C48   H40   S    
C61   H46   S    
C9    N1    Am   
C65   H10   S    
C23   H51   S    
O5    P4    S    
C2    H1    S    
C17   C41   A    
C15   C16   S    
C19   C43   A    
C33   N2    Am   
C21   H41   S    
O1    P1    D    
C9    C18   A    
C59   H49   S    
C49   C50   S    
O26   P2    D    
C26   C30   A    
C17   C20   A    
C22   H42   S    
C58   P7    S    
C13   P8    S    
Ba1   O8    S    
C23   H48   S    
O33   H57   S    
C3    H16   S    
C57   P5    S    
C6    O36   S    
C62   H43   S    
C55   H45   S    
C8    H25   S    
C50   P3    S    
O36   H60   S    
C2    O25   S    
C28   H31   S    
Ba2   O14   S    
C65   C66   S    
C58   C59   A    
C40   C43   A    
C39   N2    S    
O22   P6    S    
C41   C42   A    
Ba1   O1    S    
C45   H2    S    
C27   C28   A    
C19   H29   S    
O16   P8    D    
O29   H53   S    
C10   O20   D    
C66   O30   S    
C64   H8    S    
C53   C54   D    
Ba2   O9    S    
C15   H28   S    
C49   H61   S    
O25   P6    S    
C4    H17   S    
C45   H3    S    
C43   H33   S    
C33   O19   D    
C38   H39   S    
O14   P7    D    
O4    P4    D    
C46   C47   A    
C20   C44   A    
C58   C63   A    
C34   H62   S    
C14   C21   D    
C5    O34   S    
C14   P4    S    
C29   C33   A    
C40   C41   A    
C1    C2    S    
Ba2   O4    S    
C37   C38   D    
C50   C51   S    
C24   C40   A    
C42   C48   A    
C52   C53   S    
C38   C39   S    
C27   H32   S    
O11   P5    S    
C29   C30   A    
Ba1   O5    S    
C61   C62   D    
C7    H22   S    
C56   O24   S    
C3    O15   S    
C47   H38   S    
C44   H35   S    
C44   C48   A    
C24   C26   A    
Ba2   O13   S    
C4    H18   S    
O15   P7    S    
C30   C31   A    
C11   C13   S    
Ba1   O22   S    
C34   O7    S    
C57   C63   A    
C7    O17   S    
C3    C4    S    
C8    H27   S    
C64   H7    S    
Ba1   Ba2   S    
O9    P5    S    
Ba2   O8    S    
C31   C32   A    
Ba1   P1    S    
C12   C23   S    
C35   C39   D    
C59   C60   A    
C34   H52   S    
C45   H4    S    
C5    C6    S    
O6    P8    S    
C16   N1    S    
O24   P1    S    
C51   H47   S    
C2    H14   S    
C18   C19   A    
C24   C27   A    
C32   N2    Am   
C25   C26   A    
Ba1   O26   S    
C6    H21   S    
C11   H34   S    
Ba1   O13   S    
C22   C37   D    
C12   H26   S    
O7    P4    S    
Ba1   O12   S    
C56   H5    S    
Ba2   O6    S    
C46   H36   S    
