data_mof_unit_43387.cif
_audit_creation_date              2012-12-11T15:10:34-0500
_audit_creation_method            fapswitch 2.2
_symmetry_space_group_name_H-M    P1
_symmetry_Int_Tables_number       1
_space_group_crystal_system       triclinic
_cell_length_a                    13.603618
_cell_length_b                    13.560985
_cell_length_c                    28.290959
_cell_angle_alpha                 90.112891
_cell_angle_beta                  89.704742
_cell_angle_gamma                 119.955626
_cell_volume                      4521.8079252

loop_
_atom_site_label
_atom_site_type_symbol
_atom_type_description
_atom_site_fract_x
_atom_site_fract_y
_atom_site_fract_z
_atom_type_partial_charge
C1    C     C_R   0.545655 0.433712 0.184007 0.540338
C2    C     C_R   0.567017 0.112030 0.183865 0.542273
C3    C     C_R   0.889144 0.455115 0.184141 0.541677
C4    C     C_R   0.433257 0.545223 0.816092 0.541004
C5    C     C_R   0.111229 0.566318 0.815971 0.541102
C6    C     C_R   0.454235 0.888114 0.815982 0.541284
C7    C     C_3   0.496235 0.906232 0.467049 -0.273017
C8    C     C_3   0.096913 0.590145 0.466354 -0.275891
C9    C     C_3   0.407550 0.508606 0.466433 -0.274512
C10   C     C_3   0.903666 0.493235 0.533703 -0.275991
C11   C     C_3   0.592791 0.101089 0.533740 -0.274880
C12   C     C_3   0.503943 0.409948 0.532706 -0.272554
C13   C     C_1   0.471609 0.940282 0.638071 -0.021826
C14   C     C_1   0.062179 0.531338 0.637591 -0.025024
C15   C     C_1   0.467630 0.530256 0.637387 -0.035398
C16   C     C_1   0.938076 0.469887 0.362330 -0.024004
C17   C     C_1   0.532381 0.063063 0.362670 -0.035283
C18   C     C_1   0.528550 0.469150 0.361918 -0.021538
C19   C     C_3   0.498309 0.018196 0.454600 0.058478
C20   C     C_3   0.985010 0.480687 0.453998 0.058793
C21   C     C_3   0.516140 0.504785 0.453517 0.055459
C22   C     C_3   0.015439 0.495500 0.545863 0.058925
C23   C     C_3   0.484123 0.988518 0.546514 0.055754
C24   C     C_3   0.501902 0.519793 0.545459 0.058288
C25   C     C_3   0.379142 0.994393 0.528489 0.211270
C26   C     C_3   0.008184 0.383723 0.527271 0.208817
C27   C     C_3   0.613277 0.624371 0.526820 0.206512
C28   C     C_3   0.992011 0.375891 0.472169 0.209027
C29   C     C_3   0.386970 0.011150 0.473406 0.206542
C30   C     C_3   0.621228 0.615627 0.471716 0.211219
C31   C     C_1   0.478694 0.968659 0.597528 -0.045021
C32   C     C_1   0.035084 0.509885 0.596928 -0.047924
C33   C     C_1   0.488183 0.524650 0.596556 -0.057329
C34   C     C_1   0.965317 0.475694 0.402958 -0.047121
C35   C     C_1   0.511944 0.036956 0.403502 -0.057063
C36   C     C_1   0.521548 0.490530 0.402484 -0.045335
C37   C     C_R   0.544500 0.434317 0.316491 0.542322
C38   C     C_R   0.566011 0.110955 0.316723 0.542392
C39   C     C_R   0.889164 0.455170 0.316663 0.542512
C40   C     C_R   0.434017 0.544762 0.683313 0.542869
C41   C     C_R   0.110883 0.565839 0.683309 0.542610
C42   C     C_R   0.455511 0.889632 0.683489 0.540849
C43   C     C_3   0.501427 0.117103 0.020400 -0.260834
C44   C     C_3   0.884938 0.395197 0.021379 -0.245378
C45   C     C_3   0.606655 0.482584 0.019332 -0.265290
C46   C     C_3   0.118847 0.509228 0.979048 -0.254543
C47   C     C_3   0.397898 0.885392 0.979313 -0.246949
C48   C     C_3   0.523056 0.624000 0.978934 -0.265458
C49   C     C_3   0.403689 0.905622 0.033240 -0.201100
C50   C     C_3   0.095501 0.486809 0.032742 -0.196369
C51   C     C_3   0.526525 0.611963 0.033315 -0.211789
C52   C     C_3   0.907636 0.396370 0.967650 -0.195923
C53   C     C_3   0.485383 0.096247 0.966334 -0.210608
C54   C     C_3   0.591373 0.484835 0.965148 -0.218306
C55   C     C_1   0.469277 0.936845 0.861789 -0.040565
C56   C     C_1   0.062789 0.535084 0.862098 -0.036497
C57   C     C_1   0.464942 0.528987 0.862197 -0.031313
C58   C     C_1   0.939561 0.472620 0.138375 -0.039874
C59   C     C_1   0.537227 0.065196 0.137488 -0.028368
C60   C     C_1   0.531130 0.465677 0.137836 -0.027945
C61   C     C_3   0.510604 0.019625 0.045239 0.050536
C62   C     C_3   0.989029 0.494397 0.046498 0.050898
C63   C     C_3   0.512931 0.494558 0.045978 0.045278
C64   C     C_3   0.016613 0.508420 0.954266 0.053205
C65   C     C_3   0.494421 0.990348 0.953089 0.045413
C66   C     C_3   0.494930 0.510521 0.954156 0.044266
C67   C     C_3   0.611973 0.008768 0.970348 0.208244
C68   C     C_3   0.006212 0.611036 0.973002 0.216228
C69   C     C_3   0.380924 0.414524 0.975270 0.210666
C70   C     C_3   0.004498 0.610287 0.028288 0.208349
C71   C     C_3   0.616826 0.017907 0.025589 0.216092
C72   C     C_3   0.395497 0.397529 0.028702 0.203905
C73   C     C_1   0.479583 0.966014 0.902391 -0.088140
C74   C     C_1   0.035845 0.518232 0.903043 -0.078588
C75   C     C_1   0.483312 0.520186 0.903040 -0.056512
C76   C     C_1   0.968396 0.483449 0.097631 -0.085664
C77   C     C_1   0.521091 0.039245 0.096461 -0.064324
C78   C     C_1   0.523358 0.483906 0.096951 -0.051560
C79   C     C_3   0.601345 0.118070 0.479621 -0.210494
C80   C     C_3   0.885713 0.484110 0.479713 -0.212921
C81   C     C_3   0.511670 0.400992 0.478610 -0.212135
C82   C     C_3   0.114859 0.598500 0.520345 -0.212618
C83   C     C_3   0.488416 0.889231 0.521112 -0.212575
C84   C     C_3   0.398892 0.516608 0.520585 -0.210124
Cr1   Cr    Cr6+3 0.748260 0.501860 0.250510 1.014345
Cr2   Cr    Cr6+3 0.498140 0.246400 0.250510 0.997298
Cr3   Cr    Cr6+3 0.753600 0.251740 0.250510 1.010351
Cr4   Cr    Cr6+3 0.501860 0.748260 0.749490 0.995892
Cr5   Cr    Cr6+3 0.246400 0.498140 0.749490 1.007780
Cr6   Cr    Cr6+3 0.251740 0.753600 0.749490 1.015755
H1    H     H_    0.400850 0.083083 0.955929 0.131853
H2    H     H_    0.918823 0.322790 0.958694 0.131418
H3    H     H_    0.672138 0.551036 0.948966 0.143856
H4    H     H_    0.080746 0.400330 0.040916 0.122725
H5    H     H_    0.327259 0.908080 0.045240 0.136983
H6    H     H_    0.608512 0.681595 0.047088 0.127474
H7    H     H_    0.412336 0.806186 0.530164 0.162495
H8    H     H_    0.197129 0.603514 0.528652 0.161729
H9    H     H_    0.393116 0.593448 0.529697 0.161289
H10   H     H_    0.803363 0.406876 0.471270 0.161805
H11   H     H_    0.607083 0.200734 0.470774 0.161161
H12   H     H_    0.587623 0.393993 0.469405 0.162747
H13   H     H_    0.315469 0.934812 0.456327 0.111164
H14   H     H_    0.067932 0.380703 0.454459 0.116667
H15   H     H_    0.618576 0.687868 0.453972 0.124063
H16   H     H_    0.932172 0.312386 0.544830 0.115953
H17   H     H_    0.382048 0.069379 0.546401 0.124127
H18   H     H_    0.684750 0.619637 0.543838 0.111140
H19   H     H_    0.428662 0.123195 0.035228 0.116646
H20   H     H_    0.866314 0.311734 0.036396 0.119855
H21   H     H_    0.691999 0.553277 0.029474 0.135547
H22   H     H_    0.134790 0.443271 0.963419 0.112326
H23   H     H_    0.313403 0.867355 0.966253 0.128433
H24   H     H_    0.606562 0.693919 0.966224 0.125518
H25   H     H_    0.403846 0.833676 0.052024 0.167624
H26   H     H_    0.170972 0.548967 0.053154 0.169807
H27   H     H_    0.457502 0.621292 0.050156 0.166253
H28   H     H_    0.833194 0.386487 0.947509 0.167313
H29   H     H_    0.550639 0.172574 0.947009 0.151593
H30   H     H_    0.571588 0.401509 0.949599 0.156138
H31   H     H_    0.405041 0.808534 0.971921 0.112416
H32   H     H_    0.197152 0.592958 0.973491 0.121434
H33   H     H_    0.458338 0.648263 0.969993 0.106147
H34   H     H_    0.808381 0.403458 0.027282 0.121865
H35   H     H_    0.579582 0.200099 0.027086 0.111143
H36   H     H_    0.603249 0.401570 0.029285 0.102119
H37   H     H_    0.692100 0.101544 0.035391 0.125764
H38   H     H_    0.930868 0.619432 0.040126 0.122894
H39   H     H_    0.395825 0.315360 0.032010 0.121070
H40   H     H_    0.083345 0.691242 0.961208 0.122771
H41   H     H_    0.618843 0.932830 0.960992 0.132995
H42   H     H_    0.317987 0.444490 0.972648 0.120354
H43   H     H_    0.669200 0.099638 0.546752 0.116822
H44   H     H_    0.906232 0.571900 0.546810 0.117360
H45   H     H_    0.425785 0.333859 0.546124 0.122558
H46   H     H_    0.094533 0.666443 0.453544 0.117275
H47   H     H_    0.574414 0.908512 0.453543 0.122390
H48   H     H_    0.331091 0.430789 0.453256 0.117341
H49   H     H_    0.680460 0.122446 0.466861 0.159041
H50   H     H_    0.880369 0.558443 0.467114 0.155688
H51   H     H_    0.436316 0.322263 0.466226 0.156998
H52   H     H_    0.120369 0.678147 0.533240 0.156224
H53   H     H_    0.563661 0.885707 0.533384 0.157204
H54   H     H_    0.319775 0.441623 0.533221 0.158886
H55   H     H_    0.422426 0.832687 0.449965 0.108779
H56   H     H_    0.169883 0.589753 0.448545 0.108101
H57   H     H_    0.409096 0.583253 0.449350 0.109395
H58   H     H_    0.830603 0.419681 0.551369 0.108012
H59   H     H_    0.591444 0.174173 0.551076 0.109171
H60   H     H_    0.577785 0.410289 0.549662 0.108858
O1    O     O_R   0.863770 0.527700 0.199270 -0.516282
O2    O     O_R   0.472300 0.336070 0.199270 -0.519447
O3    O     O_R   0.663930 0.136230 0.199270 -0.512107
O4    O     O_R   0.527700 0.863770 0.800730 -0.521165
O5    O     O_R   0.336070 0.472300 0.800730 -0.516274
O6    O     O_R   0.136230 0.663930 0.800730 -0.513577
O7    O     O_R   0.643280 0.490970 0.202410 -0.496929
O8    O     O_R   0.509030 0.152310 0.202410 -0.499219
O9    O     O_R   0.847690 0.356720 0.202410 -0.496749
O10   O     O_R   0.490970 0.643280 0.797590 -0.496640
O11   O     O_R   0.152310 0.509030 0.797590 -0.499964
O12   O     O_R   0.356720 0.847690 0.797590 -0.494367
O13   O     O_R   0.862920 0.527590 0.302350 -0.515172
O14   O     O_R   0.472410 0.335330 0.302350 -0.526027
O15   O     O_R   0.664670 0.137080 0.302350 -0.514556
O16   O     O_R   0.527590 0.862920 0.697650 -0.527487
O17   O     O_R   0.335330 0.472410 0.697650 -0.514456
O18   O     O_R   0.137080 0.664670 0.697650 -0.514669
O19   O     O_R   0.642490 0.490870 0.297970 -0.490180
O20   O     O_R   0.509130 0.151620 0.297970 -0.500881
O21   O     O_R   0.848380 0.357510 0.297970 -0.496977
O22   O     O_R   0.490870 0.642490 0.702030 -0.500425
O23   O     O_R   0.151620 0.509130 0.702030 -0.496986
O24   O     O_R   0.357510 0.848380 0.702030 -0.490291
O25   O     O_3   0.666667 0.333333 0.250440 -0.240033
O26   O     O_3   0.333333 0.666667 0.749560 -0.239581
O27   O     O_3   0.388661 0.114322 0.462812 -0.621972
C85   C     C_3   0.287741 0.097637 0.441221 -0.034900
H61   H     H_    0.262447 0.154414 0.459292 0.130353
H62   H     H_    0.213628 0.010429 0.444940 0.102358
C86   C     C_3   0.311528 0.131005 0.389036 -0.232575
H63   H     H_    0.393659 0.211810 0.385666 0.202227
H64   H     H_    0.318148 0.063607 0.369354 0.162091
C87   C     C_3   0.218674 0.147473 0.366984 -0.477989
H65   H     H_    0.136729 0.066518 0.367807 0.133300
H66   H     H_    0.240730 0.174328 0.329564 0.167349
H67   H     H_    0.209933 0.214216 0.386230 0.134487
O28   O     O_3   0.890057 0.275032 0.460460 -0.616505
C88   C     C_3   0.907222 0.182857 0.449255 -0.028032
H68   H     H_    0.853047 0.111247 0.473387 0.126496
H69   H     H_    0.995672 0.199956 0.453996 0.102880
C89   C     C_3   0.869856 0.146173 0.398277 -0.239776
H70   H     H_    0.782415 0.131037 0.393274 0.188849
H71   H     H_    0.927500 0.215456 0.373870 0.170042
C90   C     C_3   0.871586 0.037620 0.385894 -0.490092
H72   H     H_    0.958979 0.052227 0.389223 0.138608
H73   H     H_    0.843136 0.012886 0.348870 0.154854
H74   H     H_    0.813828 0.966950 0.409708 0.135462
O29   O     O_3   0.720988 0.613286 0.459145 -0.612716
C91   C     C_3   0.817968 0.723430 0.457690 -0.024778
H75   H     H_    0.877418 0.727490 0.485399 0.129399
H76   H     H_    0.801341 0.794666 0.464977 0.108349
C92   C     C_3   0.874064 0.741720 0.409059 -0.240328
H77   H     H_    0.873213 0.662939 0.397418 0.196234
H78   H     H_    0.825199 0.761110 0.382984 0.157705
C93   C     C_3   0.996557 0.838745 0.409923 -0.497995
H79   H     H_    0.001174 0.917041 0.424402 0.131465
H80   H     H_    0.031985 0.855729 0.373500 0.150613
H81   H     H_    0.048516 0.815162 0.432221 0.125661
O30   O     O_3   0.110126 0.384744 0.538675 -0.616924
C94   C     C_3   0.092572 0.275615 0.550455 -0.028357
H82   H     H_    0.147731 0.257927 0.526999 0.127115
H83   H     H_    0.004395 0.203976 0.545194 0.101920
C95   C     C_3   0.127918 0.277244 0.601795 -0.239973
H84   H     H_    0.215078 0.349933 0.607212 0.189627
H85   H     H_    0.069197 0.288959 0.625545 0.169063
C96   C     C_3   0.125959 0.167282 0.614834 -0.489519
H86   H     H_    0.038835 0.094136 0.610981 0.138204
H87   H     H_    0.152734 0.171577 0.652141 0.155042
H88   H     H_    0.184909 0.154391 0.591736 0.135775
O31   O     O_3   0.279256 0.892269 0.540993 -0.612806
C97   C     C_3   0.182453 0.905565 0.542599 -0.024969
H89   H     H_    0.122816 0.850020 0.514902 0.129474
H90   H     H_    0.199283 0.993507 0.535406 0.108626
C98   C     C_3   0.126500 0.867991 0.591252 -0.240441
H91   H     H_    0.127047 0.789928 0.602775 0.196130
H92   H     H_    0.175660 0.936355 0.617362 0.157672
C99   C     C_3   0.004159 0.842799 0.590526 -0.497933
H93   H     H_    0.999860 0.916710 0.576269 0.131617
H94   H     H_    0.968809 0.824303 0.626960 0.150619
H95   H     H_    0.951919 0.767294 0.568108 0.125674
O32   O     O_3   0.611527 0.725801 0.537646 -0.622040
C100  C     C_3   0.712417 0.810209 0.559321 -0.035011
H96   H     H_    0.737713 0.892346 0.541400 0.130284
H97   H     H_    0.786551 0.797253 0.555540 0.102359
C101  C     C_3   0.688502 0.819697 0.611528 -0.232061
H98   H     H_    0.606655 0.818826 0.614881 0.202765
H99   H     H_    0.681234 0.745345 0.631036 0.162529
C102  C     C_3   0.781697 0.928754 0.633832 -0.478293
H100  H     H_    0.863263 0.929102 0.633104 0.133386
H101  H     H_    0.759408 0.933624 0.671236 0.166720
H102  H     H_    0.791304 0.004585 0.614703 0.134410
O33   O     O_3   0.620783 0.923034 0.044963 -0.612926
C103  C     C_3   0.724699 0.955974 0.067977 -0.006207
H103  H     H_    0.710931 0.885834 0.092231 0.152988
H104  H     H_    0.752186 0.032499 0.090724 0.130528
C104  C     C_3   0.816770 0.973305 0.032125 -0.283270
H105  H     H_    0.791570 0.891426 0.013929 0.153446
H106  H     H_    0.826388 0.036767 0.005194 0.181447
C105  C     C_3   0.930643 0.015628 0.056267 -0.503335
H107  H     H_    0.961592 0.102376 0.070696 0.146951
H108  H     H_    0.993673 0.019210 0.030270 0.139233
H109  H     H_    0.922250 0.957250 0.085437 0.150415
O34   O     O_3   0.109874 0.701667 0.044258 -0.623304
C106  C     C_3   0.098808 0.757288 0.084617 -0.010519
H110  H     H_    0.174125 0.781018 0.107093 0.157764
H111  H     H_    0.023294 0.702797 0.106975 0.129945
C107  C     C_3   0.097104 0.865071 0.069974 -0.280517
H112  H     H_    0.156427 0.907256 0.039954 0.166707
H113  H     H_    0.010322 0.841227 0.058150 0.141064
C108  C     C_3   0.131372 0.949550 0.110793 -0.487298
H114  H     H_    0.069975 0.911831 0.140505 0.150099
H115  H     H_    0.132672 0.027831 0.098596 0.136010
H116  H     H_    0.217833 0.973885 0.123342 0.151084
O35   O     O_3   0.306423 0.397920 0.055262 -0.612214
C109  C     C_3   0.252776 0.302597 0.085842 -0.010787
H117  H     H_    0.314904 0.283394 0.103024 0.137293
H118  H     H_    0.191213 0.226777 0.065395 0.126319
C110  C     C_3   0.190149 0.327192 0.125009 -0.248522
H119  H     H_    0.250403 0.407856 0.143050 0.179608
H120  H     H_    0.121006 0.337402 0.109581 0.154639
C111  C     C_3   0.139194 0.231501 0.161500 -0.483229
H121  H     H_    0.076524 0.150326 0.144639 0.138814
H122  H     H_    0.095253 0.252712 0.189482 0.147326
H123  H     H_    0.206891 0.220572 0.178183 0.163561
O36   O     O_3   0.903232 0.601347 0.956268 -0.619497
C112  C     C_3   0.922139 0.690274 0.924953 -0.010307
H124  H     H_    0.845611 0.659051 0.902469 0.152870
H125  H     H_    0.994562 0.713359 0.900256 0.131490
C113  C     C_3   0.938136 0.793994 0.952801 -0.279272
H126  H     H_    0.868259 0.766984 0.979075 0.162155
H127  H     H_    0.020011 0.832404 0.971918 0.152583
C114  C     C_3   0.938516 0.883475 0.920326 -0.498388
H128  H     H_    0.010317 0.914978 0.894839 0.151911
H129  H     H_    0.948246 0.955812 0.942062 0.144254
H130  H     H_    0.857329 0.847446 0.900689 0.145087
O37   O     O_3   0.706877 0.110628 0.952573 -0.633392
C115  C     C_3   0.734414 0.109976 0.904058 -0.012327
H131  H     H_    0.816992 0.188671 0.898117 0.146938
H132  H     H_    0.675394 0.121028 0.880872 0.145151
C116  C     C_3   0.748983 0.008991 0.888504 -0.286277
H133  H     H_    0.802991 0.996755 0.914250 0.150839
H134  H     H_    0.665839 0.929282 0.886913 0.161553
C117  C     C_3   0.802443 0.028959 0.839326 -0.459910
H135  H     H_    0.746970 0.037419 0.812928 0.170344
H136  H     H_    0.813234 0.955712 0.829287 0.144826
H137  H     H_    0.886741 0.107565 0.838614 0.135642
O38   O     O_3   0.346057 0.310075 0.951099 -0.606515
C118  C     C_3   0.248392 0.277863 0.923406 0.001842
H138  H     H_    0.244145 0.216634 0.896230 0.158206
H139  H     H_    0.253091 0.351258 0.903744 0.135848
C119  C     C_3   0.140822 0.219013 0.953864 -0.285004
H140  H     H_    0.130713 0.138041 0.967964 0.158121
H141  H     H_    0.146726 0.273436 0.984277 0.176557
C120  C     C_3   0.037091 0.194591 0.925005 -0.503242
H142  H     H_    0.047050 0.274188 0.909406 0.146816
H143  H     H_    0.961483 0.157203 0.948374 0.155500
H144  H     H_    0.024776 0.133959 0.896181 0.152006

loop_
_geom_bond_atom_site_label_1
_geom_bond_atom_site_label_2
_ccdc_geom_bond_type
C38   O15   A    
C7    C83   S    
C92   H77   S    
C106  H111  S    
C27   H18   S    
Cr4   O22   S    
C46   H22   S    
C8    H46   S    
C9    C84   S    
C43   H19   S    
C5    C56   S    
C79   H49   S    
C116  H133  S    
C24   C27   S    
Cr5   O23   S    
C6    C55   S    
C82   H52   S    
C62   C76   S    
C43   H35   S    
C48   H33   S    
C99   H94   S    
C87   H65   S    
C58   C76   T    
C72   H39   S    
C47   C49   S    
C21   C36   S    
C4    O10   A    
C86   H63   S    
C10   C22   S    
C96   H88   S    
C92   H78   S    
C119  C120  S    
C60   C78   T    
O34   C106  S    
C23   C83   S    
Cr6   O12   S    
C8    C82   S    
C64   C68   S    
C47   C65   S    
C116  H134  S    
C18   C37   S    
C113  H127  S    
Cr1   O1    S    
C54   H30   S    
C28   O28   S    
C37   O19   A    
C108  H114  S    
C93   H80   S    
C47   H31   S    
C66   C69   S    
C114  H129  S    
C84   H54   S    
Cr3   O3    S    
C105  H108  S    
O33   C103  S    
C41   O18   A    
Cr6   O26   S    
C109  H118  S    
C98   C99   S    
C65   C73   S    
C103  H103  S    
C62   C70   S    
C1    O2    A    
Cr2   O25   S    
C25   H17   S    
Cr6   O18   S    
C11   C23   S    
C88   H69   S    
C13   C31   T    
Cr5   O17   S    
C40   O17   A    
C39   O21   A    
C16   C34   T    
C43   C53   S    
C48   C51   S    
C102  H100  S    
C61   C77   S    
C111  H121  S    
C120  H143  S    
C12   H45   S    
C44   C62   S    
C4    C57   S    
C53   H1    S    
C67   O37   S    
C113  C114  S    
C25   O31   S    
C89   H70   S    
C53   C65   S    
C100  H96   S    
C22   C32   S    
C96   H87   S    
C108  H115  S    
C112  H125  S    
C117  H135  S    
C90   H74   S    
C20   C34   S    
C44   C52   S    
C105  H109  S    
C81   H51   S    
C30   O29   S    
C106  C107  S    
O29   C91   S    
C29   O27   S    
C110  H119  S    
C80   H10   S    
C27   C30   S    
C3    O9    A    
C82   H8    S    
C71   H37   S    
C61   C71   S    
C88   H68   S    
C3    C58   S    
Cr1   O7    S    
C117  H136  S    
C101  C102  S    
C120  H142  S    
Cr5   O11   S    
C13   C42   S    
C100  C101  S    
C11   H59   S    
C46   C50   S    
C38   O20   A    
C81   H12   S    
C86   H64   S    
C111  H122  S    
C25   C29   S    
C7    H55   S    
C98   H92   S    
C92   C93   S    
C119  H141  S    
C56   C74   T    
C20   C80   S    
C115  C116  S    
C12   H60   S    
C116  C117  S    
C51   C63   S    
C113  H126  S    
C117  H137  S    
C26   O30   S    
C29   H13   S    
C42   O24   A    
C1    C60   S    
C7    H47   S    
C110  H120  S    
C10   C80   S    
C93   H79   S    
C50   H4    S    
Cr3   O9    S    
C20   C28   S    
C97   C98   S    
C65   C67   S    
C105  H107  S    
C80   H50   S    
C45   C63   S    
Cr1   O19   S    
C90   H72   S    
C46   C64   S    
O28   C88   S    
C89   H71   S    
C88   C89   S    
C68   H40   S    
C118  H138  S    
C89   C90   S    
O31   C97   S    
C51   H6    S    
Cr2   O2    S    
C26   H16   S    
C118  H139  S    
C9    H48   S    
C28   H14   S    
C49   C61   S    
C87   H66   S    
C94   H82   S    
C68   O36   S    
C70   O34   S    
C45   H36   S    
C2    O8    A    
C120  H144  S    
Cr3   O21   S    
C94   C95   S    
C50   H26   S    
C53   H29   S    
C98   H91   S    
C112  C113  S    
C104  H106  S    
C46   H32   S    
C102  H101  S    
C8    C20   S    
C49   H5    S    
C97   H90   S    
C100  H97   S    
Cr4   O4    S    
C6    O4    A    
C22   C26   S    
C11   C79   S    
C14   C41   S    
C10   H44   S    
C49   H25   S    
C21   C81   S    
C45   C54   S    
O30   C94   S    
Cr2   O8    S    
C7    C19   S    
C69   O38   S    
C37   O14   A    
O37   C115  S    
C52   C64   S    
Cr1   O13   S    
C52   H2    S    
C107  C108  S    
Cr2   O14   S    
O38   C118  S    
C48   C66   S    
C39   O13   A    
C106  H110  S    
C19   C29   S    
C22   C82   S    
C107  H113  S    
C40   O22   A    
C69   C72   S    
C43   C61   S    
C48   H24   S    
C23   C25   S    
O35   C109  S    
C104  C105  S    
C70   H38   S    
C47   H23   S    
C103  H104  S    
C41   O23   A    
C119  H140  S    
C86   C87   S    
C94   H83   S    
Cr2   O20   S    
C84   H9    S    
C26   C28   S    
C6    O12   A    
C8    H56   S    
C12   C24   S    
C14   C32   T    
C3    O1    A    
C95   C96   S    
Cr4   O26   S    
C108  H116  S    
C85   H62   S    
C104  H105  S    
C45   H21   S    
C54   C66   S    
C2    O3    A    
C5    O6    A    
Cr3   O25   S    
C21   C30   S    
Cr6   O24   S    
Cr4   O16   S    
C24   C33   S    
C54   H3    S    
C103  C104  S    
C91   C92   S    
C87   H67   S    
C115  H131  S    
C57   C75   T    
C52   H28   S    
C11   H43   S    
C107  H112  S    
C24   C84   S    
C95   H85   S    
C71   O33   S    
C30   H15   S    
C19   C35   S    
Cr6   O6    S    
Cr1   O25   S    
C83   H53   S    
O36   C112  S    
C93   H81   S    
C9    C21   S    
Cr3   O15   S    
C2    C59   S    
C9    H57   S    
C109  C110  S    
C91   H75   S    
C111  H123  S    
C50   C62   S    
C66   C75   S    
C95   H84   S    
C96   H86   S    
C1    O7    A    
C72   O35   S    
C51   H27   S    
C101  H99   S    
C12   C81   S    
C102  H102  S    
C67   C71   S    
C17   C38   S    
Cr4   O10   S    
C59   C77   T    
C97   H89   S    
C67   H41   S    
C118  C119  S    
C15   C40   S    
C85   C86   S    
Cr5   O5    S    
C109  H117  S    
C16   C39   S    
C99   H93   S    
C23   C31   S    
C55   C73   T    
C101  H98   S    
O32   C100  S    
C27   O32   S    
C4    O5    A    
C63   C72   S    
C69   H42   S    
C91   H76   S    
O27   C85   S    
C83   H7    S    
C110  C111  S    
C10   H58   S    
C114  H128  S    
C42   O16   A    
C68   C70   S    
C64   C74   S    
C44   H34   S    
C79   H11   S    
C5    O11   A    
C17   C35   T    
Cr5   O26   S    
C90   H73   S    
C112  H124  S    
C18   C36   T    
C15   C33   T    
C99   H95   S    
C19   C79   S    
C115  H132  S    
C85   H61   S    
C114  H130  S    
C63   C78   S    
C44   H20   S    
