data_mof_unit_19564.cif
_audit_creation_date              2012-12-10T22:11:06-0500
_audit_creation_method            fapswitch 2.2
_symmetry_space_group_name_H-M    P1
_symmetry_Int_Tables_number       1
_space_group_crystal_system       triclinic
_cell_length_a                    12.110343
_cell_length_b                    12.309097
_cell_length_c                    22.971024
_cell_angle_alpha                 90.696651
_cell_angle_beta                  90.923493
_cell_angle_gamma                 90.75241
_cell_volume                      3423.22846711

loop_
_atom_site_label
_atom_site_type_symbol
_atom_type_description
_atom_site_fract_x
_atom_site_fract_y
_atom_site_fract_z
_atom_type_partial_charge
C1    C     C_R   0.656815 0.998267 0.579470 0.868708
C2    C     C_R   0.097586 0.873870 0.826392 -0.167682
C3    C     C_R   0.905825 0.249469 0.156027 -0.231718
C4    C     C_R   0.095948 0.791875 0.866720 -0.258823
C5    C     C_R   0.104564 0.914122 0.325998 -0.160959
C6    C     C_R   0.842549 0.087227 0.702591 -0.192355
C7    C     C_R   0.188640 0.911634 0.367341 -0.206723
C8    C     C_R   0.760281 0.088375 0.660050 -0.203401
C9    C     C_R   0.875943 0.099682 0.323948 -0.166221
C10   C     C_R   0.166566 0.900809 0.698731 -0.197143
C11   C     C_R   0.797056 0.098165 0.366493 -0.200352
C12   C     C_R   0.342580 0.001889 0.420769 0.868392
C13   C     C_R   0.245989 0.902753 0.656216 -0.201086
C14   C     C_3   0.991266 0.007803 0.248631 -0.062287
C15   C     C_3   0.006466 0.991950 0.751641 -0.062259
C16   C     C_R   0.653847 0.001865 0.420534 0.870545
C17   C     C_R   0.345763 0.998187 0.579360 0.868128
C18   C     C_R   0.088704 0.006999 0.291636 0.130661
C19   C     C_R   0.907409 0.994057 0.709999 0.129292
C20   C     C_R   0.255520 0.003557 0.376919 -0.021357
C21   C     C_R   0.742408 0.997298 0.623962 -0.019635
C22   C     C_R   0.892082 0.007729 0.288167 0.128585
C23   C     C_R   0.899468 0.819421 0.123155 0.177559
C24   C     C_R   0.104162 0.994148 0.710610 0.127016
C25   C     C_R   0.734998 0.003584 0.375316 -0.019123
C26   C     C_R   0.263291 0.996969 0.624092 -0.018618
C27   C     C_R   0.994987 0.105093 0.208252 0.075326
C28   C     C_R   0.005182 0.892031 0.790242 0.099092
C29   C     C_R   0.000278 0.264319 0.122694 -0.105244
C30   C     C_R   0.001531 0.726311 0.872375 -0.061153
C31   C     C_R   0.990062 0.911150 0.206411 0.036960
C32   C     C_R   0.008392 0.086677 0.795231 0.066195
C33   C     C_R   0.992701 0.751930 0.118060 -0.163942
C34   C     C_R   0.100542 0.239147 0.844585 0.171089
C35   C     C_R   0.009953 0.248782 0.882156 -0.111455
C36   C     C_R   0.993182 0.663340 0.074987 0.875486
C37   C     C_R   0.007266 0.337171 0.924919 0.878336
C38   C     C_R   0.999543 0.350192 0.079929 0.852171
C39   C     C_R   0.000848 0.646051 0.918112 0.855163
C40   C     C_R   0.153997 0.100510 0.303526 -0.195839
C41   C     C_R   0.890385 0.904526 0.671852 -0.162100
C42   C     C_R   0.237283 0.098241 0.345358 -0.198810
C43   C     C_R   0.807494 0.905372 0.630036 -0.204696
C44   C     C_R   0.829169 0.912645 0.297802 -0.192368
C45   C     C_R   0.084123 0.848600 0.197890 -0.269960
C46   C     C_R   0.120374 0.087223 0.676382 -0.161724
C47   C     C_R   0.750754 0.911065 0.340803 -0.203011
C48   C     C_R   0.200576 0.089337 0.634368 -0.204994
C49   C     C_R   0.089087 0.118887 0.173813 -0.182658
C50   C     C_R   0.909599 0.827061 0.796965 -0.268983
C51   C     C_R   0.092670 0.196568 0.130119 0.211617
C52   C     C_R   0.908465 0.741784 0.835954 0.213125
C53   C     C_R   0.898983 0.896829 0.168237 -0.185512
C54   C     C_R   0.101467 0.154734 0.803981 -0.269723
C55   C     C_3   0.286187 0.148990 0.104876 -0.807957
C56   C     C_R   0.919072 0.096845 0.833102 -0.237015
C57   C     C_3   0.823452 0.571045 0.807073 -0.761309
C58   C     C_3   0.709186 0.869442 0.090206 -0.804608
C59   C     C_3   0.172237 0.412237 0.813815 -0.754066
C60   C     C_3   0.271294 0.759070 0.119094 -0.742529
C61   C     C_3   0.861582 0.120517 0.973040 -0.739438
C62   C     C_R   0.086054 0.768726 0.155237 0.186899
C63   C     C_R   0.920795 0.173868 0.877738 0.168660
C64   C     C_R   0.902014 0.169246 0.197283 -0.204862
H1    H     H_    0.287123 0.170864 0.353121 0.155865
H2    H     H_    0.849211 0.041191 0.829202 0.146327
H3    H     H_    0.824503 0.156350 0.218929 0.152378
H4    H     H_    0.170561 0.925394 0.824054 0.147768
H5    H     H_    0.052065 0.842797 0.320143 0.140680
H6    H     H_    0.856772 0.160745 0.727942 0.144733
H7    H     H_    0.926589 0.172216 0.319569 0.141123
H8    H     H_    0.152066 0.824453 0.720179 0.146738
H9    H     H_    0.703519 0.837035 0.347492 0.156082
H10   H     H_    0.211576 0.162233 0.609034 0.155572
H11   H     H_    0.833558 0.299196 0.149642 0.170725
H12   H     H_    0.795984 0.835016 0.601683 0.155602
H13   H     H_    0.167962 0.781945 0.894643 0.170663
H14   H     H_    0.199969 0.838585 0.392458 0.155597
H15   H     H_    0.711035 0.160653 0.655227 0.153790
H16   H     H_    0.786805 0.170051 0.393444 0.157184
H17   H     H_    0.293084 0.830036 0.648122 0.155511
H18   H     H_    0.139911 0.176681 0.281903 0.144926
H19   H     H_    0.941955 0.833493 0.674682 0.141291
H20   H     H_    0.161385 0.199160 0.047556 0.229655
H21   H     H_    0.350535 0.175376 0.073998 0.243047
H22   H     H_    0.275201 0.059483 0.100486 0.230739
H23   H     H_    0.843027 0.837587 0.274317 0.145134
H24   H     H_    0.315071 0.171394 0.149636 0.246670
H25   H     H_    0.740096 0.711235 0.828455 0.214778
H26   H     H_    0.748589 0.519992 0.813815 0.235171
H27   H     H_    0.896311 0.525710 0.823149 0.233980
H28   H     H_    0.831829 0.586056 0.759716 0.223082
H29   H     H_    0.836846 0.813129 0.038117 0.230881
H30   H     H_    0.647374 0.843858 0.056369 0.240339
H31   H     H_    0.723046 0.958540 0.086807 0.231639
H32   H     H_    0.675264 0.848965 0.133424 0.246433
H33   H     H_    0.266060 0.280332 0.837611 0.217276
H34   H     H_    0.069834 0.158379 0.682186 0.141451
H35   H     H_    0.243536 0.468963 0.820289 0.234901
H36   H     H_    0.096747 0.453858 0.828729 0.231893
H37   H     H_    0.163342 0.392102 0.766649 0.221526
H38   H     H_    0.210889 0.675888 0.189657 0.216283
H39   H     H_    0.340323 0.701736 0.113118 0.230742
H40   H     H_    0.302679 0.831443 0.143950 0.213301
H41   H     H_    0.241501 0.784768 0.075430 0.250746
H42   H     H_    0.758757 0.146766 0.901922 0.215526
H43   H     H_    0.792387 0.129304 0.003806 0.234531
H44   H     H_    0.936719 0.158166 0.993532 0.226825
H45   H     H_    0.157535 0.064606 0.180125 0.155003
H46   H     H_    0.875902 0.032559 0.965159 0.226722
H47   H     H_    0.833957 0.842584 0.773154 0.145070
H48   H     H_    0.829685 0.950451 0.172980 0.160442
H49   H     H_    0.175870 0.144344 0.779397 0.152272
H50   H     H_    0.159641 0.863328 0.222531 0.159014
N1    N     N_2   0.183661 0.202921 0.091084 -0.279264
N2    N     N_2   0.813175 0.672975 0.838450 -0.286416
N3    N     N_2   0.811321 0.812471 0.080749 -0.273993
N4    N     N_2   0.190858 0.314518 0.846770 -0.279364
N5    N     N_2   0.183353 0.705750 0.150311 -0.274501
N6    N     N_2   0.833917 0.173379 0.918861 -0.281649
O1    O     O_R   0.621380 0.090460 0.561410 -0.627688
O2    O     O_R   0.912410 0.372520 0.941210 -0.597419
O3    O     O_R   0.905660 0.383870 0.059980 -0.622722
O4    O     O_R   0.094340 0.616130 0.940020 -0.636273
O5    O     O_R   0.092570 0.390420 0.063230 -0.606552
O6    O     O_R   0.907430 0.609580 0.936770 -0.594829
O7    O     O_R   0.900680 0.620930 0.055550 -0.614137
O8    O     O_R   0.099320 0.379070 0.944450 -0.601413
O9    O     O_R   0.378620 0.909540 0.438590 -0.628182
O10   O     O_R   0.617150 0.909540 0.438590 -0.628971
O11   O     O_R   0.382850 0.090460 0.561410 -0.629395
O12   O     O_R   0.619720 0.093230 0.440890 -0.629763
O13   O     O_R   0.380280 0.906770 0.559110 -0.629131
O14   O     O_R   0.618800 0.906770 0.559110 -0.628785
O15   O     O_R   0.381200 0.093230 0.440890 -0.628257
O16   O     O_R   0.087590 0.627480 0.058790 -0.588378
Zn1   Zn    Zn3+2 0.501730 0.123520 0.501540 0.938107
Zn2   Zn    Zn3+2 0.498270 0.876480 0.498460 0.937742
Zn3   Zn    Zn3+2 0.125690 0.504390 0.002180 0.967268
Zn4   Zn    Zn3+2 0.874310 0.495610 0.997820 0.971029

loop_
_geom_bond_atom_site_label_1
_geom_bond_atom_site_label_2
_ccdc_geom_bond_type
C34   N4    S    
C1    C21   S    
C57   H28   S    
C17   O11   A    
C59   H35   S    
C14   C18   S    
O4    Zn3   S    
C14   C31   S    
C49   C51   A    
C15   C32   S    
C3    C64   A    
O5    Zn3   S    
C15   C19   S    
C6    C19   A    
O6    Zn4   S    
C17   C26   S    
C35   C37   S    
O8    Zn3   S    
C2    H4    S    
C9    C22   A    
C11   C25   A    
C41   H19   S    
C54   H49   S    
C13   H17   S    
C45   C62   A    
C55   H24   S    
C33   C36   S    
C60   N5    S    
C6    H6    S    
C34   C35   A    
O1    Zn1   S    
H33   N4    S    
C3    C29   A    
C61   H44   S    
C58   H32   S    
C5    H5    S    
C21   C43   A    
C28   C50   A    
C45   H50   S    
C22   C44   A    
O9    Zn2   S    
C33   C62   A    
C23   C33   A    
C12   O15   A    
C29   C38   S    
C42   H1    S    
C50   C52   A    
C14   C27   S    
C44   H23   S    
C16   O10   A    
C25   C47   A    
C38   O3    A    
C44   C47   A    
C26   C48   A    
C37   O8    A    
C40   C42   A    
C46   H34   S    
H25   N2    S    
O13   Zn2   S    
C39   O6    A    
C61   N6    S    
C59   H36   S    
C41   C43   A    
H29   N3    S    
O16   Zn3   S    
C16   O12   A    
C61   H46   S    
C36   O16   A    
C32   C54   A    
C23   C53   A    
C57   N2    S    
C52   N2    S    
C46   C48   A    
C57   H26   S    
C59   H37   S    
C64   H3    S    
C40   H18   S    
C47   H9    S    
C12   O9    A    
C5    C7    A    
C6    C8    A    
C5    C18   A    
C10   C24   A    
O12   Zn1   S    
O3    Zn4   S    
C58   N3    S    
C51   N1    S    
C39   O4    A    
C55   H21   S    
C2    C4    A    
C58   H31   S    
C23   N3    S    
O11   Zn1   S    
C48   H10   S    
C8    H15   S    
C11   H16   S    
C12   C20   S    
C8    C21   A    
C56   C63   A    
C31   C53   A    
C9    C11   A    
C62   N5    S    
C7    H14   S    
C53   H48   S    
C15   C24   S    
C34   C54   A    
H20   N1    S    
C17   O13   A    
C13   C26   A    
C36   O7    A    
O7    Zn4   S    
C1    O14   A    
C60   H39   S    
C38   O5    A    
C3    H11   S    
C49   H45   S    
C29   C51   A    
C16   C25   S    
O15   Zn1   S    
C30   C52   A    
C57   H27   S    
H42   N6    S    
C9    H7    S    
C10   C13   A    
O14   Zn2   S    
C20   C42   A    
C59   N4    S    
C24   C46   A    
C14   C22   S    
C55   H22   S    
C58   H30   S    
O2    Zn4   S    
C4    H13   S    
C63   N6    S    
C15   C28   S    
C55   N1    S    
C56   H2    S    
C50   H47   S    
C30   C39   S    
C61   H43   S    
C1    O1    A    
C2    C28   A    
C27   C64   A    
C60   H41   S    
C37   O2    A    
C19   C41   A    
C18   C40   A    
C7    C20   A    
C31   C45   A    
C43   H12   S    
C35   C63   A    
C60   H40   S    
C32   C56   A    
C4    C30   A    
H38   N5    S    
C27   C49   A    
C10   H8    S    
O10   Zn2   S    
