data_mof_unit_31473.cif
_audit_creation_date              2012-10-26T20:17:16-0400
_audit_creation_method            fapswitch 2.2
_symmetry_space_group_name_H-M    P1
_symmetry_Int_Tables_number       1
_space_group_crystal_system       triclinic
_cell_length_a                    10.617066
_cell_length_b                    11.030639
_cell_length_c                    10.000682
_cell_angle_alpha                 111.875821
_cell_angle_beta                  98.517223
_cell_angle_gamma                 92.670558
_cell_volume                      1068.2586416

loop_
_atom_site_label
_atom_site_type_symbol
_atom_type_description
_atom_site_fract_x
_atom_site_fract_y
_atom_site_fract_z
_atom_type_partial_charge
C1    C     C_R   0.490383 0.253642 0.439140 0.546585
C2    C     C_3   0.123330 0.501971 0.501131 0.011554
C3    C     C_3   0.977884 0.521031 0.636078 -0.126920
C4    C     C_3   0.021850 0.477979 0.364194 -0.130248
C5    C     C_2   0.478890 0.111779 0.402439 0.042496
C6    C     C_2   0.518553 0.888948 0.597889 0.045949
C7    C     C_2   0.521626 0.069645 0.509080 -0.135753
C8    C     C_2   0.512468 0.931030 0.487204 -0.129367
C9    C     C_2   0.527704 0.466487 0.059487 0.084857
C10   C     C_2   0.487299 0.481380 0.912449 0.102560
C11   C     C_2   0.881368 0.248821 0.303256 0.578803
C12   C     C_R   0.511494 0.746642 0.560885 0.558864
C13   C     C_2   0.118220 0.749551 0.699310 0.599217
C14   C     C_2   0.528717 0.980062 0.753885 0.583349
C15   C     C_2   0.412900 0.021758 0.253559 0.583147
C16   C     C_3   0.363693 0.396959 0.819850 -0.294624
C17   C     C_3   0.664989 0.441398 0.090848 -0.302860
C18   C     C_2   0.648958 0.659156 0.960581 0.723885
C19   C     C_2   0.318706 0.482150 0.109926 0.723392
C20   C     C_R   0.259971 0.501007 0.500545 0.582881
C21   C     C_R   0.739969 0.498647 0.499440 0.587378
C22   C     C_3   0.045206 0.405069 0.542992 -0.162250
C23   C     C_3   0.954725 0.594076 0.457403 -0.160868
C24   C     C_3   0.942411 0.382521 0.407444 0.043155
C25   C     C_3   0.057418 0.616518 0.593008 0.055220
C26   C     C_3   0.876551 0.497141 0.499140 0.003046
Cu1   Cu    Cu3+1 0.522260 0.521810 0.644920 1.056136
Cu2   Cu    Cu3+1 0.477740 0.478190 0.355080 1.058684
H1    H     H_    0.084497 0.327636 0.577522 0.140018
H2    H     H_    0.277322 0.871330 0.131222 0.375072
H3    H     H_    0.283826 0.459305 0.827914 0.160391
H4    H     H_    0.362788 0.340508 0.704889 0.179044
H5    H     H_    0.339200 0.317843 0.857739 0.146096
H6    H     H_    0.710418 0.419684 0.992463 0.109445
H7    H     H_    0.721592 0.529328 0.178753 0.167125
H8    H     H_    0.669635 0.353285 0.119002 0.191660
H9    H     H_    0.707738 0.798274 0.163701 0.341767
H10   H     H_    0.383454 0.669860 0.152938 0.336921
H11   H     H_    0.915517 0.671547 0.422889 0.144283
H12   H     H_    0.958408 0.539107 0.747616 0.177713
H13   H     H_    0.040509 0.459991 0.252466 0.196322
H14   H     H_    0.504516 0.860703 0.375488 0.186375
H15   H     H_    0.568896 0.139953 0.615682 0.179745
H16   H     H_    0.721033 0.121219 0.215162 0.369921
H17   H     H_    0.279770 0.873082 0.799415 0.372515
H18   H     H_    0.471820 0.140688 0.899953 0.356764
N1    N     N_2   0.444270 0.445410 0.137360 -0.257986
N2    N     N_2   0.555730 0.554590 0.862640 -0.221344
O1    O     O_R   0.511880 0.332340 0.577400 -0.554952
O2    O     O_R   0.750417 0.214089 0.288604 -0.696591
O3    O     O_2   0.050851 0.830136 0.764620 -0.453407
O4    O     O_R   0.250743 0.780986 0.723902 -0.668937
O5    O     O_2   0.597742 0.959275 0.850582 -0.434714
O6    O     O_R   0.456814 0.087096 0.790616 -0.713582
O7    O     O_2   0.439638 0.036423 0.145327 -0.466076
O8    O     O_R   0.317028 0.923574 0.237537 -0.665229
O9    O     O_2   0.736082 0.697281 0.913698 -0.441365
O10   O     O_R   0.636891 0.723996 0.107195 -0.737161
O11   O     O_2   0.225561 0.401397 0.079295 -0.470529
O12   O     O_R   0.488120 0.667660 0.422600 -0.526739
O13   O     O_R   0.300088 0.610364 0.122745 -0.663581
O14   O     O_R   0.474280 0.295500 0.332650 -0.439519
O15   O     O_R   0.525720 0.704500 0.667350 -0.422952
O16   O     O_R   0.335640 0.518390 0.622350 -0.511457
O17   O     O_R   0.664360 0.481610 0.377650 -0.517096
O18   O     O_R   0.298050 0.481550 0.377590 -0.471708
O19   O     O_R   0.701950 0.518450 0.622410 -0.473809
O20   O     O_2   0.947366 0.170050 0.232372 -0.450711

loop_
_geom_bond_atom_site_label_1
_geom_bond_atom_site_label_2
_ccdc_geom_bond_type
Cu1   N2    S    
C20   O16   A    
Cu2   O18   S    
C21   C26   S    
Cu2   N1    S    
C2    C22   S    
C17   H8    S    
C7    H15   S    
C16   H5    S    
C6    C14   S    
C13   O4    S    
C9    C10   S    
C18   O9    D    
C2    C4    S    
H9    O10   S    
C3    C25   S    
H10   O13   S    
C21   O17   A    
C15   O8    S    
H18   O6    S    
C23   C25   S    
Cu2   O17   S    
C7    C8    S    
C14   O6    S    
C11   O2    S    
C10   C16   S    
C1    O14   A    
C16   H3    S    
C6    C12   S    
C13   C25   S    
Cu1   O15   S    
C19   O13   S    
C23   H11   S    
C6    C8    D    
Cu2   O14   S    
C9    C17   S    
C22   H1    S    
C8    H14   S    
C3    H12   S    
C9    N1    D    
C2    C25   S    
C19   N1    S    
Cu2   O12   S    
C15   O7    D    
C10   N2    D    
C4    C24   S    
C22   C24   S    
C5    C15   S    
Cu1   O19   S    
C4    H13   S    
C2    C20   S    
H2    O8    S    
C12   O12   A    
C11   C24   S    
C1    C5    S    
C14   O5    D    
C11   O20   D    
C17   H6    S    
C23   C26   S    
C20   O18   A    
Cu1   Cu2   S    
C5    C7    D    
C12   O15   A    
C16   H4    S    
C3    C22   S    
H16   O2    S    
C17   H7    S    
H17   O4    S    
C19   O11   D    
C4    C23   S    
C13   O3    D    
C1    O1    A    
Cu1   O16   S    
C18   O10   S    
C3    C26   S    
C21   O19   A    
Cu1   O1    S    
C24   C26   S    
C18   N2    S    
