data_mof_unit_29441.cif
_audit_creation_date              2013-03-05T15:45:11-0500
_audit_creation_method            fapswitch 2.2
_symmetry_space_group_name_H-M    P1
_symmetry_Int_Tables_number       1
_space_group_crystal_system       triclinic
_cell_length_a                    11.640468
_cell_length_b                    11.577623
_cell_length_c                    19.505357
_cell_angle_alpha                 90.494112
_cell_angle_beta                  89.6582
_cell_angle_gamma                 59.835549
_cell_volume                      2272.50762848

loop_
_atom_site_label
_atom_site_type_symbol
_atom_site_description
_atom_site_fract_x
_atom_site_fract_y
_atom_site_fract_z
_atom_type_partial_charge
O1    O     O_R   0.267740 0.231990 0.575440 -0.507463
O2    O     O_R   0.527280 0.186680 0.570530 -0.494016
C1    C     C_R   0.639969 0.117649 0.599138 0.546634
O3    O     O_R   0.728090 0.003480 0.576380 -0.500045
O4    O     O_R   0.682970 0.789220 0.570490 -0.498938
C2    C     C_R   0.611796 0.746638 0.598535 0.542341
O5    O     O_R   0.499290 0.771920 0.575530 -0.502543
O6    O     O_R   0.285330 0.030900 0.569730 -0.500223
C3    C     C_R   0.240682 0.145637 0.597976 0.537926
O7    O     O_R   0.270980 0.227040 0.423900 -0.463345
O8    O     O_R   0.530280 0.182090 0.430050 -0.447776
C4    C     C_R   0.642382 0.110497 0.399905 0.589380
O9    O     O_R   0.731330 0.998530 0.424830 -0.450975
O10   O     O_R   0.685970 0.784630 0.430010 -0.516324
C5    C     C_R   0.621266 0.733650 0.404863 0.569165
O11   O     O_R   0.502530 0.766960 0.423990 -0.478594
O12   O     O_R   0.288330 0.026310 0.429250 -0.491038
C6    C     C_R   0.243093 0.139690 0.402044 0.574721
Cr1   Cr    Cr6+3 0.404720 0.198220 0.499960 1.112140
Cr2   Cr    Cr6+3 0.698290 0.897110 0.500380 1.075152
Cr3   Cr    Cr6+3 0.396970 0.904720 0.499610 1.056252
O13   O     O_3   0.499990 0.000020 0.499980 -0.286340
C7    C     C_1   0.671039 0.646321 0.860188 0.007511
C8    C     C_1   0.654221 0.683787 0.728322 -0.028844
C9    C     C_1   0.663678 0.666639 0.799667 -0.029020
C10   C     C_1   0.640258 0.704205 0.667852 0.009583
C11   C     C_1   0.127229 0.198420 0.859443 0.010206
C12   C     C_1   0.171135 0.170612 0.727639 -0.028494
C13   C     C_1   0.150406 0.182083 0.798959 -0.029111
C14   C     C_1   0.194682 0.161532 0.667191 0.010325
C15   C     C_1   0.679611 0.190536 0.860908 0.009969
C16   C     C_1   0.658012 0.167721 0.729024 -0.028644
C17   C     C_1   0.666141 0.180544 0.800433 -0.028236
C18   C     C_1   0.651952 0.150565 0.668535 0.008526
C19   C     C_R   0.608780 0.599608 0.312242 0.144550
C20   C     C_R   0.579521 0.618541 0.242617 0.222207
C21   C     C_R   0.661184 0.648641 0.199708 0.002511
C22   C     C_R   0.746034 0.685437 0.229646 -0.129410
H1    H     H_    0.810338 0.704893 0.198926 0.163739
C23   C     C_R   0.748048 0.697806 0.299692 -0.140718
H2    H     H_    0.803235 0.741257 0.321272 0.200436
C24   C     C_R   0.672363 0.662298 0.340867 -0.013805
C25   C     C_R   0.096162 0.290861 0.315080 -0.120100
H3    H     H_    0.062507 0.373513 0.351253 0.161506
C26   C     C_R   0.072231 0.317434 0.245779 0.225605
C27   C     C_R   0.115283 0.210273 0.198554 0.029815
C28   C     C_R   0.177123 0.077520 0.221870 0.237953
C29   C     C_R   0.212827 0.051172 0.290690 0.260762
C30   C     C_R   0.176908 0.159994 0.336614 -0.037531
C31   C     C_R   0.763180 0.045059 0.287275 0.172523
C32   C     C_R   0.752742 0.044626 0.215974 0.214442
C33   C     C_R   0.660951 0.165194 0.184707 -0.061820
C34   C     C_R   0.545391 0.253029 0.219658 0.183230
C35   C     C_R   0.540946 0.243882 0.291562 0.157577
C36   C     C_R   0.653968 0.141940 0.326968 -0.088068
O14   O     O_R   0.821500 0.119550 0.952820 -0.517714
O15   O     O_R   0.037130 0.162750 0.957360 -0.493098
C37   C     C_R   0.082071 0.231044 0.928782 0.556350
O16   O     O_R   0.056440 0.344950 0.951330 -0.499244
O17   O     O_R   0.797900 0.560570 0.957460 -0.504668
C38   C     C_R   0.684252 0.604137 0.929574 0.538327
O18   O     O_R   0.596140 0.579600 0.952720 -0.496973
O19   O     O_R   0.639070 0.321380 0.958660 -0.489430
C39   C     C_R   0.708966 0.206629 0.930200 0.538904
O20   O     O_R   0.821240 0.124490 0.104360 -0.522768
O21   O     O_R   0.036900 0.167320 0.097830 -0.512432
C40   C     C_R   0.076145 0.239731 0.127192 0.625134
O22   O     O_R   0.056190 0.349890 0.102870 -0.451059
O23   O     O_R   0.797670 0.565150 0.097930 -0.507326
C41   C     C_R   0.682677 0.607443 0.127597 0.545001
O24   O     O_R   0.595880 0.584540 0.104260 -0.438980
O25   O     O_R   0.638830 0.325960 0.099140 -0.442678
C42   C     C_R   0.704151 0.206518 0.123448 0.552157
Cr4   Cr    Cr6+3 0.926180 0.152240 0.028110 1.030821
Cr5   Cr    Cr6+3 0.921340 0.452070 0.027460 1.055894
Cr6   Cr    Cr6+3 0.626260 0.447120 0.028700 1.126200
O26   O     O_3   0.824590 0.350480 0.028090 -0.287772
N1    N     N_R   0.564356 0.527927 0.353998 -0.174083
O27   O     O_R   0.622696 0.473673 0.411239 -0.000004
O28   O     O_R   0.622695 0.473675 0.411239 -0.000004
O29   O     O_3   0.844810 0.933764 0.177855 -0.543573
C43   C     C_3   0.780168 0.900750 0.126241 -0.095274
H4    H     H_    0.755841 0.964800 0.080650 0.150348
H5    H     H_    0.687428 0.905897 0.145542 0.118954
H6    H     H_    0.849312 0.797707 0.107417 0.129235
N2    N     N_R   0.425872 0.320797 0.180788 0.100276
O30   O     O_R   0.373649 0.251418 0.158411 -0.364285
O31   O     O_R   0.392792 0.433605 0.151618 -0.267599
N3    N     N_R   0.418908 0.332816 0.326606 0.136242
O32   O     O_R   0.310365 0.337150 0.308123 -0.360081
O33   O     O_R   0.413383 0.414309 0.374439 -0.278716
N4    N     N_R   0.459957 0.623661 0.218450 0.115793
O34   O     O_R   0.400772 0.575207 0.255095 -0.286539
O35   O     O_R   0.390338 0.708940 0.171635 -0.271444
O36   O     O_3   0.997091 0.448232 0.224480 -0.583296
C44   C     C_3   0.072558 0.512529 0.229785 -0.006589
H7    H     H_    0.172546 0.451835 0.206730 0.237940
H8    H     H_    0.077184 0.540529 0.283881 0.182588
H9    H     H_    0.025705 0.605246 0.199626 0.148603
O37   O     O_3   0.213787 0.972138 0.176211 -0.509459
C45   C     C_3   0.112143 0.938685 0.172851 0.022186
H10   H     H_    0.088391 0.933804 0.118305 0.173425
H11   H     H_    0.018274 0.009703 0.200560 0.138121
H12   H     H_    0.148027 0.837191 0.192697 0.195061
O38   O     O_3   0.303484 0.921064 0.308689 -0.526125
C46   C     C_3   0.235799 0.861961 0.339454 0.021368
H13   H     H_    0.174064 0.920262 0.384214 0.155607
H14   H     H_    0.309805 0.761946 0.358209 0.198169
H15   H     H_    0.173386 0.847077 0.302389 0.180903
N5    N     N_R   0.886685 0.952423 0.318711 0.090271
O39   O     O_R   0.958247 0.830564 0.295540 -0.376623
O40   O     O_R   0.935641 0.995666 0.365450 -0.391305

loop_
_geom_bond_atom_site_label_1
_geom_bond_atom_site_label_2
_geom_bond_distance
_ccdc_geom_bond_type
C45   H10   1.108944 S    
C11   C13   1.200607 T    
O36   C44   1.411916 S    
O25   Cr6   1.925158 S    
O29   C43   1.420314 S    
O4    Cr2   1.926811 S    
C2    C10   1.425613 S    
C34   C35   1.410029 A    
O22   Cr5   2.053874 S    
O8    Cr1   1.930820 S    
O11   Cr3   2.048793 S    
C12   C13   1.404171 S    
C8    C10   1.200831 T    
O4    C2    1.280000 A    
N2    O31   1.299144 A    
O19   Cr6   1.937264 S    
C5    O11   1.286056 A    
O21   Cr4   1.945220 S    
C44   H9    1.105507 S    
C31   N5    1.437148 S    
O20   C42   1.259065 A    
C19   C24   1.387126 A    
N5    O39   1.300803 A    
N4    O34   1.299863 A    
C27   C28   1.411158 A    
C29   O38   1.386356 S    
O6    C3    1.276091 A    
Cr4   O26   1.984575 S    
C44   H8    1.110707 S    
C15   C17   1.203115 T    
C34   N2    1.432429 S    
N3    O33   1.299197 A    
C32   O29   1.393000 S    
C20   N4    1.445054 S    
C23   C24   1.396937 A    
O21   C40   1.272503 A    
C45   H11   1.115569 S    
C21   C41   1.460418 S    
O18   Cr6   2.043725 S    
C38   O18   1.275155 A    
N4    O35   1.298341 A    
O12   C6    1.265979 A    
C22   H1    1.066079 S    
O1    Cr1   2.049010 S    
O14   Cr4   2.063964 S    
C32   C33   1.409147 A    
O10   Cr2   1.938979 S    
Cr1   O13   1.984447 S    
O1    C3    1.270567 A    
C8    C9    1.404543 S    
C35   N3    1.432392 S    
C33   C42   1.467645 S    
N1    O27   1.301827 A    
C25   C30   1.392840 A    
C1    C18   1.429586 S    
C31   C32   1.396948 A    
C37   O16   1.270664 A    
O5    Cr3   2.048271 S    
O12   Cr3   1.931159 S    
C28   O37   1.384678 S    
C40   O22   1.272654 A    
O17   C38   1.281830 A    
C19   C20   1.394275 A    
C16   C18   1.203143 T    
O15   Cr4   1.930487 S    
C25   H3    1.084117 S    
C21   C22   1.386885 A    
Cr5   O26   1.995789 S    
C28   C29   1.397847 A    
O7    Cr1   2.061556 S    
C44   H7    1.103201 S    
O14   C39   1.270587 A    
O6    Cr3   1.931329 S    
Cr6   O26   1.996353 S    
C25   C26   1.387437 A    
C41   O24   1.253378 A    
C3    C14   1.425229 S    
C23   H2    1.080402 S    
Cr2   O13   1.996089 S    
C45   H12   1.105268 S    
C43   H5    1.113909 S    
C1    O3    1.272112 A    
C26   O36   1.383801 S    
O16   Cr5   2.048564 S    
C33   C34   1.382290 A    
C35   C36   1.437080 A    
C20   C21   1.433181 A    
O17   Cr5   1.935441 S    
O9    Cr2   2.043326 S    
O2    Cr1   1.944986 S    
N2    O30   1.301180 A    
C15   C39   1.429462 S    
C5    C24   1.440117 S    
O25   C42   1.293897 A    
C11   C37   1.425263 S    
O8    C4    1.277124 A    
C2    O5    1.275226 A    
C43   H6    1.108960 S    
O38   C46   1.411497 S    
C19   N1    1.434372 S    
C31   C36   1.419134 A    
C16   C17   1.408245 S    
C12   C14   1.200596 T    
O2    C1    1.278148 A    
C27   C40   1.456350 S    
C22   C23   1.374095 A    
O15   C37   1.276471 A    
O24   Cr6   2.053388 S    
C46   H14   1.106956 S    
O7    C6    1.278270 A    
C29   C30   1.418181 A    
O37   C45   1.419600 S    
O23   Cr5   1.930556 S    
N1    O28   1.301826 A    
C7    C9    1.200817 T    
O23   C41   1.301375 A    
N5    O40   1.300601 A    
C4    C36   1.493536 S    
O20   Cr4   2.046557 S    
O19   C39   1.277008 A    
O3    Cr2   2.058748 S    
C26   C27   1.410265 A    
C7    C38   1.425579 S    
C4    O9    1.287187 A    
C43   H4    1.106441 S    
C46   H13   1.108667 S    
O10   C5    1.265860 A    
N3    O32   1.292645 A    
Cr3   O13   1.996293 S    
C6    C30   1.453438 S    
C46   H15   1.100066 S    
