data_mof_unit_29065.cif
_audit_creation_date              2012-12-10T19:00:15-0500
_audit_creation_method            fapswitch 2.2
_symmetry_space_group_name_H-M    P1
_symmetry_Int_Tables_number       1
_space_group_crystal_system       triclinic
_cell_length_a                    9.61042
_cell_length_b                    10.789999
_cell_length_c                    13.389008
_cell_angle_alpha                 89.954235
_cell_angle_beta                  73.002801
_cell_angle_gamma                 90.163947
_cell_volume                      1327.73855533

loop_
_atom_site_label
_atom_site_type_symbol
_atom_type_description
_atom_site_fract_x
_atom_site_fract_y
_atom_site_fract_z
_atom_type_partial_charge
C1    C     C_R   0.500229 0.737147 0.499897 0.846975
C2    C     C_R   0.440016 0.435070 0.978104 0.065053
C3    C     C_R   0.483185 0.432888 0.867406 0.077877
C4    C     C_R   0.549268 0.445100 0.029779 0.047822
C5    C     C_R   0.696449 0.454646 0.969772 0.112904
C6    C     C_R   0.736514 0.415946 0.865083 -0.016026
C7    C     C_R   0.628861 0.402266 0.815544 -0.260746
C8    C     C_R   0.517048 0.455317 0.138260 -0.219575
C9    C     C_R   0.756218 0.542370 0.120209 -0.012252
C10   C     C_R   0.379854 0.462170 0.813291 -0.128975
C11   C     C_R   0.379645 0.935115 0.557507 0.002458
C12   C     C_R   0.422990 0.488414 0.699587 0.834297
C13   C     C_R   0.500593 0.870282 0.497765 -0.028615
C14   C     C_R   0.618663 0.935678 0.432446 -0.204962
C15   C     C_R   0.617853 0.065022 0.432920 -0.190422
C16   C     C_R   0.498581 0.129161 0.497839 -0.086871
C17   C     C_R   0.376027 0.063008 0.555086 0.135006
C18   C     C_3   0.294899 0.070869 0.669488 -0.344835
C19   C     C_3   0.299244 0.928121 0.672343 -0.108628
C20   C     C_R   0.934222 0.393213 0.482266 0.200691
C21   C     C_R   0.915267 0.602737 0.526751 -0.052850
C22   C     C_R   0.063680 0.602950 0.525989 -0.053025
C23   C     C_R   0.499325 0.262615 0.500852 0.787622
C24   C     C_R   0.079838 0.392731 0.484837 0.345756
C25   C     C_3   0.128269 0.307696 0.393972 -0.501279
C26   C     C_3   0.972822 0.311498 0.387149 -0.360566
C27   C     C_R   0.577699 0.503652 0.299824 0.768213
C28   C     C_R   0.796670 0.510574 0.013881 -0.102178
C29   C     C_R   0.620252 0.500208 0.184772 -0.116797
C30   C     C_R   0.232958 0.472472 0.870387 -0.126261
C31   C     C_R   0.188377 0.452165 0.977614 -0.028219
C32   C     C_R   0.290127 0.437561 0.031705 -0.160940
Cu1   Cu    Cu3+1 0.359330 0.500020 0.500010 0.988551
Cu2   Cu    Cu3+1 0.640670 0.499980 0.499990 0.972518
H1    H     H_    0.710392 0.114693 0.383717 0.135566
H2    H     H_    0.360945 0.117721 0.714357 0.128854
H3    H     H_    0.852876 0.686899 0.547322 0.167372
H4    H     H_    0.110326 0.687416 0.545011 0.152549
H5    H     H_    0.211653 0.350465 0.327133 0.197354
H6    H     H_    0.159122 0.215159 0.417008 0.224380
H7    H     H_    0.918169 0.219728 0.402576 0.137878
H8    H     H_    0.901285 0.539368 0.963057 0.172953
H9    H     H_    0.411396 0.429308 0.187932 0.153597
H10   H     H_    0.152560 0.497131 0.831901 0.202767
H11   H     H_    0.248151 0.431471 0.115311 0.167728
H12   H     H_    0.074660 0.452658 0.020665 0.208404
H13   H     H_    0.660566 0.364891 0.737349 0.168729
H14   H     H_    0.711830 0.887019 0.382840 0.145674
N1    N     N_R   0.852320 0.499070 0.499340 -0.199816
N2    N     N_R   0.148230 0.499110 0.499340 -0.195212
O1    O     O_R   0.381190 0.680360 0.500000 -0.595287
O2    O     O_R   0.618780 0.680320 0.499990 -0.574768
O3    O     O_R   0.323230 0.500000 0.650990 -0.558763
O4    O     O_R   0.560820 0.499960 0.650980 -0.576405
O5    O     O_R   0.381220 0.319680 0.500010 -0.554172
O6    O     O_R   0.618810 0.319640 0.500000 -0.600594
O7    O     O_R   0.439180 0.500040 0.349020 -0.580203
O8    O     O_R   0.676770 0.500000 0.349010 -0.571417
C33   C     C_2   0.848779 0.628848 0.159446 0.448251
H15   H     H_    0.811602 0.665523 0.238060 0.082635
O9    O     O_2   0.966287 0.664376 0.103035 -0.538232
C34   C     C_2   0.145033 0.126404 0.692907 0.397535
H16   H     H_    0.072056 0.119829 0.771613 0.133782
O10   O     O_2   0.103906 0.177244 0.625250 -0.567510
C35   C     C_2   0.385406 0.882930 0.743935 0.439138
H17   H     H_    0.338833 0.893081 0.827721 0.097803
O11   O     O_2   0.505484 0.836090 0.710288 -0.552436
C36   C     C_2   0.154803 0.861699 0.690152 0.319387
H18   H     H_    0.083242 0.886492 0.643830 0.088441
O12   O     O_2   0.117130 0.779518 0.755405 -0.548910
C37   C     C_2   0.963463 0.374511 0.288424 0.932225
O13   O     O_2   0.012506 0.479021 0.267663 -0.568985
O14   O     O_R   0.902457 0.314385 0.218802 -0.746759
H19   H     H_    0.868897 0.227076 0.241355 0.284677
C38   C     C_2   0.886801 0.380767 0.807486 0.339081
H20   H     H_    0.925209 0.389969 0.723120 0.099574
O15   O     O_2   0.965778 0.333586 0.853367 -0.578590

loop_
_geom_bond_atom_site_label_1
_geom_bond_atom_site_label_2
_ccdc_geom_bond_type
Cu1   O5    S    
Cu2   O6    S    
C27   C29   S    
C32   H11   S    
C8    H9    S    
C4    C8    A    
C21   N1    A    
C6    C38   S    
C11   C19   S    
C34   H16   S    
C8    C29   A    
C3    C7    A    
C25   H6    S    
C5    C6    A    
C16   C17   A    
C15   C16   A    
C22   H4    S    
C2    C32   A    
C18   C19   S    
O14   H19   S    
C34   O10   D    
C20   C24   A    
C36   H18   S    
C35   O11   D    
C31   H12   S    
C12   O3    A    
C9    C29   A    
C22   N2    A    
C33   H15   S    
C13   C14   A    
C24   N2    A    
C26   C37   S    
C30   H10   S    
C15   H1    S    
C17   C18   S    
Cu1   O3    S    
C33   O9    D    
C23   O6    A    
C24   C25   S    
C27   O7    A    
C37   O14   S    
C18   C34   S    
C14   H14   S    
C25   C26   S    
C9    C33   S    
C7    H13   S    
C2    C4    A    
C38   H20   S    
C20   N1    A    
C5    C28   A    
C38   O15   D    
C10   C30   A    
C31   C32   A    
Cu1   Cu2   S    
C19   C36   S    
C1    O1    A    
C10   C12   S    
Cu2   O4    S    
C16   C23   S    
C1    C13   S    
C11   C17   A    
Cu2   N1    S    
Cu1   O7    S    
C4    C5    A    
C27   O8    A    
C23   O5    A    
C6    C7    A    
Cu1   O1    S    
Cu2   O2    S    
C2    C3    A    
Cu1   N2    S    
C37   O13   D    
C3    C10   A    
C25   H5    S    
C11   C13   A    
C30   C31   A    
C20   C26   S    
C28   H8    S    
C19   C35   S    
C1    O2    A    
C21   H3    S    
C9    C28   A    
C36   O12   D    
C35   H17   S    
Cu2   O8    S    
C14   C15   A    
C21   C22   A    
C18   H2    S    
C12   O4    A    
C26   H7    S    
