data_mof_unit_17591.cif
_audit_creation_date              2012-12-11T14:58:35-0500
_audit_creation_method            fapswitch 2.2
_symmetry_space_group_name_H-M    P1
_symmetry_Int_Tables_number       1
_space_group_crystal_system       triclinic
_cell_length_a                    10.943038
_cell_length_b                    11.000004
_cell_length_c                    18.676514
_cell_angle_alpha                 90.464274
_cell_angle_beta                  90.92603
_cell_angle_gamma                 59.515004
_cell_volume                      1937.12300853

loop_
_atom_site_label
_atom_site_type_symbol
_atom_type_description
_atom_site_fract_x
_atom_site_fract_y
_atom_site_fract_z
_atom_type_partial_charge
Br1   Br    Br    0.149201 0.178136 0.225180 -0.572846
C1    C     C_R   0.360134 0.766409 0.395342 0.538820
C2    C     C_R   0.256706 0.441285 0.198140 -0.148781
C3    C     C_R   0.234271 0.445582 0.272020 -0.011738
C4    C     C_R   0.379800 0.352483 0.388996 0.530706
C5    C     C_R   0.796510 0.759585 0.317445 -0.073030
C6    C     C_R   0.829823 0.660975 0.263141 -0.095604
C7    C     C_R   0.971112 0.557712 0.251671 -0.081961
C8    C     C_R   0.083151 0.548575 0.294575 0.028203
C9    C     C_R   0.343573 0.334339 0.314575 0.032299
C10   C     C_R   0.903271 0.302293 0.309051 -0.085229
C11   C     C_R   0.950283 0.278752 0.239372 0.109749
C12   C     C_R   0.622830 0.104509 0.182623 0.023420
C13   C     C_R   0.853047 0.340339 0.182302 0.034048
C14   C     C_R   0.708261 0.426220 0.195309 -0.183420
C15   C     C_R   0.661479 0.449175 0.265692 -0.175520
C16   C     C_R   0.712156 0.416172 0.394845 0.556681
C17   C     C_R   0.759305 0.387871 0.322104 0.003482
C18   C     C_R   0.422320 0.866338 0.293890 -0.105438
C19   C     C_R   0.427775 0.881082 0.220404 -0.106624
C20   C     C_R   0.364998 0.827826 0.173117 0.035333
C21   C     C_R   0.311940 0.745989 0.199504 -0.142384
C22   C     C_R   0.303798 0.734192 0.272359 -0.140748
C23   C     C_R   0.365973 0.322400 0.164423 0.022018
C24   C     C_R   0.356253 0.796550 0.319950 0.044209
C25   C     C_R   0.390412 0.184847 0.690592 -0.129528
C26   C     C_R   0.368785 0.163991 0.761131 -0.126638
C27   C     C_R   0.270305 0.277014 0.802766 0.030547
C28   C     C_R   0.344138 0.770101 0.604446 0.553766
C29   C     C_R   0.183242 0.409127 0.770653 -0.128494
C30   C     C_R   0.206354 0.430881 0.699818 -0.130902
C31   C     C_R   0.315346 0.320167 0.660713 0.027428
C32   C     C_R   0.747495 0.474598 0.731633 -0.124563
C33   C     C_R   0.753904 0.463162 0.804881 -0.130433
C34   C     C_R   0.453421 0.215628 0.280092 -0.121895
C35   C     C_R   0.810321 0.330552 0.836518 0.033855
C36   C     C_R   0.840622 0.212363 0.794201 -0.127582
C37   C     C_R   0.827176 0.225503 0.719961 -0.134804
C38   C     C_R   0.786370 0.355970 0.688412 0.034308
C39   C     C_R   0.198697 0.837632 0.712133 -0.134645
C40   C     C_R   0.368324 0.349232 0.595384 0.554593
C41   C     C_R   0.191311 0.845429 0.785726 -0.134931
C42   C     C_R   0.303208 0.839548 0.825862 0.038666
C43   C     C_R   0.425044 0.819994 0.791691 -0.147923
C44   C     C_R   0.431495 0.814374 0.717822 -0.146917
C45   C     C_R   0.474330 0.211230 0.206782 -0.004274
C46   C     C_R   0.320068 0.819413 0.677757 0.036580
C47   C     C_R   0.906529 0.317892 0.110412 0.575378
C48   C     C_R   0.331727 0.293669 0.092243 0.577301
C49   C     C_R   0.311660 0.893973 0.103816 0.573105
C50   C     C_R   0.877451 0.311242 0.906347 0.532463
C51   C     C_R   0.267665 0.254241 0.879777 0.560926
C52   C     C_R   0.758466 0.379544 0.612088 0.555888
C53   C     C_R   0.276642 0.892045 0.898483 0.534305
C54   C     C_R   0.908461 0.895187 0.156298 -0.073534
C55   C     C_R   0.877996 0.006194 0.202785 -0.077806
C56   C     C_R   0.044901 0.652068 0.348196 -0.100746
C57   C     C_R   0.737061 0.108733 0.216090 -0.111334
C58   C     C_R   0.903808 0.754838 0.360084 -0.113292
C59   C     C_R   0.657348 0.986160 0.138660 -0.085288
C60   C     C_R   0.798256 0.884787 0.124596 -0.136184
Cr1   Cr    Cr6+3 0.601770 0.606860 0.505860 1.013162
Cr2   Cr    Cr6+3 0.291380 0.601660 0.495070 0.990871
Cr3   Cr    Cr6+3 0.606880 0.291510 0.499120 1.010978
Cr4   Cr    Cr6+3 0.062440 0.063090 0.008210 1.031111
Cr5   Cr    Cr6+3 0.062880 0.375170 0.998920 1.010934
Cr6   Cr    Cr6+3 0.374700 0.061720 0.992470 1.001626
H1    H     H_    0.534917 0.128848 0.311402 0.130165
H2    H     H_    0.266501 0.700875 0.163843 0.105609
H3    H     H_    0.821952 0.795536 0.090548 0.102235
H4    H     H_    0.260893 0.671985 0.291408 0.126642
H5    H     H_    0.473317 0.097064 0.661274 0.127855
H6    H     H_    0.435699 0.061015 0.784552 0.129197
H7    H     H_    0.104063 0.497326 0.801249 0.130192
H8    H     H_    0.146087 0.536212 0.677597 0.129081
H9    H     H_    0.712058 0.577373 0.708973 0.131441
H10   H     H_    0.728067 0.556088 0.836457 0.123862
H11   H     H_    0.884092 0.108735 0.817836 0.128099
H12   H     H_    0.688761 0.842711 0.325213 0.099742
H13   H     H_    0.852463 0.133941 0.687406 0.118738
H14   H     H_    0.111142 0.840941 0.682476 0.126357
H15   H     H_    0.878228 0.834394 0.400891 0.106174
H16   H     H_    0.095299 0.862318 0.810732 0.124148
H17   H     H_    0.512103 0.816737 0.821814 0.113637
H18   H     H_    0.525038 0.802307 0.692228 0.114297
H19   H     H_    0.017112 0.815021 0.146326 0.115490
H20   H     H_    0.963650 0.011135 0.229719 0.155111
H21   H     H_    0.716612 0.188414 0.255515 0.130734
H22   H     H_    0.120031 0.664180 0.378272 0.186274
H23   H     H_    0.746783 0.667035 0.228445 0.121713
H24   H     H_    0.579130 0.965421 0.116340 0.161973
H25   H     H_    0.176311 0.525278 0.165014 0.111103
H26   H     H_    0.993722 0.488442 0.206503 0.169927
H27   H     H_    0.978943 0.257201 0.353061 0.160284
H28   H     H_    0.632609 0.474103 0.151551 0.114700
H29   H     H_    0.550017 0.511250 0.276414 0.119133
H30   H     H_    0.460017 0.917234 0.330411 0.114100
H31   H     H_    0.460896 0.951873 0.202400 0.140323
O1    O     O_R   0.748800 0.497470 0.428000 -0.497216
O2    O     O_R   0.417600 0.174890 0.067840 -0.522551
O3    O     O_R   0.375320 0.946260 0.070860 -0.518922
O4    O     O_R   0.476420 0.724060 0.429470 -0.515844
O5    O     O_R   0.160600 0.919630 0.926660 -0.528288
O6    O     O_R   0.933060 0.190520 0.936020 -0.509436
O7    O     O_R   0.908880 0.403460 0.925020 -0.536152
O8    O     O_R   0.179600 0.361450 0.918490 -0.504514
O9    O     O_R   0.391510 0.170860 0.907530 -0.517179
O10   O     O_R   0.351130 0.942530 0.922260 -0.530296
O11   O     O_3   0.166667 0.166667 0.999870 -0.249779
O12   O     O_R   0.300070 0.471040 0.567100 -0.500002
O13   O     O_R   0.264580 0.744340 0.416750 -0.549611
O14   O     O_R   0.309380 0.472470 0.418200 -0.529155
O15   O     O_R   0.501710 0.260430 0.414300 -0.532495
O16   O     O_R   0.728090 0.305600 0.428960 -0.503564
O17   O     O_R   0.738760 0.495930 0.588610 -0.522803
O18   O     O_R   0.467110 0.722640 0.578360 -0.506757
O19   O     O_R   0.254530 0.742800 0.577360 -0.523742
O20   O     O_R   0.491670 0.258900 0.574910 -0.518961
O21   O     O_R   0.718780 0.304180 0.577850 -0.496021
O22   O     O_3   0.500010 0.500010 0.500020 -0.266139
O23   O     O_R   0.186690 0.923650 0.086970 -0.500921
O24   O     O_R   0.957250 0.194250 0.084630 -0.464104
O25   O     O_R   0.934970 0.407490 0.085330 -0.527123
O26   O     O_R   0.203780 0.365190 0.067090 -0.488483

loop_
_geom_bond_atom_site_label_1
_geom_bond_atom_site_label_2
_ccdc_geom_bond_type
C60   H3    S    
C39   C46   A    
C54   C55   A    
C10   C17   A    
C25   C31   A    
C25   H5    S    
C18   C19   A    
C58   H15   S    
C47   O25   A    
C18   H30   S    
C6    C7    A    
C12   C59   A    
C38   C52   S    
Br1   C11   S    
C25   C26   A    
C32   C38   A    
Cr3   O21   S    
C56   H22   S    
C28   C46   S    
C35   C36   A    
C33   H10   S    
C47   O24   A    
C29   C30   A    
Cr2   O19   S    
Cr6   O10   S    
C56   C58   A    
C1    O4    A    
C14   C15   A    
Cr3   O20   S    
Cr2   O14   S    
C42   C53   S    
Cr6   O11   S    
C51   O9    A    
C7    C8    A    
C31   C40   S    
C9    C34   A    
Cr4   O23   S    
C40   O20   A    
C21   H2    S    
Cr1   O22   S    
C39   C41   A    
C51   O8    A    
C20   C21   A    
C2    C23   A    
C49   O23   A    
Cr5   O8    S    
C5    C58   A    
C20   C49   S    
C16   O16   A    
C16   C17   S    
C44   C46   A    
C37   C38   A    
C1    O13   A    
C15   H29   S    
Cr3   O16   S    
C7    H26   S    
C22   H4    S    
C53   O5    A    
C8    C56   A    
C55   H20   S    
C13   C47   S    
C12   C57   A    
C50   O6    A    
C48   O26   A    
C28   O19   A    
C59   C60   A    
C44   H18   S    
C42   C43   A    
Cr1   O18   S    
C36   C37   A    
C32   H9    S    
C30   H8    S    
C30   C31   A    
C50   O7    A    
C32   C33   A    
Cr4   O24   S    
C16   O1    A    
Cr4   O11   S    
C35   C50   S    
Cr6   O2    S    
C10   H27   S    
C28   O18   A    
C11   C13   A    
C40   O12   A    
Cr5   O26   S    
C41   C42   A    
Cr4   O5    S    
Cr5   O7    S    
C3    C9    A    
C2    C3    A    
C43   C44   A    
Cr6   O3    S    
C59   H24   S    
C23   C48   S    
Cr3   O15   S    
C4    O15   A    
C21   C22   A    
C39   H14   S    
C41   H16   S    
C43   H17   S    
C57   H21   S    
C10   C11   A    
C52   O21   A    
C5    C6    A    
C27   C51   S    
C4    O14   A    
C36   H11   S    
Cr3   O22   S    
C53   O10   A    
C23   C45   A    
Cr2   O12   S    
C27   C29   A    
Cr1   O17   S    
C48   O2    A    
C14   H28   S    
Cr2   O22   S    
C6    H23   S    
Cr6   O9    S    
C5    H12   S    
C12   C45   S    
C37   H13   S    
C34   H1    S    
C54   H19   S    
C29   H7    S    
C54   C60   A    
C55   C57   A    
C1    C24   S    
C33   C35   A    
C22   C24   A    
Cr5   O11   S    
Cr2   O13   S    
C18   C24   A    
Cr1   O1    S    
Cr5   O25   S    
C4    C9    S    
C19   H31   S    
C19   C20   A    
C49   O3    A    
C15   C17   A    
C26   C27   A    
C13   C14   A    
C2    H25   S    
Cr4   O6    S    
C3    C8    S    
C26   H6    S    
C34   C45   A    
C52   O17   A    
Cr1   O4    S    
