data_mof_unit_27226.cif
_audit_creation_date              2012-12-11T15:11:53-0500
_audit_creation_method            fapswitch 2.2
_symmetry_space_group_name_H-M    P1
_symmetry_Int_Tables_number       1
_space_group_crystal_system       triclinic
_cell_length_a                    20.140593
_cell_length_b                    7.115083
_cell_length_c                    13.645583
_cell_angle_alpha                 90.0
_cell_angle_beta                  103.345938
_cell_angle_gamma                 90.000016
_cell_volume                      1902.63084039

loop_
_atom_site_label
_atom_site_type_symbol
_atom_type_description
_atom_site_fract_x
_atom_site_fract_y
_atom_site_fract_z
_atom_type_partial_charge
O1    O     O_R   0.449830 0.506740 0.599960 -0.532621
O2    O     O_R   0.550170 0.006740 0.400040 -0.532621
O3    O     O_R   0.588980 0.179860 0.596720 -0.529444
O4    O     O_R   0.411020 0.679860 0.403280 -0.529443
C1    C     C_R   0.616424 0.345682 0.618973 0.701485
C2    C     C_R   0.383576 0.845682 0.381027 0.701482
O5    O     O_R   0.452740 0.177340 0.612040 -0.547577
O6    O     O_R   0.547260 0.677340 0.387960 -0.547577
O7    O     O_R   0.412960 0.002070 0.415460 -0.525864
O8    O     O_R   0.587040 0.502070 0.584540 -0.525861
C3    C     C_R   0.435930 0.346327 0.637540 0.737497
C4    C     C_R   0.564069 0.846327 0.362460 0.737498
O9    O     O_3   0.487110 0.337570 0.435490 -0.357688
O10   O     O_3   0.512890 0.837570 0.564510 -0.357687
V1    V     V_3+5 0.502390 0.064650 0.511970 1.550612
V2    V     V_3+5 0.497610 0.564650 0.488030 1.550615
C5    C     C_R   0.616669 0.007031 0.131644 -0.157823
C6    C     C_R   0.383330 0.507045 0.868353 -0.157826
H1    H     H_    0.522176 0.989087 0.176299 0.167891
H2    H     H_    0.477823 0.489107 0.823697 0.167893
H3    H     H_    0.704012 0.118366 0.028044 0.152285
H4    H     H_    0.295987 0.618381 0.971952 0.152284
H5    H     H_    0.593513 0.080546 0.062610 0.124427
H6    H     H_    0.406486 0.580569 0.937385 0.124427
C7    C     C_R   0.604199 0.862338 0.286294 -0.049948
C8    C     C_R   0.395802 0.362339 0.713706 -0.049948
C9    C     C_R   0.929599 0.753697 0.306134 -0.173182
C10   C     C_R   0.070401 0.253692 0.693868 -0.173180
C11   C     C_R   0.892656 0.703473 0.376435 -0.112117
C12   C     C_R   0.107344 0.203465 0.623567 -0.112116
C13   C     C_R   0.823217 0.743582 0.359146 -0.162687
C14   C     C_R   0.176784 0.243575 0.640856 -0.162688
C15   C     C_R   0.789227 0.841532 0.271616 0.059763
C16   C     C_R   0.210773 0.341528 0.728385 0.059763
C17   C     C_R   0.828608 0.903344 0.203031 0.069154
C18   C     C_R   0.171392 0.403343 0.796969 0.069150
C19   C     C_R   0.717294 0.876334 0.248427 0.063812
C20   C     C_R   0.282707 0.376333 0.751574 0.063812
C21   C     C_R   0.687055 0.973353 0.158036 0.129182
C22   C     C_R   0.312944 0.473360 0.841962 0.129183
C23   C     C_R   0.727222 0.040698 0.095392 -0.176615
C24   C     C_R   0.272777 0.540707 0.904606 -0.176617
C25   C     C_R   0.796996 0.009054 0.118243 -0.132141
C26   C     C_R   0.203003 0.509058 0.881756 -0.132143
C27   C     C_R   0.674105 0.820757 0.311854 -0.220675
C28   C     C_R   0.325896 0.320750 0.688149 -0.220676
C29   C     C_R   0.575748 0.953323 0.195758 -0.167779
C30   C     C_R   0.424251 0.453336 0.804240 -0.167777
C31   C     C_R   0.898374 0.852126 0.218893 -0.086120
C32   C     C_R   0.101626 0.352125 0.781107 -0.086122
H7    H     H_    0.693496 0.754182 0.383709 0.104797
H8    H     H_    0.306505 0.254166 0.616295 0.104797
H9    H     H_    0.982629 0.711709 0.318661 0.102837
H10   H     H_    0.017371 0.211704 0.681341 0.102838
H11   H     H_    0.825922 0.064397 0.067337 0.145519
H12   H     H_    0.174077 0.564402 0.932662 0.145521
C33   C     C_3   0.231613 0.700524 0.158614 -0.298764
C34   C     C_3   0.768387 0.200521 0.841385 -0.298765
H13   H     H_    0.209248 0.562469 0.172183 0.180446
H14   H     H_    0.790753 0.062467 0.827815 0.180442
H15   H     H_    0.230946 0.704751 0.077827 0.164301
H16   H     H_    0.769054 0.204746 0.922172 0.164299
C35   C     C_3   0.305823 0.712236 0.222234 -0.310635
C36   C     C_3   0.694177 0.212234 0.777764 -0.310633
H17   H     H_    0.320168 0.572480 0.255066 0.221177
H18   H     H_    0.679833 0.072478 0.744931 0.221174
H19   H     H_    0.154691 0.698149 0.302823 0.138541
H20   H     H_    0.845309 0.198153 0.697175 0.138541
H21   H     H_    0.264595 0.661278 0.393887 0.159858
H22   H     H_    0.735405 0.161283 0.606111 0.159856
C37   C     C_3   0.184232 0.828404 0.297330 -0.335548
C38   C     C_3   0.815768 0.328407 0.702669 -0.335547
C39   C     C_3   0.225637 0.054939 0.180536 -0.205531
C40   C     C_3   0.774363 0.554937 0.819466 -0.205532
C41   C     C_3   0.187970 0.862253 0.186340 0.008856
C42   C     C_3   0.812030 0.362253 0.813660 0.008857
C43   C     C_3   0.313020 0.860093 0.308743 -0.012071
C44   C     C_3   0.686980 0.360094 0.691257 -0.012073
C45   C     C_3   0.257049 0.808793 0.366596 -0.327461
C46   C     C_3   0.742951 0.308797 0.633404 -0.327464
C47   C     C_3   0.297518 0.064086 0.259305 -0.087582
C48   C     C_3   0.702481 0.564086 0.740696 -0.087580
H23   H     H_    0.261772 0.896544 0.435175 0.153225
H24   H     H_    0.738228 0.396552 0.564825 0.153224
O11   O     O_R   0.912980 0.203550 0.915410 -0.541678
O12   O     O_R   0.087020 0.703550 0.084590 -0.541676
O13   O     O_R   0.047270 0.535570 0.887960 -0.553777
O14   O     O_R   0.952730 0.035570 0.112040 -0.553778
C49   C     C_R   0.063776 0.367602 0.861409 0.727552
C50   C     C_R   0.936224 0.867602 0.138591 0.727552
O15   O     O_R   0.911030 0.532970 0.903270 -0.535166
O16   O     O_R   0.088970 0.032970 0.096730 -0.535168
O17   O     O_R   0.949820 0.708150 0.099970 -0.522586
O18   O     O_R   0.050180 0.208150 0.900030 -0.522588
C51   C     C_R   0.883775 0.365158 0.882259 0.648721
C52   C     C_R   0.116225 0.865159 0.117741 0.648719
O19   O     O_3   0.012900 0.375230 0.064480 -0.374032
O20   O     O_3   0.987100 0.875230 0.935520 -0.374033
V3    V     V_3+5 0.997610 0.648190 0.988040 1.465943
V4    V     V_3+5 0.002390 0.148190 0.011960 1.465941
H25   H     H_    0.340789 0.742036 0.172236 0.190654
H26   H     H_    0.659210 0.242031 0.827762 0.190652
H27   H     H_    0.192329 0.165039 0.201895 0.148404
H28   H     H_    0.807670 0.665040 0.798110 0.148406
C53   C     C_2   0.227334 0.103573 0.072250 0.758454
O21   O     O_2   0.193677 0.236257 0.031295 -0.570502
O22   O     O_R   0.267237 0.000701 0.019926 -0.675782
H29   H     H_    0.263574 0.049434 0.949044 0.297821
C54   C     C_2   0.772664 0.603563 0.927753 0.758451
O23   O     O_2   0.806323 0.736241 0.968711 -0.570501
O24   O     O_R   0.732759 0.500691 0.980073 -0.675781
H30   H     H_    0.736422 0.549418 0.050956 0.297821
C55   C     C_2   0.354141 0.130137 0.207632 0.784550
O25   O     O_2   0.403939 0.032385 0.207157 -0.594771
O26   O     O_R   0.348592 0.305494 0.160143 -0.674758
H31   H     H_    0.388349 0.333852 0.128493 0.289492
C56   C     C_2   0.645859 0.630136 0.792369 0.784551
O27   O     O_2   0.596060 0.532387 0.792840 -0.594770
O28   O     O_R   0.651408 0.805492 0.839858 -0.674760
H32   H     H_    0.611650 0.833852 0.871506 0.289491
C57   C     C_2   0.293101 0.210797 0.341284 0.661476
O29   O     O_2   0.341525 0.313228 0.376268 -0.551916
O30   O     O_R   0.233758 0.228405 0.377450 -0.690930
H33   H     H_    0.237536 0.329482 0.430790 0.271923
C58   C     C_2   0.706900 0.710798 0.658718 0.661472
O31   O     O_2   0.658474 0.813223 0.623730 -0.551915
O32   O     O_R   0.766244 0.728413 0.622556 -0.690930
H34   H     H_    0.762466 0.829488 0.569215 0.271923
H35   H     H_    0.156355 0.945584 0.323809 0.175081
H36   H     H_    0.843645 0.445589 0.676192 0.175082
H37   H     H_    0.797558 0.693749 0.415131 0.118661
H38   H     H_    0.202443 0.193739 0.584872 0.118663
H39   H     H_    0.917551 0.626997 0.443473 0.121384
H40   H     H_    0.082450 0.126986 0.556530 0.121384

loop_
_geom_bond_atom_site_label_1
_geom_bond_atom_site_label_2
_ccdc_geom_bond_type
C34   H16   S    
C11   H39   S    
C35   H17   S    
C9    C11   A    
C23   C25   A    
O24   H30   S    
O1    C3    A    
C31   C50   S    
C46   H24   S    
O2    C4    A    
C40   C54   S    
C37   C45   S    
C34   C42   S    
O30   H33   S    
C21   C23   A    
C36   H26   S    
C53   O22   S    
C5    H5    S    
C40   C42   S    
C6    H6    S    
C40   C48   S    
C56   O28   S    
C42   C51   S    
C44   C46   S    
C33   H13   S    
C27   H7    S    
C34   H14   S    
O26   H31   S    
C28   H8    S    
O16   C52   A    
C5    C21   A    
C49   O18   A    
C6    C22   A    
C13   H37   S    
C10   C32   A    
C12   H40   S    
C17   C31   A    
C39   H27   S    
O22   H29   S    
C13   C15   A    
C43   C47   S    
C12   C14   A    
C17   C25   A    
O17   V3    S    
H19   C37   S    
C8    C30   A    
O5    V1    S    
O6    V2    S    
C39   C41   S    
C24   C26   A    
C2    O7    A    
C39   C47   S    
O19   V3    S    
C41   C52   S    
C33   C35   S    
O13   V3    S    
C43   C45   S    
C34   C36   S    
C37   C41   S    
C20   C28   A    
H22   C46   S    
O4    C2    A    
C10   H10   S    
C2    C43   S    
C3    C8    S    
C15   C19   A    
C38   C46   S    
C47   C57   S    
H20   C38   S    
C36   H18   S    
O4    V2    S    
O5    C3    A    
C48   C58   S    
O12   V3    S    
C37   H35   S    
C44   C48   S    
C32   C49   S    
C39   C53   S    
O18   V4    S    
O6    C4    A    
H1    C29   S    
C38   C42   S    
O1    V2    S    
H2    C30   S    
C33   H15   S    
O2    V1    S    
C57   O29   D    
O14   V4    S    
O12   C52   A    
H3    C23   S    
C25   H11   S    
O14   C50   A    
O20   V4    S    
O13   C49   A    
C58   O31   D    
H21   C45   S    
C19   C27   A    
O32   H34   S    
C7    C27   A    
C14   H38   S    
O19   V4    S    
C18   C32   A    
O16   V4    S    
C50   O17   A    
C40   H28   S    
C55   O25   D    
C35   C43   S    
C7    C29   A    
C16   C20   A    
C36   C44   S    
C5    C29   A    
C22   C24   A    
O3    C1    A    
C6    C30   A    
O28   H32   S    
C9    H9    S    
C38   H36   S    
C53   O21   D    
C4    C7    S    
C33   C41   S    
C54   O24   S    
O7    V1    S    
C35   H25   S    
C19   C21   A    
O11   V4    S    
O8    V2    S    
C56   O27   D    
C20   C22   A    
C26   H12   S    
O11   C51   A    
H4    C24   S    
C10   C12   A    
C15   C17   A    
C16   C18   A    
C57   O30   S    
C18   C26   A    
C8    C28   A    
O15   C51   A    
C45   H23   S    
C1    O8    A    
C11   C13   A    
O20   V3    S    
O9    V2    S    
C47   C55   S    
C58   O32   S    
O10   V1    S    
O3    V1    S    
C48   C56   S    
O15   V3    S    
C1    C44   S    
C54   O23   D    
C9    C31   A    
C14   C16   A    
C55   O26   S    
