data_mof_unit_38060.cif
_audit_creation_date              2012-12-10T20:48:19-0500
_audit_creation_method            fapswitch 2.2
_symmetry_space_group_name_H-M    P1
_symmetry_Int_Tables_number       1
_space_group_crystal_system       triclinic
_cell_length_a                    10.97082
_cell_length_b                    8.86184
_cell_length_c                    8.484478
_cell_angle_alpha                 89.999946
_cell_angle_beta                  90.892492
_cell_angle_gamma                 89.999739
_cell_volume                      824.774891303

loop_
_atom_site_label
_atom_site_type_symbol
_atom_type_description
_atom_site_fract_x
_atom_site_fract_y
_atom_site_fract_z
_atom_type_partial_charge
C1    C     C_R   0.500000 0.219717 0.500000 0.940503
C2    C     C_1   0.500000 0.934271 0.500000 -0.025255
C3    C     C_3   0.072428 0.674439 0.490766 0.498807
C4    C     C_3   0.927571 0.674440 0.509236 0.498809
C5    C     C_3   0.121420 0.500569 0.497587 -0.478322
C6    C     C_3   0.878580 0.500569 0.502413 -0.478323
C7    C     C_2   0.113195 0.519921 0.804222 0.978339
C8    C     C_2   0.126396 0.425188 0.188926 1.011281
C9    C     C_2   0.873605 0.425187 0.811073 1.011286
C10   C     C_2   0.886804 0.519924 0.195779 0.978338
C11   C     C_R   0.258360 0.499505 0.498829 0.998586
C12   C     C_R   0.741640 0.499505 0.501171 0.998585
C13   C     C_R   0.500000 0.780253 0.500000 0.954285
C14   C     C_1   0.500000 0.065695 0.500000 -0.028844
C15   C     C_3   0.074224 0.424167 0.661108 0.129888
C16   C     C_3   0.068952 0.400792 0.350449 0.113795
C17   C     C_3   0.931048 0.400791 0.649551 0.113792
C18   C     C_3   0.925776 0.424168 0.338892 0.129888
Cl1   Cl    Cl    0.148757 0.244079 0.712224 -0.289585
Cl2   Cl    Cl    0.110842 0.203144 0.378188 -0.286125
Cl3   Cl    Cl    0.889161 0.203143 0.621810 -0.286124
Cl4   Cl    Cl    0.851245 0.244080 0.287775 -0.289582
Cl5   Cl    Cl    0.153867 0.797345 0.626280 -0.397186
Cl6   Cl    Cl    0.119242 0.788126 0.328222 -0.308710
Cl7   Cl    Cl    0.880757 0.788125 0.671780 -0.308715
Cl8   Cl    Cl    0.846131 0.797348 0.373724 -0.397182
H1    H     H_    0.095049 0.710514 0.930515 0.441148
H2    H     H_    0.266213 0.551873 0.109371 0.380195
H3    H     H_    0.733784 0.551871 0.890627 0.380194
H4    H     H_    0.904948 0.710515 0.069483 0.441148
N1    N     N_1   0.500000 0.500030 0.073640 -0.000372
N2    N     N_1   0.500000 0.500030 0.926360 -0.000373
O1    O     O_R   0.500000 0.285340 0.636850 -0.595494
O2    O     O_R   0.045963 0.640755 0.859149 -0.720070
O3    O     O_2   0.120903 0.325477 0.089193 -0.460047
O4    O     O_R   0.180558 0.561555 0.150239 -0.711059
O5    O     O_2   0.879102 0.325477 0.910807 -0.460048
O6    O     O_R   0.819440 0.561553 0.849760 -0.711055
O7    O     O_2   0.790458 0.492920 0.129748 -0.540700
O8    O     O_R   0.954035 0.640760 0.140854 -0.720063
O9    O     O_R   0.500000 0.285340 0.363150 -0.595493
O10   O     O_R   0.314790 0.499970 0.636880 -0.556271
O11   O     O_R   0.314790 0.499970 0.363120 -0.642131
O12   O     O_R   0.685210 0.499970 0.636880 -0.642131
O13   O     O_R   0.685210 0.499970 0.363120 -0.556273
O14   O     O_R   0.500000 0.714650 0.636900 -0.598764
O15   O     O_R   0.500000 0.714650 0.363100 -0.598764
O16   O     O_2   0.209544 0.492920 0.870250 -0.540697
Zn1   Zn    Zn3+2 0.500000 0.499990 0.682780 1.112444
Zn2   Zn    Zn3+2 0.500000 0.499990 0.317220 1.112444

loop_
_geom_bond_atom_site_label_1
_geom_bond_atom_site_label_2
_ccdc_geom_bond_type
O12   Zn1   S    
H3    O6    S    
C4    Cl8   S    
O11   Zn2   S    
C11   O11   A    
C3    Cl5   S    
N1    N2    T    
C16   Cl2   S    
C7    O16   D    
C7    C15   S    
C4    Cl7   S    
C1    O1    A    
C12   O12   A    
C16   C18   S    
C15   Cl1   S    
C2    C13   S    
O14   Zn1   S    
C3    Cl6   S    
O13   Zn2   S    
C10   C18   S    
C6    C18   S    
C9    C17   S    
C9    O6    S    
C5    C11   S    
O15   Zn2   S    
H1    O2    S    
C6    C12   S    
C13   O14   A    
C2    C14   T    
C7    O2    S    
N2    Zn1   S    
C5    C15   S    
C4    C6    S    
O10   Zn1   S    
O1    Zn1   S    
C3    C4    S    
O9    Zn2   S    
H4    O8    S    
H2    O4    S    
C11   O10   A    
C8    C16   S    
C9    O5    D    
C8    O4    S    
C1    O9    A    
C15   C17   S    
C6    C17   S    
C12   O13   A    
C10   O8    S    
C1    C14   S    
N1    Zn2   S    
C3    C5    S    
C18   Cl4   S    
C13   O15   A    
C17   Cl3   S    
C10   O7    D    
C5    C16   S    
C8    O3    D    
