data_mof_unit_55255.cif
_audit_creation_date              2012-12-10T18:05:44-0500
_audit_creation_method            fapswitch 2.2
_symmetry_space_group_name_H-M    P1
_symmetry_Int_Tables_number       1
_space_group_crystal_system       triclinic
_cell_length_a                    10.906079
_cell_length_b                    10.748603
_cell_length_c                    9.651492
_cell_angle_alpha                 88.575002
_cell_angle_beta                  91.238017
_cell_angle_gamma                 90.87675
_cell_volume                      1130.65993319

loop_
_atom_site_label
_atom_site_type_symbol
_atom_type_description
_atom_site_fract_x
_atom_site_fract_y
_atom_site_fract_z
_atom_type_partial_charge
C1    C     C_R   0.498081 0.262641 0.501108 0.882512
C2    C     C_R   0.501232 0.737388 0.499067 0.892299
C3    C     C_R   0.871806 0.500935 0.504522 -0.056932
C4    C     C_R   0.128449 0.509546 0.494405 -0.051886
C5    C     C_R   0.942712 0.506592 0.628233 0.093236
C6    C     C_R   0.057364 0.498720 0.370949 0.091311
C7    C     C_R   0.426896 0.064810 0.402002 0.590016
C8    C     C_R   0.570202 0.935245 0.599949 0.590468
C9    C     C_R   0.429106 0.936091 0.401049 -0.332882
C10   C     C_R   0.566865 0.063854 0.601975 -0.303358
C11   C     C_R   0.501671 0.871429 0.498661 -0.217474
C12   C     C_R   0.496084 0.128618 0.502652 -0.229236
C13   C     C_R   0.485206 0.392518 0.077454 -0.216705
C14   C     C_R   0.518100 0.607022 0.922241 -0.239562
C15   C     C_R   0.487445 0.390801 0.930059 0.575829
C16   C     C_R   0.520250 0.608704 0.070987 0.647930
C17   C     C_R   0.262522 0.503258 0.498048 0.802464
C18   C     C_R   0.737540 0.499129 0.501783 0.815950
C19   C     C_R   0.203391 0.554175 0.023559 -0.334973
C20   C     C_R   0.801962 0.341463 0.935516 -0.246378
C21   C     C_R   0.161974 0.575362 0.156270 0.674338
C22   C     C_R   0.852981 0.363241 0.806218 0.706668
C23   C     C_R   0.107852 0.477591 0.233180 -0.025791
C24   C     C_R   0.891278 0.483903 0.766624 -0.046557
C25   C     C_R   0.090480 0.360472 0.173955 -0.321287
C26   C     C_R   0.881850 0.581730 0.858889 -0.323026
C27   C     C_R   0.131216 0.338521 0.038614 0.560666
C28   C     C_R   0.830760 0.560172 0.991460 0.543616
C29   C     C_R   0.189279 0.436569 0.966653 -0.299126
C30   C     C_R   0.789719 0.439159 0.026138 -0.318411
C31   C     C_R   0.930809 0.499129 0.378011 -0.205864
C32   C     C_R   0.068995 0.520442 0.620456 -0.226719
Cu1   Cu    Cu3+1 0.500000 0.500020 0.640660 1.002704
Cu2   Cu    Cu3+1 0.500000 0.499980 0.359340 1.037242
H1    H     H_    0.224433 0.420942 0.865238 0.181515
H2    H     H_    0.746634 0.420037 0.124238 0.186960
H3    H     H_    0.246669 0.628892 0.964388 0.167499
H4    H     H_    0.770495 0.248816 0.965321 0.184819
H5    H     H_    0.043409 0.288993 0.234128 0.162009
H6    H     H_    0.912893 0.673158 0.824478 0.166574
H7    H     H_    0.878386 0.493074 0.282961 0.191384
H8    H     H_    0.120994 0.534169 0.714944 0.160813
H9    H     H_    0.373077 0.886797 0.325591 0.222159
H10   H     H_    0.621539 0.112966 0.678808 0.240417
H11   H     H_    0.479268 0.305376 0.134711 0.209636
H12   H     H_    0.537725 0.690426 0.862740 0.211749
N1    N     N_R   0.500030 0.500030 0.852070 -0.222542
N2    N     N_R   0.499970 0.499970 0.147930 -0.228802
O1    O     O_R   0.499990 0.319660 0.618740 -0.533931
O2    O     O_R   0.500010 0.680340 0.381260 -0.515059
O3    O     O_R   0.499990 0.319630 0.381170 -0.568361
O4    O     O_R   0.500010 0.680370 0.618830 -0.570650
O5    O     O_R   0.319650 0.500020 0.618780 -0.613638
O6    O     O_R   0.680350 0.499980 0.381220 -0.577489
O7    O     O_R   0.319640 0.500000 0.381210 -0.559614
O8    O     O_R   0.680360 0.500000 0.618790 -0.566653
O9    O     O_3   0.502138 0.277201 0.869208 -0.576727
C33   C     C_3   0.394039 0.204045 0.879115 -0.271776
H13   H     H_    0.414077 0.109017 0.844495 0.184416
H14   H     H_    0.321498 0.241671 0.808141 0.200200
H15   H     H_    0.360599 0.193741 0.986724 0.186902
O10   O     O_3   0.558798 0.714745 0.140332 -0.516756
C34   C     C_3   0.522543 0.826881 0.072868 -0.312930
H16   H     H_    0.530986 0.903023 0.147740 0.202005
H17   H     H_    0.425333 0.822735 0.035236 0.154433
H18   H     H_    0.585843 0.852646 0.987949 0.194764
F1    F     F_    0.175117 0.690364 0.210182 -0.693023
F2    F     F_    0.863661 0.267263 0.718675 -0.665949
O11   O     O_3   0.113472 0.227840 0.967577 -0.586308
C35   C     C_3   0.077281 0.125809 0.052570 -0.276189
H19   H     H_    0.981148 0.136143 0.085990 0.158032
H20   H     H_    0.141527 0.112247 0.142609 0.211892
H21   H     H_    0.079978 0.040300 0.990743 0.195644
O12   O     O_3   0.814294 0.650861 0.090249 -0.560916
C36   C     C_3   0.870354 0.766628 0.057713 -0.241111
H22   H     H_    0.860382 0.828300 0.147107 0.201819
H23   H     H_    0.970283 0.756889 0.040918 0.171933
H24   H     H_    0.823437 0.812393 0.967087 0.181681
F3    F     F_    0.355435 0.126705 0.307047 -0.695836
F4    F     F_    0.642363 0.873538 0.694376 -0.686075

loop_
_geom_bond_atom_site_label_1
_geom_bond_atom_site_label_2
_ccdc_geom_bond_type
C34   H17   S    
C27   C29   A    
C15   N1    A    
C28   O12   S    
C16   N2    A    
C14   H12   S    
C20   C30   A    
Cu1   O4    S    
Cu2   O3    S    
C19   C21   A    
C24   C26   A    
C33   H14   S    
C20   H4    S    
C3    C18   S    
C19   H3    S    
C35   H19   S    
C2    O2    A    
C17   O7    A    
C27   O11   S    
C18   O8    A    
C5    C32   A    
C33   H15   S    
C6    C31   A    
C34   H18   S    
Cu2   O7    S    
C21   F1    S    
C15   O9    S    
C1    C12   S    
C16   O10   S    
C2    C11   S    
C10   C12   A    
Cu1   O5    S    
C7    C12   A    
Cu2   O2    S    
C9    H9    S    
O12   C36   S    
C10   H10   S    
C4    C6    A    
C33   H13   S    
C36   H22   S    
O10   C34   S    
C9    C11   A    
C35   H21   S    
Cu1   Cu2   S    
C3    C31   A    
C36   H23   S    
C22   F2    S    
C4    C32   A    
C2    O4    A    
C4    C17   S    
C20   C22   A    
Cu2   O6    S    
C13   C15   A    
Cu1   N1    S    
C14   C16   A    
Cu2   N2    S    
C19   C29   A    
C17   O5    A    
C7    F3    S    
C7    C9    A    
C31   H7    S    
C3    C5    A    
C13   N2    A    
C14   N1    A    
C25   C27   A    
C29   H1    S    
C26   C28   A    
C1    O3    A    
C30   H2    S    
C21   C23   A    
C25   H5    S    
C13   H11   S    
C26   H6    S    
O9    C33   S    
C5    C24   S    
Cu1   O8    S    
C8    C11   A    
C6    C23   S    
C28   C30   A    
C22   C24   A    
C23   C25   A    
O11   C35   S    
C36   H24   S    
C18   O6    A    
C34   H16   S    
C8    C10   A    
Cu1   O1    S    
C8    F4    S    
C32   H8    S    
C35   H20   S    
C1    O1    A    
