data_mof_unit_12035.cif
_audit_creation_date              2012-12-10T18:29:34-0500
_audit_creation_method            fapswitch 2.2
_symmetry_space_group_name_H-M    P1
_symmetry_Int_Tables_number       1
_space_group_crystal_system       triclinic
_cell_length_a                    11.502615
_cell_length_b                    15.076196
_cell_length_c                    15.574261
_cell_angle_alpha                 81.06269
_cell_angle_beta                  91.992472
_cell_angle_gamma                 104.750988
_cell_volume                      2580.06358253

loop_
_atom_site_label
_atom_site_type_symbol
_atom_type_description
_atom_site_fract_x
_atom_site_fract_y
_atom_site_fract_z
_atom_type_partial_charge
C1    C     C_R   0.483527 0.441401 0.662375 0.862288
C2    C     C_R   0.519198 0.559123 0.338067 0.866936
C3    C     C_R   0.494866 0.358108 0.936319 0.068633
C4    C     C_R   0.559343 0.655860 0.066305 0.069337
C5    C     C_R   0.511956 0.519766 0.955750 -0.021404
C6    C     C_R   0.540029 0.495994 0.043824 -0.024473
C7    C     C_R   0.571256 0.410241 0.072061 -0.038588
C8    C     C_R   0.484146 0.607559 0.928442 -0.048777
C9    C     C_R   0.551698 0.341729 0.017040 0.019865
C10   C     C_R   0.511597 0.677603 0.982969 0.025868
C11   C     C_R   0.637818 0.821796 0.667105 -0.001471
C12   C     C_R   0.340583 0.154039 0.354849 0.000630
C13   C     C_R   0.647648 0.752837 0.617248 0.203078
C14   C     C_R   0.348793 0.239722 0.385568 0.183728
C15   C     C_R   0.505830 0.793986 0.515894 0.034676
C16   C     C_R   0.491941 0.207460 0.492346 0.042291
C17   C     C_R   0.530842 0.882885 0.542423 -0.084466
C18   C     C_R   0.474958 0.117488 0.469545 -0.094822
C19   C     C_R   0.579502 0.892185 0.627577 0.036775
C20   C     C_R   0.424813 0.103559 0.387424 0.063860
C21   C     C_R   0.506948 0.961043 0.487972 0.061011
C22   C     C_R   0.505054 0.041035 0.523347 0.054063
C23   C     C_R   0.717957 0.501570 0.499964 0.904801
C24   C     C_R   0.282037 0.498479 0.499668 0.902738
C25   C     C_R   0.520772 0.038843 0.612738 -0.221544
C26   C     C_R   0.493765 0.963977 0.397510 -0.246592
C27   C     C_R   0.568301 0.971766 0.664683 0.113584
C28   C     C_R   0.454123 0.034793 0.345942 0.107708
C29   C     C_1   0.839356 0.503700 0.499789 -0.175667
C30   C     C_1   0.160515 0.496117 0.498947 -0.178734
C31   C     C_1   0.941058 0.501583 0.499229 -0.008016
C32   C     C_1   0.058624 0.497781 0.498884 0.002216
C33   C     C_R   0.476795 0.406848 0.756708 -0.142574
C34   C     C_R   0.540572 0.597375 0.245466 -0.144342
C35   C     C_R   0.440827 0.287638 0.885707 0.055879
C36   C     C_R   0.606806 0.721542 0.122801 0.060027
C37   C     C_R   0.435075 0.312556 0.794123 -0.014098
C38   C     C_R   0.592047 0.692392 0.213677 -0.024872
C39   C     C_R   0.508690 0.474226 0.811416 -0.255162
C40   C     C_R   0.519096 0.533647 0.187630 -0.254839
C41   C     C_R   0.501367 0.451171 0.901022 0.048614
C42   C     C_R   0.543930 0.561540 0.099695 0.048940
H1    H     H_    0.493527 0.089979 0.642326 0.159743
H2    H     H_    0.515253 0.911403 0.366118 0.164998
H3    H     H_    0.478910 0.461055 0.210602 0.175100
H4    H     H_    0.545113 0.546080 0.784256 0.173791
N1    N     N_R   0.566020 0.731700 0.552730 -0.140086
N2    N     N_R   0.433980 0.268300 0.447270 -0.135016
O1    O     O_R   0.466720 0.383110 0.605620 -0.596723
O2    O     O_R   0.533280 0.616890 0.394380 -0.600700
O3    O     O_R   0.509090 0.531900 0.639510 -0.620103
O4    O     O_R   0.490910 0.468100 0.360490 -0.635356
O5    O     O_R   0.644370 0.425610 0.483050 -0.593416
O6    O     O_R   0.355630 0.574390 0.516950 -0.591987
O7    O     O_R   0.686740 0.574390 0.516930 -0.633501
O8    O     O_R   0.313260 0.425610 0.483070 -0.633994
Zn1   Zn    Zn3+2 0.471710 0.400660 0.477370 0.949496
Zn2   Zn    Zn3+2 0.528290 0.599340 0.522630 0.954124
C43   C     C_3   0.617161 0.264494 0.035515 -0.437782
C44   C     C_3   0.752844 0.302317 0.017033 -0.307995
C45   C     C_3   0.822094 0.230086 0.050744 -0.890954
H5    H     H_    0.812171 0.211395 0.122421 0.263472
H6    H     H_    0.788984 0.166667 0.020174 0.267269
H7    H     H_    0.919030 0.259014 0.034822 0.248821
H8    H     H_    0.767562 0.322584 0.945732 0.216827
H9    H     H_    0.790840 0.365018 0.047838 0.230958
H10   H     H_    0.600468 0.230214 0.103971 0.219070
H11   H     H_    0.585334 0.210305 0.994169 0.200881
C46   C     C_3   0.455469 0.760542 0.963796 -0.433355
C47   C     C_3   0.326384 0.734443 0.999218 -0.306223
C48   C     C_3   0.268303 0.815799 0.978628 -0.899733
H12   H     H_    0.320222 0.875967 0.008626 0.259665
H13   H     H_    0.264500 0.836867 0.907197 0.266699
H14   H     H_    0.175240 0.794934 0.005081 0.252645
H15   H     H_    0.270937 0.674736 0.970235 0.230171
H16   H     H_    0.327232 0.713754 0.070912 0.223218
H17   H     H_    0.505286 0.821459 0.992518 0.198836
H18   H     H_    0.454919 0.784894 0.892915 0.198228
C49   C     C_1   0.632567 0.759624 0.272465 0.190372
N3    N     N_1   0.665987 0.813274 0.319290 -0.246557
C50   C     C_1   0.385505 0.242136 0.740134 0.164693
N4    N     N_1   0.344934 0.185860 0.697130 -0.240400
C51   C     C_3   0.372500 0.191691 0.929921 -0.457200
C52   C     C_3   0.235713 0.178148 0.922055 -0.310989
C53   C     C_3   0.168394 0.082960 0.968433 -0.902958
H19   H     H_    0.192793 0.027111 0.939683 0.269528
H20   H     H_    0.190186 0.075574 0.038839 0.259097
H21   H     H_    0.070114 0.075148 0.961101 0.252685
H22   H     H_    0.208937 0.232590 0.951634 0.220373
H23   H     H_    0.207586 0.184331 0.853027 0.232023
H24   H     H_    0.401143 0.137157 0.901876 0.210419
H25   H     H_    0.390679 0.182062 0.000673 0.203340
C54   C     C_3   0.690952 0.815101 0.088372 -0.461818
C55   C     C_3   0.822746 0.818382 0.112355 -0.305094
C56   C     C_3   0.901945 0.917294 0.093464 -0.904874
H26   H     H_    0.891890 0.947991 0.025040 0.266240
H27   H     H_    0.876816 0.961254 0.137045 0.269467
H28   H     H_    0.997615 0.916745 0.104696 0.251540
H29   H     H_    0.832280 0.792051 0.182122 0.230925
H30   H     H_    0.856029 0.773473 0.073970 0.216563
H31   H     H_    0.689237 0.829600 0.016604 0.203396
H32   H     H_    0.662004 0.870517 0.114263 0.220868
C57   C     C_1   0.634820 0.395357 0.153365 0.144061
N5    N     N_1   0.685411 0.383265 0.217964 -0.201558
C58   C     C_1   0.412681 0.622038 0.851171 0.133122
N6    N     N_1   0.355715 0.633879 0.789708 -0.197606
C59   C     C_3   0.602003 0.987350 0.757966 -0.444749
C60   C     C_3   0.606569 0.083358 0.782045 -0.352179
C61   C     C_3   0.660067 0.092959 0.871988 -0.940511
H33   H     H_    0.600768 0.043410 0.922265 0.267703
H34   H     H_    0.751129 0.080091 0.876069 0.266817
H35   H     H_    0.668504 0.164781 0.884039 0.265752
H36   H     H_    0.663798 0.138122 0.734515 0.249776
H37   H     H_    0.514556 0.093868 0.782760 0.230311
H38   H     H_    0.536716 0.935750 0.803000 0.199802
H39   H     H_    0.694326 0.980733 0.768529 0.243361
C62   C     C_3   0.449527 0.037198 0.247924 -0.427765
C63   C     C_3   0.567819 0.032545 0.207776 -0.321352
C64   C     C_3   0.548795 0.016843 0.113267 -0.951300
H40   H     H_    0.493504 0.945315 0.110303 0.263789
H41   H     H_    0.501713 0.066391 0.076770 0.262725
H42   H     H_    0.637025 0.025977 0.081892 0.257729
H43   H     H_    0.636772 0.098637 0.210995 0.222020
H44   H     H_    0.603712 0.975446 0.242473 0.234129
H45   H     H_    0.375056 0.978564 0.232683 0.215210
H46   H     H_    0.433468 0.103777 0.215322 0.192809
C65   C     C_1   0.581724 0.240760 0.554695 0.256641
N7    N     N_1   0.654169 0.267315 0.604579 -0.240158
C66   C     C_1   0.411738 0.765132 0.454661 0.249250
N8    N     N_1   0.336389 0.742734 0.405334 -0.225507
C67   C     C_3   0.264112 0.298672 0.349765 -0.384533
C68   C     C_3   0.143722 0.268945 0.399635 -0.349877
C69   C     C_3   0.054258 0.321050 0.356318 -0.858939
H47   H     H_    0.093013 0.397171 0.350065 0.264710
H48   H     H_    0.030767 0.301945 0.290649 0.255751
H49   H     H_    0.970886 0.302379 0.396145 0.260274
H50   H     H_    0.102803 0.193521 0.403063 0.218060
H51   H     H_    0.158267 0.282278 0.467758 0.250060
H52   H     H_    0.303776 0.372330 0.350872 0.252135
H53   H     H_    0.249946 0.296461 0.279168 0.160081
C70   C     C_3   0.769160 0.731195 0.612344 -0.353295
C71   C     C_3   0.790509 0.649412 0.678559 -0.340129
C72   C     C_3   0.919574 0.641512 0.672336 -0.879551
H54   H     H_    0.942864 0.639473 0.604334 0.274445
H55   H     H_    0.983082 0.701970 0.695134 0.257259
H56   H     H_    0.930128 0.577140 0.713788 0.254667
H57   H     H_    0.776260 0.657402 0.746214 0.203487
H58   H     H_    0.728326 0.583177 0.667761 0.251962
H59   H     H_    0.784438 0.720877 0.545276 0.220075
H60   H     H_    0.840903 0.794790 0.618404 0.165783
C73   C     C_3   0.682292 0.809825 0.760676 -0.395769
C74   C     C_3   0.816614 0.857414 0.771578 -0.355099
C75   C     C_3   0.845983 0.871234 0.865486 -0.913928
H61   H     H_    0.794188 0.916822 0.886730 0.257276
H62   H     H_    0.824222 0.803107 0.908514 0.270775
H63   H     H_    0.943351 0.904284 0.871303 0.259892
H64   H     H_    0.873897 0.814015 0.754202 0.232599
H65   H     H_    0.842877 0.925362 0.728485 0.220965
H66   H     H_    0.624515 0.828059 0.805726 0.191161
H67   H     H_    0.665743 0.735080 0.786184 0.183948
C76   C     C_3   0.229529 0.106679 0.305307 -0.444344
C77   C     C_3   0.156002 0.018260 0.361201 -0.329542
C78   C     C_3   0.041673 0.974119 0.314870 -0.882822
H68   H     H_    0.983654 0.023261 0.300540 0.261853
H69   H     H_    0.064948 0.954154 0.253244 0.263799
H70   H     H_    0.990590 0.910799 0.356977 0.258052
H71   H     H_    0.210185 0.966457 0.375943 0.235388
H72   H     H_    0.130917 0.035331 0.423798 0.219354
H73   H     H_    0.168211 0.151551 0.285314 0.214216
H74   H     H_    0.252331 0.089428 0.242944 0.191644

loop_
_geom_bond_atom_site_label_1
_geom_bond_atom_site_label_2
_ccdc_geom_bond_type
C72   H56   S    
C30   C32   T    
C21   C26   A    
C4    C36   A    
C54   C55   S    
C46   H17   S    
C56   H26   S    
C15   N1    A    
C8    C58   S    
C25   H1    S    
C76   C77   S    
C56   H28   S    
C70   H59   S    
N2    Zn1   S    
C39   C41   A    
C53   H19   S    
C60   C61   S    
C51   H25   S    
C11   C19   A    
C33   C39   A    
C4    C42   A    
C34   C40   A    
C23   C29   S    
C78   H69   S    
C66   N8    T    
C28   C62   S    
C61   H34   S    
C5    C6    A    
C53   H21   S    
C38   C49   S    
C24   O6    A    
C72   H54   S    
O1    Zn1   S    
O8    Zn1   S    
C72   H55   S    
C60   H37   S    
C45   H6    S    
C63   C64   S    
C67   H53   S    
C2    O2    A    
C43   H10   S    
C12   C76   S    
C36   C54   S    
C78   H68   S    
C68   C69   S    
C22   C25   A    
C1    O1    A    
C69   H49   S    
C73   C74   S    
C47   C48   S    
C55   H30   S    
C75   H62   S    
C19   C27   A    
C62   H46   S    
C76   H73   S    
C2    C34   S    
C40   C42   A    
C44   H9    S    
C43   C44   S    
C34   C38   A    
C21   C22   A    
C37   C50   S    
C46   H18   S    
C46   C47   S    
C52   H23   S    
C70   H60   S    
C23   O5    A    
C24   C30   S    
C14   C67   S    
C64   H41   S    
C40   H3    S    
C74   H65   S    
C53   H20   S    
C26   H2    S    
O2    Zn2   S    
C71   H58   S    
C78   H70   S    
C52   C53   S    
C61   H35   S    
C54   H31   S    
C13   N1    A    
O5    Zn1   S    
C14   N2    A    
C20   C28   A    
C68   H50   S    
C50   N4    T    
C77   H71   S    
C44   C45   S    
C9    C43   S    
C73   H66   S    
C60   H36   S    
C45   H7    S    
C3    C9    A    
C43   H11   S    
C5    C8    A    
C3    C35   A    
C51   C52   S    
C15   C66   S    
C27   C59   S    
C59   C60   S    
C12   C20   A    
C55   C56   S    
O3    Zn2   S    
C63   H44   S    
C75   H63   S    
C1    O3    A    
C59   H38   S    
C2    O4    A    
C39   H4    S    
C77   H72   S    
C76   H74   S    
C11   C73   S    
C12   C14   A    
C44   H8    S    
C13   C70   S    
C47   H16   S    
C69   H47   S    
C24   O8    A    
C52   H22   S    
C4    C10   A    
C67   C68   S    
C57   N5    T    
C48   H13   S    
C77   C78   S    
O6    Zn2   S    
C64   H42   S    
C15   C17   A    
C5    C41   A    
C74   H64   S    
C3    C41   A    
C35   C51   S    
C35   C37   A    
C18   C22   A    
C71   H57   S    
C31   C32   S    
C16   C18   A    
C54   H32   S    
C48   H14   S    
C64   H40   S    
C56   H27   S    
C23   O7    A    
C6    C7    A    
C25   C27   A    
C51   H24   S    
C58   N6    T    
C26   C28   A    
C73   H67   S    
C36   C38   A    
C48   H12   S    
C29   C31   T    
C70   C71   S    
N1    Zn2   S    
C16   N2    A    
C11   C13   A    
C62   H45   S    
C55   H29   S    
C17   C19   A    
C18   C20   A    
C63   H43   S    
C45   H5    S    
C16   C65   S    
C33   C37   A    
C59   H39   S    
C67   H52   S    
O4    Zn1   S    
C1    C33   S    
C49   N3    T    
C10   C46   S    
C7    C9    A    
C74   C75   S    
C8    C10   A    
C6    C42   A    
O7    Zn2   S    
C61   H33   S    
C47   H15   S    
C69   H48   S    
C71   C72   S    
C7    C57   S    
C75   H61   S    
C62   C63   S    
C68   H51   S    
C65   N7    T    
C17   C21   A    
