data_mof_unit_9323.cif
_audit_creation_date              2013-03-05T16:05:09-0500
_audit_creation_method            fapswitch 2.2
_symmetry_space_group_name_H-M    P1
_symmetry_Int_Tables_number       1
_space_group_crystal_system       triclinic
_cell_length_a                    10.830474
_cell_length_b                    9.513352
_cell_length_c                    10.748219
_cell_angle_alpha                 90.006993
_cell_angle_beta                  89.968436
_cell_angle_gamma                 89.976419
_cell_volume                      1107.43292464

loop_
_atom_site_label
_atom_site_type_symbol
_atom_site_description
_atom_site_fract_x
_atom_site_fract_y
_atom_site_fract_z
_atom_type_partial_charge
O1    O     O_R   0.319660 0.618740 0.499990 -0.597143
O2    O     O_R   0.319660 0.381260 0.499990 -0.593589
C1    C     C_R   0.262062 0.500022 0.499917 0.779554
O3    O     O_R   0.499990 0.618790 0.317690 -0.550262
O4    O     O_R   0.499990 0.381210 0.317690 -0.577623
C2    C     C_R   0.501784 0.499850 0.259707 0.841657
Cu1   Cu    Cu3+1 0.500020 0.640660 0.500000 0.983317
Cu2   Cu    Cu3+1 0.500020 0.359340 0.500000 0.967167
O5    O     O_R   0.680370 0.618830 0.500010 -0.575946
O6    O     O_R   0.680370 0.381170 0.500010 -0.576293
O7    O     O_R   0.500030 0.618780 0.682310 -0.596625
O8    O     O_R   0.500030 0.381220 0.682310 -0.595999
C3    C     C_R   0.737924 0.500008 0.501157 0.855751
C4    C     C_R   0.499298 0.499836 0.740168 0.774493
C5    C     C_3   0.391270 0.582394 0.072129 -0.410472
C6    C     C_3   0.491276 0.346559 0.071187 -0.391663
H1    H     H_    0.390058 0.692423 0.106079 0.222518
H2    H     H_    0.564059 0.275869 0.108899 0.234325
H3    H     H_    0.304946 0.533769 0.108463 0.171226
H4    H     H_    0.401034 0.301646 0.101096 0.178989
C7    C     C_3   0.387678 0.579946 0.928897 -0.369914
C8    C     C_3   0.498136 0.346468 0.928783 -0.357862
H5    H     H_    0.301147 0.528259 0.896838 0.172174
H6    H     H_    0.416623 0.289113 0.891305 0.181632
H7    H     H_    0.386480 0.689813 0.893297 0.193637
H8    H     H_    0.582367 0.288765 0.898372 0.207291
H9    H     H_    0.615179 0.686696 0.896211 0.189163
H10   H     H_    0.701399 0.533370 0.874081 0.177181
C9    C     C_3   0.631565 0.561538 0.069734 0.572855
C10   C     C_3   0.505371 0.499492 0.121515 -0.037598
C11   C     C_3   0.501135 0.499567 0.877873 0.054635
C12   C     C_3   0.619556 0.574315 0.924589 -0.435833
C13   C     C_R   0.063891 0.372331 0.502743 -0.172611
C14   C     C_R   0.063792 0.627758 0.497984 -0.175086
H11   H     H_    0.111969 0.272479 0.504415 0.152054
H12   H     H_    0.111799 0.727599 0.495785 0.151921
C15   C     C_R   0.936172 0.372331 0.503371 -0.132480
C16   C     C_R   0.936066 0.627754 0.498560 -0.133252
H13   H     H_    0.888160 0.272490 0.505424 0.156372
H14   H     H_    0.887972 0.727593 0.496681 0.162122
C17   C     C_R   0.871767 0.500038 0.501287 0.000106
C18   C     C_R   0.128209 0.500045 0.500136 -0.026373
C19   C     C_R   0.428860 0.074453 0.417607 -0.006732
C20   C     C_R   0.428867 0.925580 0.417600 0.027838
H15   H     H_    0.371722 0.130605 0.351711 0.118362
H16   H     H_    0.371748 0.869453 0.351692 0.121592
N1    N     N_R   0.500030 0.852070 0.500030 -0.162450
N2    N     N_R   0.500030 0.147930 0.500030 -0.163856
C21   C     C_R   0.571327 0.925539 0.582342 -0.010231
C22   C     C_R   0.571319 0.074415 0.582349 -0.015123
H17   H     H_    0.628560 0.869380 0.648153 0.121174
H18   H     H_    0.628538 0.130537 0.648171 0.122701
N3    N     N_R   0.657782 0.702612 0.121862 0.109351
O9    O     O_R   0.585677 0.808796 0.098279 -0.407513
O10   O     O_R   0.759082 0.726286 0.183604 -0.302116
N4    N     N_R   0.734071 0.464847 0.103906 0.110414
O11   O     O_R   0.761378 0.444615 0.220394 -0.355157
O12   O     O_R   0.794399 0.392433 0.020920 -0.381771

loop_
_geom_bond_atom_site_label_1
_geom_bond_atom_site_label_2
_geom_bond_distance
_ccdc_geom_bond_type
O4    Cu2   1.970549 S    
C22   H18   1.081793 S    
C19   C20   1.416281 A    
Cu2   N2    2.011219 S    
C1    C18   1.449685 S    
C9    C10   1.589360 S    
C9    N4    1.487689 S    
N4    O12   1.302274 A    
C19   H15   1.081779 S    
C19   N2    1.366976 A    
Cu1   O7    1.970557 S    
C11   C12   1.550511 S    
C14   C18   1.400997 A    
C20   N1    1.366923 A    
C6    H4    1.114084 S    
C4    C11   1.480231 S    
Cu2   O8    1.970506 S    
C21   H17   1.081806 S    
N2    C22   1.366952 A    
O2    C1    1.290373 A    
Cu1   Cu2   2.676296 S    
N1    C21   1.366944 A    
C14   C16   1.383338 A    
N3    O9    1.301606 A    
C16   H14   1.083262 S    
C7    C11   1.547192 S    
C7    H7    1.113153 S    
C9    N3    1.481906 S    
C16   C17   1.400987 A    
O3    Cu1   1.970498 S    
C13   C18   1.401045 A    
H10   C12   1.109636 S    
O3    C2    1.291859 A    
C2    C10   1.485809 S    
O8    C4    1.288399 A    
C13   C15   1.383260 A    
C5    H3    1.113816 S    
C9    C12   1.570261 S    
C14   H12   1.083259 S    
N3    O10   1.302212 A    
C7    H5    1.113335 S    
C15   C17   1.400866 A    
O4    C2    1.289505 A    
C15   H13   1.083255 S    
O7    C4    1.291271 A    
C8    H6    1.113594 S    
C8    C11   1.556291 S    
C6    C10   1.559722 S    
Cu1   O5    1.964200 S    
C5    C7    1.540175 S    
N4    O11   1.300975 A    
C5    C10   1.559145 S    
C6    H2    1.112616 S    
C21   C22   1.416307 A    
C8    H8    1.113383 S    
C5    H1    1.108547 S    
O5    C3    1.290706 A    
C3    C17   1.449578 S    
C6    C8    1.532359 S    
C13   H11   1.083253 S    
H9    C12   1.112805 S    
O1    Cu1   1.964569 S    
Cu2   O6    1.964370 S    
O2    Cu2   1.964398 S    
C20   H16   1.081799 S    
O1    C1    1.290460 A    
O6    C3    1.291294 A    
Cu1   N1    2.011218 S    
