data_mof_unit_67397.cif
_audit_creation_date              2012-12-11T19:52:03-0500
_audit_creation_method            fapswitch 2.2
_symmetry_space_group_name_H-M    P1
_symmetry_Int_Tables_number       1
_space_group_crystal_system       triclinic
_cell_length_a                    16.910332
_cell_length_b                    28.447254
_cell_length_c                    8.539727
_cell_angle_alpha                 90.002057
_cell_angle_beta                  104.930037
_cell_angle_gamma                 89.995196
_cell_volume                      3969.37379075

loop_
_atom_site_label
_atom_site_type_symbol
_atom_type_description
_atom_site_fract_x
_atom_site_fract_y
_atom_site_fract_z
_atom_type_partial_charge
Ba1   Ba    Ba6+2 0.000400 0.534870 0.845190 2.059544
Ba2   Ba    Ba6+2 0.000400 0.465130 0.345190 2.059527
Ba3   Ba    Ba6+2 0.500400 0.034870 0.845190 2.059529
Ba4   Ba    Ba6+2 0.500400 0.965130 0.345190 2.059522
C1    C     C_3   0.018476 0.780363 0.714021 0.799149
C2    C     C_3   0.018451 0.219655 0.213979 0.799269
C3    C     C_3   0.518462 0.280363 0.713983 0.799186
C4    C     C_3   0.518457 0.719656 0.213992 0.799269
C5    C     C_R   0.135983 0.620769 0.386222 -0.151900
C6    C     C_R   0.135986 0.379231 0.886217 -0.151944
C7    C     C_R   0.635983 0.120769 0.386225 -0.151941
C8    C     C_R   0.635988 0.879232 0.886220 -0.151944
C9    C     C_2   0.745318 0.362331 0.892458 0.228656
C10   C     C_2   0.745400 0.637717 0.392657 0.228776
C11   C     C_2   0.245309 0.862335 0.892448 0.228688
C12   C     C_2   0.245403 0.137719 0.392667 0.228803
C13   C     C_2   0.814516 0.391284 0.905979 -0.032514
C14   C     C_2   0.814535 0.608719 0.406013 -0.032694
C15   C     C_2   0.314514 0.891284 0.905978 -0.032489
C16   C     C_2   0.314535 0.108719 0.406012 -0.032676
C17   C     C_2   0.844196 0.347507 0.677612 0.007558
C18   C     C_2   0.844183 0.652484 0.177609 0.007584
C19   C     C_2   0.344194 0.847506 0.677616 0.007580
C20   C     C_2   0.344181 0.152484 0.177605 0.007632
C21   C     C_3   0.790400 0.310800 0.707267 -0.174631
C22   C     C_3   0.790444 0.689215 0.207355 -0.174571
C23   C     C_3   0.290395 0.810801 0.707265 -0.174582
C24   C     C_3   0.290446 0.189216 0.207357 -0.174619
C25   C     C_3   0.722115 0.328789 0.763684 0.239403
C26   C     C_3   0.722181 0.671257 0.263892 0.239691
C27   C     C_3   0.222109 0.828790 0.763683 0.239226
C28   C     C_3   0.222184 0.171261 0.263907 0.239676
C29   C     C_2   0.763242 0.271836 0.581853 0.580276
C30   C     C_2   0.763260 0.728169 0.081915 0.580122
C31   C     C_2   0.263239 0.771837 0.581852 0.580250
C32   C     C_2   0.263258 0.228169 0.081913 0.580146
C33   C     C_2   0.253435 0.727188 0.628821 0.249225
C34   C     C_2   0.253463 0.272823 0.128852 0.249261
C35   C     C_2   0.753436 0.227188 0.628822 0.249255
C36   C     C_2   0.753463 0.772823 0.128858 0.249243
C37   C     C_R   0.277014 0.676576 0.396723 0.294409
C38   C     C_R   0.277029 0.323421 0.896732 0.294348
C39   C     C_R   0.777017 0.176574 0.396732 0.294388
C40   C     C_R   0.777029 0.823421 0.896733 0.294417
C41   C     C_R   0.226587 0.688180 0.508437 -0.020287
C42   C     C_R   0.226601 0.311821 0.008441 -0.020289
C43   C     C_R   0.726588 0.188180 0.508440 -0.020271
C44   C     C_R   0.726603 0.811822 0.008448 -0.020352
C45   C     C_3   0.005627 0.722025 0.141505 0.782730
C46   C     C_3   0.005644 0.277956 0.641455 0.782701
C47   C     C_3   0.505629 0.222025 0.141484 0.782652
C48   C     C_3   0.505645 0.777957 0.641460 0.782699
C49   C     C_R   0.257866 0.635164 0.288615 0.189931
C50   C     C_R   0.257876 0.364832 0.788620 0.189944
C51   C     C_R   0.757869 0.135162 0.288626 0.189945
C52   C     C_R   0.757876 0.864830 0.788616 0.189968
C53   C     C_R   0.190136 0.608859 0.279705 0.025901
C54   C     C_R   0.190141 0.391140 0.779703 0.025920
C55   C     C_R   0.690138 0.108858 0.279711 0.025934
C56   C     C_R   0.690142 0.891139 0.779703 0.025901
C57   C     C_R   0.155992 0.656286 0.504370 0.014462
C58   C     C_R   0.155997 0.343714 0.004366 0.014432
C59   C     C_R   0.655992 0.156287 0.504373 0.014455
C60   C     C_R   0.655999 0.843715 0.004368 0.014451
C61   C     C_3   0.000616 0.774181 0.180797 1.615806
C62   C     C_3   0.000651 0.225794 0.680682 1.616002
C63   C     C_3   0.500652 0.274186 0.180745 1.615924
C64   C     C_3   0.500653 0.725796 0.680694 1.615974
C65   C     C_3   0.746409 0.525786 0.004533 0.797374
C66   C     C_3   0.746411 0.474225 0.504402 0.797400
C67   C     C_3   0.246409 0.025787 0.004526 0.797399
C68   C     C_3   0.246413 0.974224 0.504397 0.797394
C69   C     C_3   0.667872 0.547956 0.899718 0.888275
C70   C     C_3   0.667799 0.452067 0.399854 0.888179
C71   C     C_3   0.167878 0.047955 0.899678 0.888252
C72   C     C_3   0.167806 0.952068 0.399815 0.888125
C73   C     C_3   0.241931 0.471239 0.167199 0.683029
C74   C     C_3   0.241924 0.528756 0.667181 0.683032
C75   C     C_3   0.741930 0.971239 0.167199 0.683044
C76   C     C_3   0.741924 0.028756 0.667185 0.683048
C77   C     C_3   0.321970 0.443686 0.211776 1.100817
C78   C     C_3   0.321962 0.556303 0.711758 1.100812
C79   C     C_3   0.821970 0.943686 0.211784 1.100811
C80   C     C_3   0.821961 0.056304 0.711779 1.100803
C81   C     C_3   0.028427 0.732518 0.638477 0.401877
C82   C     C_3   0.028404 0.267497 0.138455 0.401667
C83   C     C_3   0.528408 0.232514 0.638468 0.401752
C84   C     C_3   0.528405 0.767498 0.138463 0.401667
C85   C     C_2   0.862331 0.383939 0.783990 0.384632
C86   C     C_2   0.862299 0.616037 0.283928 0.384219
C87   C     C_2   0.362332 0.883938 0.783996 0.384622
C88   C     C_2   0.362296 0.116036 0.283922 0.384180
H1    H     H_    0.200554 0.457823 0.238197 0.033862
H2    H     H_    0.200541 0.542181 0.738161 0.033823
H3    H     H_    0.700551 0.957823 0.238191 0.033854
H4    H     H_    0.700536 0.042179 0.738157 0.033814
H5    H     H_    0.362801 0.455879 0.136821 0.056781
H6    H     H_    0.362798 0.544101 0.636820 0.056765
H7    H     H_    0.862803 0.955879 0.136835 0.056787
H8    H     H_    0.862802 0.044104 0.636848 0.056764
H9    H     H_    0.054350 0.737809 0.533162 0.064516
H10   H     H_    0.054328 0.262204 0.033152 0.064750
H11   H     H_    0.554319 0.237799 0.533136 0.064650
H12   H     H_    0.554329 0.762205 0.033161 0.064762
H13   H     H_    0.964025 0.780257 0.763612 0.112262
H14   H     H_    0.964059 0.219784 0.263759 0.112149
H15   H     H_    0.464035 0.280258 0.763658 0.112205
H16   H     H_    0.464072 0.719786 0.263790 0.112149
H17   H     H_    0.085109 0.597633 0.385454 0.125513
H18   H     H_    0.085109 0.402371 0.885451 0.125616
H19   H     H_    0.585108 0.097633 0.385456 0.125500
H20   H     H_    0.585112 0.902372 0.885453 0.125619
H21   H     H_    0.799660 0.539129 0.964494 -0.048375
H22   H     H_    0.799581 0.460893 0.464059 -0.048342
H23   H     H_    0.299669 0.039130 0.964509 -0.048387
H24   H     H_    0.299592 0.960892 0.464074 -0.048367
O1    O     O_2   0.163830 0.569270 0.980510 -0.429372
O2    O     O_2   0.163830 0.430730 0.480510 -0.429365
O3    O     O_2   0.663830 0.069270 0.980510 -0.429368
O4    O     O_2   0.663830 0.930730 0.480510 -0.429366
O5    O     O_3   0.736947 0.522807 0.487156 -0.538156
O6    O     O_3   0.736955 0.477206 0.987168 -0.538662
O7    O     O_3   0.236948 0.022807 0.487157 -0.538130
O8    O     O_3   0.236956 0.977206 0.987169 -0.538648
O9    O     O_3   0.943411 0.710989 0.999927 -0.616147
O10   O     O_3   0.943437 0.289004 0.499875 -0.616224
O11   O     O_3   0.443406 0.210991 0.999915 -0.616173
O12   O     O_3   0.443437 0.789003 0.499881 -0.616228
O13   O     O_3   0.904940 0.476110 0.001150 -0.443150
O14   O     O_3   0.904940 0.523890 0.501150 -0.443288
O15   O     O_3   0.404940 0.976110 0.001150 -0.443165
O16   O     O_3   0.404940 0.023890 0.501150 -0.443311
O17   O     O_3   0.095420 0.524330 0.188510 -0.461093
O18   O     O_3   0.095420 0.475670 0.688510 -0.461115
O19   O     O_3   0.595420 0.024330 0.188510 -0.461102
O20   O     O_3   0.595420 0.975670 0.688510 -0.461123
O21   O     O_3   0.028940 0.612400 0.656050 -0.466935
O22   O     O_3   0.028940 0.387600 0.156050 -0.466833
O23   O     O_3   0.528940 0.112400 0.656050 -0.466941
O24   O     O_3   0.528940 0.887600 0.156050 -0.466831
O25   O     O_2   0.176085 0.634049 0.815425 -0.362612
O26   O     O_2   0.176074 0.365947 0.315433 -0.362618
O27   O     O_2   0.676082 0.134052 0.815432 -0.362592
O28   O     O_2   0.676073 0.865948 0.315431 -0.362621
O29   O     O_3   0.260552 0.518468 0.200761 -0.594801
O30   O     O_3   0.260548 0.481528 0.700771 -0.594808
O31   O     O_3   0.760552 0.018467 0.200762 -0.594793
O32   O     O_3   0.760548 0.981528 0.700771 -0.594805
O33   O     O_3   0.081586 0.705044 0.756545 -0.532869
O34   O     O_3   0.081570 0.294962 0.256530 -0.532921
O35   O     O_3   0.581580 0.205046 0.756538 -0.532860
O36   O     O_3   0.581568 0.794964 0.256535 -0.532918
O37   O     O_2   0.837400 0.570350 0.710350 -0.455174
O38   O     O_2   0.837400 0.429650 0.210350 -0.455436
O39   O     O_2   0.337400 0.070350 0.710350 -0.455159
O40   O     O_2   0.337400 0.929650 0.210350 -0.455433
O41   O     O_3   0.972820 0.612580 0.035550 -0.425691
O42   O     O_3   0.972820 0.387420 0.535550 -0.425688
O43   O     O_3   0.472820 0.112580 0.035550 -0.425696
O44   O     O_3   0.472820 0.887420 0.535550 -0.425689
O45   O     O_2   0.838130 0.649059 0.845262 -0.357666
O46   O     O_2   0.838142 0.350941 0.345266 -0.357637
O47   O     O_2   0.338127 0.149057 0.845261 -0.357656
O48   O     O_2   0.338141 0.850941 0.345268 -0.357630
P1    P     P_3+3 0.171820 0.553000 0.158080 1.191472
P2    P     P_3+3 0.171820 0.447000 0.658080 1.191479
P3    P     P_3+3 0.671820 0.053000 0.158080 1.191480
P4    P     P_3+3 0.671820 0.947000 0.658080 1.191475
P5    P     P_3+3 0.829210 0.554130 0.532500 1.231197
P6    P     P_3+3 0.829210 0.445870 0.032500 1.230887
P7    P     P_3+3 0.329210 0.054130 0.532500 1.231200
P8    P     P_3+3 0.329210 0.945870 0.032500 1.230879
P9    P     P_3+3 0.897988 0.656072 0.013969 1.224168
P10   P     P_3+3 0.898005 0.343921 0.513966 1.224173
P11   P     P_3+3 0.397987 0.156073 0.013965 1.224177
P12   P     P_3+3 0.398005 0.843921 0.513968 1.224176
P13   P     P_3+3 0.107995 0.346994 0.174385 1.124413
P14   P     P_3+3 0.107995 0.653004 0.674391 1.124408
P15   P     P_3+3 0.607994 0.846995 0.174384 1.124418
P16   P     P_3+3 0.607994 0.153005 0.674393 1.124410
Br1   Br    Br    0.921262 0.703424 0.575883 -0.507265
Br2   Br    Br    0.921240 0.296599 0.075864 -0.507323
Br3   Br    Br    0.421244 0.203415 0.575931 -0.507347
Br4   Br    Br    0.421239 0.796597 0.075870 -0.507311
Br5   Br    Br    0.570633 0.524562 0.955040 -0.126656
Br6   Br    Br    0.570717 0.475326 0.456118 -0.126998
Br7   Br    Br    0.070616 0.024543 0.954906 -0.126666
Br8   Br    Br    0.070699 0.975332 0.456041 -0.127009
Br9   Br    Br    0.667922 0.614955 0.921342 -0.323547
Br10  Br    Br    0.668007 0.385051 0.420952 -0.323580
Br11  Br    Br    0.167913 0.114955 0.921359 -0.323527
Br12  Br    Br    0.168022 0.885049 0.420929 -0.323564
F1    F     F_    0.661243 0.537596 0.739398 -0.626956
F2    F     F_    0.660862 0.462549 0.239514 -0.626513
F3    F     F_    0.161279 0.037605 0.739349 -0.626960
F4    F     F_    0.160888 0.962552 0.239461 -0.626482
F5    F     F_    0.205739 0.466150 0.005000 -0.818130
F6    F     F_    0.205740 0.533839 0.504975 -0.818130
F7    F     F_    0.705743 0.966150 0.004998 -0.818130
F8    F     F_    0.705747 0.033840 0.504977 -0.818129
F9    F     F_    0.307385 0.396323 0.185231 -0.696514
F10   F     F_    0.307379 0.603667 0.685184 -0.696530
F11   F     F_    0.807385 0.896323 0.185235 -0.696530
F12   F     F_    0.807375 0.103668 0.685208 -0.696528
F13   F     F_    0.360862 0.450685 0.373562 -0.614736
F14   F     F_    0.360847 0.549312 0.873550 -0.614727
F15   F     F_    0.860857 0.950684 0.373572 -0.614741
F16   F     F_    0.860840 0.049312 0.873575 -0.614735
F17   F     F_    0.085992 0.789784 0.839561 -0.614821
F18   F     F_    0.086030 0.210193 0.339338 -0.614968
F19   F     F_    0.586014 0.289803 0.839444 -0.614806
F20   F     F_    0.586044 0.710195 0.339337 -0.614972
F21   F     F_    0.069740 0.787664 0.297524 -0.613234
F22   F     F_    0.069685 0.212343 0.797665 -0.613376
F23   F     F_    0.569732 0.287638 0.297627 -0.613370
F24   F     F_    0.569685 0.712348 0.797703 -0.613401
Br13  Br    Br    0.666865 0.374247 0.013481 -0.125497
Br14  Br    Br    0.667051 0.625884 0.513976 -0.125152
Br15  Br    Br    0.166842 0.874266 0.013437 -0.125539
Br16  Br    Br    0.167057 0.125888 0.513996 -0.125126
Br17  Br    Br    0.336645 0.619657 0.171992 -0.242801
Br18  Br    Br    0.336662 0.380332 0.672010 -0.242840
Br19  Br    Br    0.836650 0.119655 0.172006 -0.242793
Br20  Br    Br    0.836656 0.880324 0.671983 -0.242776
F25   F     F_    0.918632 0.416748 0.771042 -0.710083
F26   F     F_    0.918542 0.583200 0.270858 -0.710163
F27   F     F_    0.418636 0.916745 0.771052 -0.710094
F28   F     F_    0.418536 0.083198 0.270847 -0.710175
F29   F     F_    0.740313 0.282690 0.421494 -0.613503
F30   F     F_    0.740300 0.717302 0.921567 -0.613551
F31   F     F_    0.240312 0.782690 0.421493 -0.613493
F32   F     F_    0.240292 0.217300 0.921567 -0.613545
Br21  Br    Br    0.284701 0.713065 0.857354 -0.293501
Br22  Br    Br    0.284744 0.286963 0.357374 -0.293548
Br23  Br    Br    0.784702 0.213065 0.857356 -0.293499
Br24  Br    Br    0.784722 0.786958 0.357387 -0.293474
Br25  Br    Br    0.005019 0.831694 0.561384 -0.193391
Br26  Br    Br    0.004818 0.168346 0.061231 -0.193038
Br27  Br    Br    0.504933 0.331680 0.561266 -0.193281
Br28  Br    Br    0.504818 0.668347 0.061245 -0.193041
Br29  Br    Br    0.111427 0.710444 0.103737 -0.376252
Br30  Br    Br    0.111453 0.289548 0.603762 -0.376413
Br31  Br    Br    0.611424 0.210421 0.103730 -0.376387
Br32  Br    Br    0.611452 0.789547 0.603764 -0.376404
F33   F     F_    0.000839 0.696284 0.276465 -0.809404
F34   F     F_    0.000828 0.303679 0.776438 -0.809365
F35   F     F_    0.500821 0.196297 0.276462 -0.809405
F36   F     F_    0.500831 0.803681 0.776441 -0.809365
F37   F     F_    0.994017 0.801824 0.045548 -0.630325
F38   F     F_    0.994278 0.198154 0.545526 -0.630215
F39   F     F_    0.494197 0.301825 0.045548 -0.630204
F40   F     F_    0.494295 0.698154 0.545540 -0.630199
F41   F     F_    0.932951 0.781916 0.238010 -0.683454
F42   F     F_    0.932882 0.218020 0.737495 -0.683480
F43   F     F_    0.432928 0.281957 0.237727 -0.683449
F44   F     F_    0.432876 0.718021 0.737481 -0.683478
F45   F     F_    0.754818 0.537300 0.164402 -0.775054
F46   F     F_    0.755016 0.462686 0.664307 -0.775334
F47   F     F_    0.254801 0.037304 0.164391 -0.775016
F48   F     F_    0.255000 0.962682 0.664300 -0.775311

loop_
_geom_bond_atom_site_label_1
_geom_bond_atom_site_label_2
_ccdc_geom_bond_type
C72   Br8   S    
O5    P5    S    
C62   F38   S    
C61   F37   S    
Ba4   O4    S    
C78   H6    S    
C37   C41   S    
C10   C14   A    
C63   F23   S    
C83   O35   S    
C78   F14   S    
C76   C80   S    
O47   P11   D    
Ba2   O13   S    
C58   P13   S    
C70   F2    S    
C48   O12   S    
C81   H9    S    
Ba4   O16   S    
O29   P1    S    
C66   H22   S    
C11   C15   A    
C2    Br26  S    
C65   H21   S    
C56   P4    S    
C45   C61   S    
C42   C58   S    
C30   C36   D    
C9    C25   A    
C12   C16   A    
C6    C54   S    
Ba3   O20   S    
C51   C55   D    
C48   Br32  S    
C43   C59   S    
C69   Br9   S    
C8    C60   A    
C29   F29   S    
C44   C60   S    
O26   P13   D    
C53   P1    S    
O14   P5    S    
C49   Br17  S    
C76   F8    S    
C17   C85   D    
C20   C88   D    
O24   P15   S    
O38   P6    D    
C63   F39   S    
Ba1   Ba2   S    
C38   C42   S    
C77   F13   S    
C41   C57   S    
C36   Br24  S    
C74   C78   S    
C79   F15   S    
O23   P16   S    
C72   F4    S    
Ba3   P7    S    
C69   F1    S    
C70   Br10  S    
Ba3   O15   S    
O42   P10   S    
C3    C83   S    
O21   P14   S    
C62   F42   S    
O1    P1    D    
O6    P6    S    
C50   Br18  S    
C61   F41   S    
C66   C70   S    
O18   P2    S    
C65   C69   S    
C46   O10   S    
O16   P7    S    
C73   C77   S    
C76   H4    S    
O22   P13   S    
C39   C43   S    
O46   P10   D    
Ba2   P2    S    
C3    F19   S    
O10   P10   S    
C68   C72   S    
C11   Br15  S    
C1    C81   S    
C64   F40   S    
O30   P2    S    
Ba1   O13   S    
O9    P9    S    
C57   P14   S    
Ba2   O38   S    
O43   P11   S    
C3    H15   S    
Ba3   O43   S    
C64   F24   S    
C84   O36   S    
C45   Br29  S    
C6    C58   A    
Ba4   O44   S    
C10   C26   A    
C87   F27   S    
C7    C55   S    
C48   F36   S    
C64   F44   S    
C84   H12   S    
C22   C30   S    
Ba4   O15   S    
C4    Br28  S    
C21   C25   A    
C71   Br7   S    
O15   P8    S    
C67   C71   S    
Ba2   O17   S    
O12   P12   S    
C23   C27   A    
O25   P14   D    
C14   C86   S    
C67   O8    S    
C24   C28   A    
C24   C32   S    
C75   F7    S    
C15   P8    S    
C79   F11   S    
Ba1   O14   S    
C78   F10   S    
C60   P15   S    
C49   C53   D    
C13   P6    S    
C1    H13   S    
C19   P12   S    
O20   P4    S    
C23   C31   S    
C35   C43   S    
C7    H19   S    
C11   C27   A    
O2    P2    D    
C59   P16   S    
Ba4   P4    S    
C4    C84   S    
C5    H17   S    
C80   H8    S    
C75   H3    S    
C62   F22   S    
Ba2   O22   S    
C71   Br11  S    
Ba2   O2    S    
C61   F21   S    
C72   Br12  S    
O17   P1    S    
Ba4   O24   S    
O45   P9    D    
C80   F16   S    
C69   Br5   S    
O8    P8    S    
O28   P15   D    
Ba1   P1    S    
C32   F32   S    
C46   F34   S    
O7    P7    S    
C68   F48   S    
Ba3   O39   S    
C18   C86   D    
C13   C85   S    
Ba1   O41   S    
C29   C35   D    
O27   P16   D    
Ba1   O37   S    
C2    H14   S    
C37   C49   S    
O31   P3    S    
Ba2   P6    S    
O34   P13   S    
C83   H11   S    
C8    C56   S    
C39   C51   S    
Ba4   O40   S    
C3    Br27  S    
C22   C26   A    
C19   C23   A    
Ba4   O19   S    
C68   O7    S    
C75   O31   S    
Ba3   O16   S    
C19   C87   D    
C16   C88   S    
C75   C79   S    
Ba3   O23   S    
C67   F47   S    
C33   C41   S    
Ba3   Ba4   S    
C82   H10   S    
O3    P3    D    
C8    H20   S    
C18   P9    S    
Ba1   O21   S    
O4    P4    D    
C65   F45   S    
C50   C54   D    
C14   P5    S    
C36   C44   S    
C17   C21   A    
C52   Br20  S    
C81   Br1   S    
Ba4   P8    S    
C31   C33   D    
Ba3   P3    S    
O44   P12   S    
C86   F26   S    
C15   C87   S    
C47   Br31  S    
C20   C24   A    
C85   F25   S    
C46   Br30  S    
O11   P11   S    
C48   C64   S    
C34   Br22  S    
C77   F9    S    
Ba3   O3    S    
C46   C62   S    
C33   Br21  S    
C2    F18   S    
C63   F43   S    
C12   C28   A    
C31   F31   S    
C45   O9    S    
C68   H24   S    
O48   P12   D    
C7    C59   A    
C51   Br19  S    
C2    C82   S    
C9    C13   A    
C4    F20   S    
C47   O11   S    
C9    Br13  S    
O36   P15   S    
C82   O34   S    
C40   C44   S    
C4    H16   S    
C47   F35   S    
C38   C50   S    
C32   C34   D    
C35   Br23  S    
C40   C52   S    
C73   H1    S    
C66   O5    S    
C80   F12   S    
O35   P16   S    
C47   C63   S    
C73   O29   S    
C77   H5    S    
C65   O6    S    
C74   H2    S    
O32   P4    S    
C30   F30   S    
C55   P3    S    
Ba1   P5    S    
O33   P14   S    
Ba2   O14   S    
O40   P8    D    
C6    H18   S    
C5    C57   A    
C5    C53   S    
C54   P2    S    
C81   O33   S    
C34   C42   S    
C84   Br4   S    
C74   O30   S    
C1    Br25  S    
C67   H23   S    
C12   Br16  S    
O39   P7    D    
C76   O32   S    
C16   P7    S    
C52   C56   D    
Ba2   O42   S    
C88   F28   S    
C17   P10   S    
C18   C22   A    
C66   F46   S    
O37   P5    D    
C1    F17   S    
C82   Br2   S    
O19   P3    S    
C10   Br14  S    
C79   H7    S    
O13   P6    S    
C74   F6    S    
C83   Br3   S    
Ba1   O1    S    
C20   P11   S    
C73   F5    S    
C21   C29   S    
C45   F33   S    
Ba1   O18   S    
O41   P9    S    
C70   Br6   S    
C71   F3    S    
