data_mof_unit_18673.cif
_audit_creation_date              2012-12-10T16:53:07-0500
_audit_creation_method            fapswitch 2.2
_symmetry_space_group_name_H-M    P1
_symmetry_Int_Tables_number       1
_space_group_crystal_system       triclinic
_cell_length_a                    10.936615
_cell_length_b                    10.933984
_cell_length_c                    9.766364
_cell_angle_alpha                 90.266183
_cell_angle_beta                  90.470796
_cell_angle_gamma                 90.434395
_cell_volume                      1167.78342664

loop_
_atom_site_label
_atom_site_type_symbol
_atom_type_description
_atom_site_fract_x
_atom_site_fract_y
_atom_site_fract_z
_atom_type_partial_charge
C1    C     C_R   0.498882 0.265429 0.499259 0.858266
C2    C     C_R   0.063090 0.529084 0.619919 0.009703
C3    C     C_R   0.128169 0.519153 0.496542 -0.180539
C4    C     C_R   0.060774 0.512068 0.372396 0.100368
C5    C     C_R   0.933781 0.519870 0.375395 0.186084
C6    C     C_R   0.872220 0.494634 0.499845 -0.194251
C7    C     C_2   0.484842 0.931088 0.387901 -0.220200
C8    C     C_2   0.487530 0.866078 0.503567 -0.349674
C9    C     C_2   0.472605 0.064788 0.386793 0.190918
C10   C     C_2   0.503072 0.132857 0.497919 -0.308927
C11   C     C_2   0.436035 0.424374 0.926017 0.272222
C12   C     C_R   0.262582 0.507651 0.499097 0.800229
C13   C     C_2   0.419748 0.442240 0.077242 -0.075952
C14   C     C_R   0.497527 0.734331 0.500496 0.856879
C15   C     C_R   0.737646 0.496430 0.500442 0.810590
C16   C     C_R   0.113361 0.582106 0.739213 -0.193765
C17   C     C_R   0.054939 0.568041 0.864308 0.159589
C18   C     C_R   0.952555 0.491401 0.872265 -0.113858
C19   C     C_R   0.896963 0.446043 0.752440 0.165025
C20   C     C_R   0.941893 0.485897 0.623275 0.009799
Cu1   Cu    Cu3+1 0.500020 0.500020 0.638630 0.942372
Cu2   Cu    Cu3+1 0.499980 0.499980 0.361370 0.947811
H1    H     H_    0.477011 0.908053 0.603408 0.152247
N1    N     N_2   0.498640 0.498660 0.846910 -0.133865
N2    N     N_2   0.498610 0.498630 0.153040 -0.316154
O1    O     O_R   0.500020 0.321960 0.617040 -0.617780
O2    O     O_R   0.499980 0.321920 0.382900 -0.525723
O3    O     O_R   0.319670 0.500020 0.617100 -0.589968
O4    O     O_R   0.319630 0.499980 0.382950 -0.595326
O5    O     O_R   0.500020 0.678080 0.617100 -0.550070
O6    O     O_R   0.499980 0.678040 0.382960 -0.581141
O7    O     O_R   0.680370 0.500020 0.617050 -0.581039
O8    O     O_R   0.680330 0.499980 0.382900 -0.552036
N3    N     N_3   0.117471 0.499298 0.241803 -0.582550
H2    H     H_    0.177160 0.572910 0.226859 0.253332
H3    H     H_    0.161787 0.415151 0.237423 0.238703
H4    H     H_    0.536862 0.091800 0.591379 0.113263
N4    N     N_3   0.380402 0.315648 0.871175 -0.605319
H5    H     H_    0.449156 0.255426 0.841993 0.232891
H6    H     H_    0.324607 0.337448 0.787914 0.264973
N5    N     N_3   0.521183 0.617993 0.893284 -0.466728
H7    H     H_    0.611197 0.625286 0.929131 0.202041
H8    H     H_    0.455501 0.649241 0.962203 0.201099
H9    H     H_    0.343365 0.397015 0.125744 0.172594
H10   H     H_    0.581619 0.518947 0.110185 0.211507
H11   H     H_    0.195523 0.637783 0.735795 0.163543
N6    N     N_3   0.103387 0.626539 0.983925 -0.609173
H12   H     H_    0.195855 0.603610 0.991810 0.218093
H13   H     H_    0.099150 0.721008 0.968807 0.214748
H14   H     H_    0.916657 0.465459 0.970826 0.159688
N7    N     N_3   0.813301 0.344771 0.765583 -0.587417
H15   H     H_    0.733881 0.374695 0.813759 0.247366
H16   H     H_    0.791174 0.306492 0.670231 0.221398
N8    N     N_3   0.867789 0.556726 0.253845 -0.555151
H17   H     H_    0.829229 0.641895 0.275264 0.208603
H18   H     H_    0.925343 0.573880 0.171692 0.253764
H19   H     H_    0.487866 0.885096 0.289107 0.172132
N9    N     N_3   0.429093 0.120794 0.263045 -0.552038
H20   H     H_    0.343277 0.083175 0.239416 0.210575
H21   H     H_    0.488616 0.097563 0.184000 0.216230

loop_
_geom_bond_atom_site_label_1
_geom_bond_atom_site_label_2
_ccdc_geom_bond_type
C2    C3    A    
C11   N4    S    
Cu1   O1    S    
N8    H18   S    
Cu2   O4    S    
N2    H10   S    
C12   O4    A    
C6    C20   A    
Cu1   O5    S    
C11   N1    D    
N6    H12   S    
C14   O6    A    
C19   C20   A    
C17   C18   A    
C6    C15   S    
C7    C8    D    
N6    H13   S    
Cu1   Cu2   S    
N4    H6    S    
N1    N5    S    
C11   C13   S    
C13   N2    D    
N4    H5    S    
C14   O5    A    
C10   H4    S    
C9    C10   D    
Cu1   O3    S    
C12   O3    A    
C18   C19   A    
N3    H3    S    
Cu2   O2    S    
C5    C6    A    
Cu1   O7    S    
C4    N3    S    
C1    O1    A    
C16   C17   A    
Cu2   O6    S    
C1    C10   S    
C2    C20   A    
N7    H15   S    
C19   N7    S    
C5    N8    S    
C15   O7    A    
C8    H1    S    
C2    C16   A    
C18   H14   S    
C7    C9    S    
N3    H2    S    
N5    H7    S    
Cu1   N1    S    
C16   H11   S    
C1    O2    A    
Cu2   O8    S    
N8    H17   S    
C9    N9    S    
C8    C14   S    
C3    C12   S    
N9    H20   S    
N9    H21   S    
C7    H19   S    
C13   H9    S    
N5    H8    S    
C3    C4    A    
C17   N6    S    
C15   O8    A    
C4    C5    A    
N7    H16   S    
Cu2   N2    S    
