data_mof_unit_5553.cif
_audit_creation_date              2012-12-10T16:56:32-0500
_audit_creation_method            fapswitch 2.2
_symmetry_space_group_name_H-M    P1
_symmetry_Int_Tables_number       1
_space_group_crystal_system       triclinic
_cell_length_a                    7.77818
_cell_length_b                    8.577142
_cell_length_c                    15.703871
_cell_angle_alpha                 90.87467
_cell_angle_beta                  85.881609
_cell_angle_gamma                 93.638767
_cell_volume                      1042.80444408

loop_
_atom_site_label
_atom_site_type_symbol
_atom_type_description
_atom_site_fract_x
_atom_site_fract_y
_atom_site_fract_z
_atom_type_partial_charge
C1    C     C_R   0.545747 0.794697 0.497808 0.961323
C2    C     C_R   0.454253 0.205302 0.502192 0.961323
C3    C     C_R   0.502159 0.500020 0.661934 0.897226
C4    C     C_R   0.497840 0.499980 0.338066 0.897226
C5    C     C_2   0.569799 0.958197 0.496556 -0.363694
C6    C     C_2   0.430201 0.041803 0.503444 -0.363694
C7    C     C_3   0.502848 0.648774 0.029171 -0.233552
C8    C     C_3   0.497152 0.351226 0.970829 -0.233552
C9    C     C_3   0.645592 0.579303 0.968657 -0.199927
C10   C     C_3   0.354408 0.420697 0.031343 -0.199927
C11   C     C_1   0.506427 0.499505 0.750705 -0.138615
C12   C     C_1   0.493573 0.500494 0.249295 -0.138616
C13   C     C_3   0.362794 0.568349 0.975986 0.355967
C14   C     C_3   0.637206 0.431651 0.024014 0.355967
C15   C     C_3   0.504125 0.499583 0.916996 0.050198
C16   C     C_3   0.495875 0.500417 0.083004 0.050198
C17   C     C_1   0.506996 0.499349 0.826021 0.038702
C18   C     C_1   0.493004 0.500651 0.173978 0.038703
H1    H     H_    0.764432 0.643398 0.940996 0.217004
H2    H     H_    0.235568 0.356602 0.059004 0.217004
H3    H     H_    0.503739 0.770119 0.054853 0.188414
H4    H     H_    0.496261 0.229881 0.945148 0.188414
H5    H     H_    0.701652 0.009236 0.489984 0.183569
H6    H     H_    0.298348 0.990764 0.510016 0.183569
H7    H     H_    0.013312 0.381999 0.436405 0.199117
H8    H     H_    0.986688 0.618001 0.563595 0.199117
N1    N     N_2   0.950320 0.457950 0.477300 -0.168658
N2    N     N_2   0.049680 0.542050 0.522700 -0.168658
O1    O     O_R   0.389250 0.738570 0.505570 -0.612699
O2    O     O_R   0.610750 0.261430 0.494430 -0.612699
O3    O     O_R   0.678390 0.711630 0.491020 -0.629531
O4    O     O_R   0.321610 0.288370 0.508980 -0.629531
O5    O     O_R   0.355460 0.513480 0.630490 -0.598843
O6    O     O_R   0.644540 0.486520 0.369510 -0.598842
O7    O     O_R   0.644600 0.486540 0.615950 -0.621870
O8    O     O_R   0.355400 0.513460 0.384050 -0.621870
Zn1   Zn    Zn3+2 0.306940 0.517990 0.509710 0.969240
Zn2   Zn    Zn3+2 0.693060 0.482010 0.490290 0.969240
Br1   Br    Br    0.835124 0.331860 0.060832 -0.493371
Br2   Br    Br    0.164876 0.668140 0.939168 -0.493370

loop_
_geom_bond_atom_site_label_1
_geom_bond_atom_site_label_2
_ccdc_geom_bond_type
C7    C13   S    
C8    H4    S    
C9    C14   S    
C4    O8    A    
C4    C12   S    
H8    N2    S    
C5    H5    S    
O3    Zn2   S    
C3    O7    A    
C2    O2    A    
C6    H6    S    
C1    O1    A    
C9    C15   S    
C10   C16   S    
O4    Zn1   S    
C2    C6    S    
N2    Zn1   S    
C1    C5    S    
C2    O4    A    
C8    C10   S    
O8    Zn1   S    
O5    Zn1   S    
C8    C15   S    
C14   C16   S    
C13   C15   S    
C5    C6    D    
C4    O6    A    
H7    N1    S    
C3    O5    A    
N1    Zn2   S    
O1    Zn1   S    
C7    C9    S    
C1    O3    A    
O7    Zn2   S    
C3    C11   S    
O2    Zn2   S    
C16   C18   S    
C12   C18   T    
N1    N2    D    
C15   C17   S    
C7    C16   S    
C13   Br2   S    
C8    C14   S    
C14   Br1   S    
C7    H3    S    
C9    H1    S    
C11   C17   T    
C10   H2    S    
C10   C13   S    
O6    Zn2   S    
