data_mof_unit_12524.cif
_audit_creation_date              2012-10-26T17:12:47-0400
_audit_creation_method            fapswitch 2.2
_symmetry_space_group_name_H-M    P1
_symmetry_Int_Tables_number       1
_space_group_crystal_system       triclinic
_cell_length_a                    27.796508
_cell_length_b                    18.769608
_cell_length_c                    16.686585
_cell_angle_alpha                 89.999971
_cell_angle_beta                  62.724797
_cell_angle_gamma                 89.999958
_cell_volume                      7737.92649106

loop_
_atom_site_label
_atom_site_type_symbol
_atom_type_description
_atom_site_fract_x
_atom_site_fract_y
_atom_site_fract_z
_atom_type_partial_charge
C1    C     C_R   0.297055 0.733414 0.327906 0.820827
C2    C     C_R   0.605686 0.000065 0.481903 -0.042178
C3    C     C_R   0.701247 0.703551 0.893840 0.068747
C4    C     C_R   0.105694 0.811789 0.052531 -0.184878
C5    C     C_R   0.834977 0.098412 0.016001 -0.180135
C6    C     C_R   0.894306 0.811790 0.947468 -0.184877
C7    C     C_R   0.165022 0.098414 0.983999 -0.180136
C8    C     C_R   0.605693 0.311789 0.052531 -0.184877
C9    C     C_R   0.334977 0.598413 0.016001 -0.180134
C10   C     C_R   0.394305 0.311790 0.947469 -0.184876
C11   C     C_R   0.665023 0.598413 0.983997 -0.180135
C12   C     C_R   0.132500 0.791699 0.101831 -0.191952
C13   C     C_R   0.894312 0.500065 0.518103 -0.042176
C14   C     C_R   0.802933 0.111289 0.973330 -0.211909
C15   C     C_R   0.867500 0.791700 0.898168 -0.191955
C16   C     C_R   0.197067 0.111290 0.026670 -0.211916
C17   C     C_R   0.632500 0.291698 0.101832 -0.191954
C18   C     C_R   0.302933 0.611290 0.973330 -0.211910
C19   C     C_R   0.367498 0.291700 0.898170 -0.191956
C20   C     C_R   0.697068 0.611289 0.026668 -0.211908
C21   C     C_R   0.240863 0.693549 0.793887 -0.195473
C22   C     C_R   0.753687 0.299576 0.208616 -0.184399
C23   C     C_R   0.759136 0.693549 0.206113 -0.195474
C24   C     C_R   0.105686 0.500065 0.481904 -0.042178
C25   C     C_R   0.246311 0.299578 0.791385 -0.184402
C26   C     C_R   0.740863 0.193548 0.793887 -0.195474
C27   C     C_R   0.253688 0.799577 0.208616 -0.184402
C28   C     C_R   0.259139 0.193545 0.206112 -0.195471
C29   C     C_R   0.746312 0.799578 0.791384 -0.184402
C30   C     C_R   0.271409 0.677530 0.838645 0.067611
C31   C     C_R   0.716393 0.308792 0.174328 0.085343
C32   C     C_R   0.728591 0.677529 0.161354 0.067612
C33   C     C_R   0.283604 0.308795 0.825674 0.085341
C34   C     C_R   0.771409 0.177529 0.838645 0.067611
C35   C     C_R   0.609989 0.872395 0.458028 0.356732
C36   C     C_R   0.216394 0.808793 0.174328 0.085345
C37   C     C_R   0.228593 0.177526 0.161355 0.067615
C38   C     C_R   0.783606 0.808793 0.825672 0.085341
C39   C     C_R   0.930364 0.897469 0.063196 0.804541
C40   C     C_R   0.075285 0.095572 0.931921 0.811671
C41   C     C_R   0.069636 0.897469 0.936803 0.804543
C42   C     C_R   0.924715 0.095572 0.068079 0.811671
C43   C     C_R   0.430364 0.397469 0.063197 0.804542
C44   C     C_R   0.575285 0.595572 0.931921 0.811670
C45   C     C_R   0.569636 0.397469 0.936803 0.804543
C46   C     C_R   0.389093 0.127242 0.543861 0.352543
C47   C     C_R   0.424715 0.595572 0.068079 0.811669
C48   C     C_R   0.055466 0.629331 0.478026 -0.013579
C49   C     C_R   0.945024 0.370774 0.519961 0.079264
C50   C     C_R   0.944530 0.629330 0.521987 -0.013579
C51   C     C_R   0.054974 0.370774 0.480045 0.079263
C52   C     C_R   0.555466 0.129330 0.478025 -0.013582
C53   C     C_R   0.445024 0.870774 0.519961 0.079266
C54   C     C_R   0.444530 0.129330 0.521987 -0.013579
C55   C     C_R   0.554974 0.870774 0.480045 0.079263
C56   C     C_R   0.027649 0.693941 0.487757 -0.213660
C57   C     C_R   0.390009 0.872395 0.541976 0.356739
C58   C     C_R   0.972376 0.306154 0.512006 -0.198366
C59   C     C_R   0.972346 0.693941 0.512260 -0.213648
C60   C     C_R   0.027622 0.306154 0.488000 -0.198366
C61   C     C_R   0.527649 0.193941 0.487756 -0.213660
C62   C     C_R   0.472377 0.806154 0.512006 -0.198359
C63   C     C_R   0.472346 0.193940 0.512260 -0.213648
C64   C     C_R   0.527622 0.806154 0.487999 -0.198370
C65   C     C_R   0.972850 0.564828 0.508033 0.031387
C66   C     C_R   0.026993 0.435369 0.492648 -0.009539
C67   C     C_R   0.027146 0.564828 0.491979 0.031391
C68   C     C_R   0.610904 0.127243 0.456147 0.352550
C69   C     C_R   0.973005 0.435368 0.507359 -0.009535
C70   C     C_R   0.472850 0.064828 0.508032 0.031387
C71   C     C_R   0.526993 0.935369 0.492648 -0.009539
C72   C     C_R   0.527146 0.064828 0.491978 0.031390
C73   C     C_R   0.473005 0.935368 0.507359 -0.009542
C74   C     C_R   0.446226 0.000087 0.513451 -0.061905
C75   C     C_R   0.553771 0.000087 0.486557 -0.061905
C76   C     C_R   0.946226 0.500087 0.513451 -0.061904
C77   C     C_R   0.053771 0.500087 0.486558 -0.061905
C78   C     C_R   0.368201 0.934827 0.521598 -0.056178
C79   C     C_R   0.109989 0.372395 0.458028 0.356733
C80   C     C_R   0.631722 0.065270 0.478661 0.035188
C81   C     C_R   0.631797 0.934827 0.478406 -0.056175
C82   C     C_R   0.368276 0.065270 0.521344 0.035187
C83   C     C_R   0.868201 0.434827 0.521598 -0.056172
C84   C     C_R   0.131721 0.565271 0.478662 0.035190
C85   C     C_R   0.131797 0.434827 0.478406 -0.056175
C86   C     C_R   0.868276 0.565270 0.521344 0.035189
C87   C     C_R   0.323019 0.934995 0.502456 -0.112061
C88   C     C_R   0.677031 0.065043 0.497411 -0.093145
C89   C     C_R   0.676980 0.934995 0.497546 -0.112062
C90   C     C_R   0.889092 0.627242 0.543862 0.352541
C91   C     C_R   0.322968 0.065043 0.502591 -0.093144
C92   C     C_R   0.823019 0.434995 0.502456 -0.112061
C93   C     C_R   0.177031 0.565043 0.497411 -0.093145
C94   C     C_R   0.176980 0.434995 0.497547 -0.112062
C95   C     C_R   0.822968 0.565043 0.502591 -0.093143
C96   C     C_R   0.301925 0.000016 0.492179 -0.289643
C97   C     C_R   0.698074 0.000016 0.507822 -0.289643
C98   C     C_R   0.801926 0.500016 0.492179 -0.289643
C99   C     C_R   0.198074 0.500016 0.507822 -0.289643
C100  C     C_3   0.080723 0.793218 0.785624 -0.335563
C101  C     C_R   0.890009 0.372395 0.541976 0.356725
C102  C     C_3   0.074144 0.850424 0.724449 -0.255286
C103  C     C_3   0.061922 0.817168 0.652020 -0.880370
C104  C     C_3   0.917867 0.207552 0.203407 -0.349483
C105  C     C_3   0.924073 0.287910 0.215506 -0.366236
C106  C     C_3   0.969362 0.302161 0.241013 -0.840038
C107  C     C_3   0.919277 0.793219 0.214377 -0.335560
C108  C     C_3   0.925856 0.850425 0.275552 -0.255284
C109  C     C_3   0.938077 0.817170 0.347981 -0.880373
C110  C     C_3   0.082133 0.207545 0.796586 -0.349477
C111  C     C_3   0.075930 0.287899 0.784459 -0.366117
C112  C     C_R   0.702235 0.265942 0.672453 0.796687
C113  C     C_R   0.110904 0.627243 0.456148 0.352549
C114  C     C_3   0.030624 0.302135 0.758978 -0.839836
C115  C     C_3   0.580723 0.293219 0.785623 -0.335561
C116  C     C_3   0.574144 0.350425 0.724448 -0.255283
C117  C     C_3   0.561923 0.317170 0.652019 -0.880374
C118  C     C_3   0.417868 0.707548 0.203408 -0.349479
C119  C     C_3   0.424065 0.787902 0.215539 -0.366069
C120  C     C_3   0.469397 0.802146 0.240963 -0.839799
C121  C     C_3   0.419278 0.293220 0.214377 -0.335562
C122  C     C_3   0.425855 0.350426 0.275552 -0.255285
C123  C     C_3   0.438076 0.317171 0.347982 -0.880375
C124  C     C_R   0.205597 0.743617 0.968591 -0.000572
C125  C     C_3   0.582133 0.707545 0.796587 -0.349479
C126  C     C_3   0.575929 0.787899 0.784461 -0.366115
C127  C     C_3   0.530629 0.802133 0.758965 -0.839847
C128  C     C_3   0.328363 0.649120 0.779304 -0.400463
C129  C     C_3   0.372236 0.701241 0.774342 -0.290923
C130  C     C_3   0.428721 0.672588 0.712988 -0.861759
C131  C     C_3   0.673902 0.366594 0.220765 -0.381153
C132  C     C_3   0.674766 0.427525 0.158488 -0.333048
C133  C     C_3   0.619129 0.463102 0.195918 -0.864811
C134  C     C_3   0.671637 0.649120 0.220694 -0.400470
C135  C     C_R   0.764939 0.215395 0.064123 -0.000085
C136  C     C_3   0.627764 0.701239 0.225652 -0.290917
C137  C     C_3   0.571280 0.672582 0.287000 -0.861746
C138  C     C_3   0.326096 0.366596 0.779236 -0.381151
C139  C     C_3   0.325234 0.427528 0.841512 -0.333049
C140  C     C_3   0.380871 0.463103 0.804080 -0.864811
C141  C     C_3   0.828363 0.149121 0.779304 -0.400465
C142  C     C_3   0.872235 0.201243 0.774344 -0.290921
C143  C     C_3   0.928721 0.172590 0.712993 -0.861755
C144  C     C_3   0.173902 0.866595 0.220766 -0.381154
C145  C     C_3   0.174765 0.927526 0.158488 -0.333051
C146  C     C_R   0.794403 0.743617 0.031408 -0.000570
C147  C     C_3   0.119128 0.963102 0.195919 -0.864811
C148  C     C_3   0.171641 0.149111 0.220698 -0.400474
C149  C     C_3   0.127764 0.201230 0.225672 -0.290918
C150  C     C_3   0.071282 0.172573 0.287037 -0.861758
C151  C     C_3   0.826098 0.866595 0.779233 -0.381152
C152  C     C_3   0.825235 0.927527 0.841510 -0.333050
C153  C     C_3   0.880871 0.963103 0.804078 -0.864809
C154  C     C_R   0.235058 0.215398 0.935880 -0.000083
C155  C     C_R   0.705597 0.243616 0.968592 -0.000571
C156  C     C_R   0.264940 0.715396 0.064122 -0.000085
C157  C     C_R   0.294402 0.243618 0.031410 -0.000571
C158  C     C_R   0.735060 0.715396 0.935876 -0.000085
C159  C     C_R   0.251161 0.697817 0.930735 0.009123
C160  C     C_R   0.702945 0.733415 0.672094 0.820841
C161  C     C_R   0.720847 0.264244 0.101065 0.006234
C162  C     C_R   0.748840 0.697816 0.069263 0.009124
C163  C     C_R   0.279150 0.264246 0.898938 0.006232
C164  C     C_R   0.751160 0.197816 0.930736 0.009122
C165  C     C_R   0.220848 0.764245 0.101064 0.006236
C166  C     C_R   0.248839 0.197816 0.069266 0.009123
C167  C     C_R   0.779152 0.764245 0.898934 0.006233
C168  C     C_R   0.274260 0.675323 0.986874 0.043698
C169  C     C_R   0.686311 0.268018 0.058486 0.041554
C170  C     C_R   0.725741 0.675322 0.013124 0.043695
C171  C     C_R   0.297765 0.265942 0.327547 0.796690
C172  C     C_R   0.313687 0.268020 0.941517 0.041554
C173  C     C_R   0.774259 0.175322 0.986875 0.043697
C174  C     C_R   0.186312 0.768019 0.058485 0.041554
C175  C     C_R   0.225739 0.175324 0.013128 0.043702
C176  C     C_R   0.813689 0.768019 0.941514 0.041554
C177  C     C_R   0.131196 0.806850 0.957763 0.038868
C178  C     C_R   0.838444 0.149084 0.075295 0.039714
C179  C     C_R   0.868804 0.806850 0.042236 0.038868
C180  C     C_R   0.161555 0.149087 0.924706 0.039718
C181  C     C_R   0.631195 0.306849 0.957763 0.038867
C182  C     C_R   0.797055 0.233415 0.327906 0.820853
C183  C     C_R   0.338444 0.649085 0.075295 0.039717
C184  C     C_R   0.368804 0.306850 0.042237 0.038868
C185  C     C_R   0.661556 0.649086 0.924705 0.039715
C186  C     C_R   0.107633 0.835328 0.904492 -0.170936
C187  C     C_R   0.878176 0.146101 0.107703 -0.158694
C188  C     C_R   0.892367 0.835328 0.095508 -0.170936
C189  C     C_R   0.121823 0.146102 0.892297 -0.158695
C190  C     C_R   0.607633 0.335328 0.904492 -0.170936
C191  C     C_R   0.378176 0.646101 0.107703 -0.158695
C192  C     C_R   0.392367 0.335328 0.095508 -0.170936
C193  C     C_R   0.202235 0.765942 0.672453 0.796689
C194  C     C_R   0.621823 0.646102 0.892297 -0.158697
C195  C     C_R   0.124036 0.807708 0.816725 0.031813
C196  C     C_R   0.871624 0.191290 0.180345 0.009975
C197  C     C_R   0.875964 0.807708 0.183275 0.031811
C198  C     C_R   0.128375 0.191291 0.819655 0.009955
C199  C     C_R   0.624035 0.307708 0.816725 0.031812
C200  C     C_R   0.371625 0.691290 0.180346 0.009948
C201  C     C_R   0.375964 0.307708 0.183275 0.031812
C202  C     C_R   0.628375 0.691291 0.819655 0.009956
C203  C     C_R   0.174114 0.770729 0.773458 -0.163650
C204  C     C_R   0.202945 0.233415 0.672094 0.820836
C205  C     C_R   0.821557 0.225919 0.228129 -0.139471
C206  C     C_R   0.825886 0.770729 0.226542 -0.163649
C207  C     C_R   0.178442 0.225921 0.771871 -0.139465
C208  C     C_R   0.674114 0.270729 0.773458 -0.163648
C209  C     C_R   0.321557 0.725920 0.228129 -0.139461
C210  C     C_R   0.325886 0.270728 0.226542 -0.163650
C211  C     C_R   0.678442 0.725921 0.771871 -0.139467
C212  C     C_R   0.198497 0.743781 0.826800 0.000974
C213  C     C_R   0.791234 0.243471 0.181538 0.015338
C214  C     C_R   0.801503 0.743781 0.173199 0.000975
C215  C     C_R   0.797765 0.765942 0.327547 0.796690
C216  C     C_R   0.208764 0.243473 0.818464 0.015337
C217  C     C_R   0.698496 0.243780 0.826801 0.000974
C218  C     C_R   0.291235 0.743472 0.181537 0.015337
C219  C     C_R   0.301504 0.243780 0.173200 0.000973
C220  C     C_R   0.708765 0.743473 0.818463 0.015338
C221  C     C_R   0.201151 0.631231 0.511398 0.848287
C222  C     C_R   0.798979 0.368798 0.488203 0.802771
C223  C     C_R   0.798849 0.631231 0.488602 0.848290
C224  C     C_R   0.201020 0.368798 0.511798 0.802753
C225  C     C_R   0.701151 0.131231 0.511398 0.848286
C226  C     C_R   0.394312 0.000065 0.518103 -0.042179
C227  C     C_R   0.298979 0.868798 0.488203 0.802744
C228  C     C_R   0.298849 0.131231 0.488603 0.848288
C229  C     C_R   0.701021 0.868798 0.511798 0.802756
C230  C     C_R   0.178627 0.765098 0.917260 0.067846
C231  C     C_R   0.798752 0.203549 0.106160 0.068749
C232  C     C_R   0.821373 0.765098 0.082740 0.067846
C233  C     C_R   0.201245 0.203552 0.893842 0.068749
C234  C     C_R   0.678626 0.265097 0.917260 0.067846
C235  C     C_R   0.298753 0.703551 0.106160 0.068747
C236  C     C_R   0.321373 0.265098 0.082741 0.067846
Cu1   Cu    Cu3+1 0.209920 0.785290 0.495070 0.932489
Cu2   Cu    Cu3+1 0.504760 0.500000 0.075850 0.891847
Cu3   Cu    Cu3+1 0.995240 0.000000 0.924150 0.891845
Cu4   Cu    Cu3+1 0.004760 0.000000 0.075850 0.891848
Cu5   Cu    Cu3+1 0.790080 0.214710 0.504930 0.947394
Cu6   Cu    Cu3+1 0.790080 0.785290 0.504930 0.932494
Cu7   Cu    Cu3+1 0.209920 0.214710 0.495070 0.947392
Cu8   Cu    Cu3+1 0.709920 0.285290 0.495070 0.932494
Cu9   Cu    Cu3+1 0.290080 0.714710 0.504930 0.947395
Cu10  Cu    Cu3+1 0.290080 0.285290 0.504930 0.932496
Cu11  Cu    Cu3+1 0.709920 0.714710 0.495070 0.947392
Cu12  Cu    Cu3+1 0.495240 0.500000 0.924150 0.891845
H1    H     H_    0.548317 0.755694 0.479478 0.177558
H2    H     H_    0.731551 0.000012 0.524213 0.184237
H3    H     H_    0.542649 0.691107 0.852113 0.208323
H4    H     H_    0.436099 0.622641 0.741361 0.254110
H5    H     H_    0.433255 0.661889 0.644414 0.248745
H6    H     H_    0.459471 0.712561 0.707351 0.246532
H7    H     H_    0.366941 0.753217 0.747389 0.247805
H8    H     H_    0.369121 0.710596 0.842198 0.224434
H9    H     H_    0.334780 0.595571 0.798991 0.192986
H10   H     H_    0.334777 0.641548 0.708934 0.197482
H11   H     H_    0.587750 0.423930 0.201821 0.255213
H12   H     H_    0.607900 0.486184 0.263489 0.244332
H13   H     H_    0.768450 0.500012 0.475786 0.184236
H14   H     H_    0.619517 0.506161 0.150292 0.241904
H15   H     H_    0.705347 0.467604 0.153929 0.194495
H16   H     H_    0.686775 0.409143 0.088798 0.237848
H17   H     H_    0.633569 0.342077 0.258929 0.181099
H18   H     H_    0.679632 0.392305 0.275872 0.171751
H19   H     H_    0.563905 0.622632 0.258627 0.254109
H20   H     H_    0.566742 0.661888 0.355577 0.248742
H21   H     H_    0.540529 0.712552 0.292629 0.246523
H22   H     H_    0.633057 0.753214 0.252609 0.247799
H23   H     H_    0.630881 0.710595 0.157795 0.224437
H24   H     H_    0.231551 0.500012 0.524213 0.184237
H25   H     H_    0.665222 0.595569 0.201007 0.192986
H26   H     H_    0.665222 0.641549 0.291064 0.197483
H27   H     H_    0.412249 0.423930 0.798178 0.255213
H28   H     H_    0.392099 0.486185 0.736510 0.244332
H29   H     H_    0.380483 0.506163 0.849706 0.241904
H30   H     H_    0.294653 0.467607 0.846070 0.194495
H31   H     H_    0.313224 0.409145 0.911202 0.237848
H32   H     H_    0.366429 0.342078 0.741072 0.181098
H33   H     H_    0.320366 0.392307 0.724129 0.171752
H34   H     H_    0.936099 0.122646 0.741370 0.254111
H35   H     H_    0.063861 0.827651 0.090422 0.158989
H36   H     H_    0.933256 0.161889 0.644419 0.248745
H37   H     H_    0.959470 0.212565 0.707356 0.246531
H38   H     H_    0.866940 0.253218 0.747389 0.247805
H39   H     H_    0.869119 0.210600 0.842200 0.224434
H40   H     H_    0.834781 0.095572 0.798991 0.192987
H41   H     H_    0.834778 0.141548 0.708934 0.197481
H42   H     H_    0.087750 0.923929 0.201818 0.255214
H43   H     H_    0.107898 0.986182 0.263491 0.244334
H44   H     H_    0.119517 0.006162 0.150294 0.241906
H45   H     H_    0.205346 0.967606 0.153931 0.194494
H46   H     H_    0.855113 0.047491 0.004161 0.174342
H47   H     H_    0.186775 0.909144 0.088799 0.237847
H48   H     H_    0.133569 0.842077 0.258929 0.181100
H49   H     H_    0.179632 0.892305 0.275873 0.171750
H50   H     H_    0.063899 0.122630 0.258662 0.254106
H51   H     H_    0.066756 0.161867 0.355604 0.248741
H52   H     H_    0.040529 0.212547 0.292692 0.246541
H53   H     H_    0.133061 0.253205 0.252623 0.247811
H54   H     H_    0.130873 0.210585 0.157820 0.224434
H55   H     H_    0.165225 0.095563 0.201007 0.192988
H56   H     H_    0.165230 0.141533 0.291065 0.197480
H57   H     H_    0.936139 0.827651 0.909577 0.158989
H58   H     H_    0.912250 0.923930 0.798176 0.255212
H59   H     H_    0.892100 0.986184 0.736508 0.244333
H60   H     H_    0.880483 0.006162 0.849704 0.241903
H61   H     H_    0.794653 0.967606 0.846068 0.194495
H62   H     H_    0.813225 0.909144 0.911200 0.237848
H63   H     H_    0.866431 0.842077 0.741070 0.181099
H64   H     H_    0.820368 0.892305 0.724126 0.171752
H65   H     H_    0.144887 0.047492 0.995837 0.174341
H66   H     H_    0.563860 0.327651 0.090422 0.158989
H67   H     H_    0.355113 0.547492 0.004162 0.174341
H68   H     H_    0.436138 0.327652 0.909578 0.158989
H69   H     H_    0.452152 0.244647 0.519604 0.143249
H70   H     H_    0.644887 0.547492 0.995837 0.174341
H71   H     H_    0.109542 0.791973 0.173857 0.144624
H72   H     H_    0.797846 0.069025 0.934451 0.143829
H73   H     H_    0.890459 0.791974 0.826142 0.144623
H74   H     H_    0.202155 0.069025 0.065546 0.143829
H75   H     H_    0.609541 0.291973 0.173858 0.144623
H76   H     H_    0.297846 0.569026 0.934452 0.143830
H77   H     H_    0.390456 0.291974 0.826144 0.144623
H78   H     H_    0.702155 0.569025 0.065546 0.143830
H79   H     H_    0.250675 0.663531 0.733554 0.172083
H80   H     H_    0.451682 0.755694 0.520525 0.177560
H81   H     H_    0.753853 0.338077 0.256670 0.153933
H82   H     H_    0.749324 0.663531 0.266446 0.172084
H83   H     H_    0.246145 0.338079 0.743331 0.153934
H84   H     H_    0.750675 0.163531 0.733553 0.172084
H85   H     H_    0.253854 0.838078 0.256670 0.153933
H86   H     H_    0.249330 0.163527 0.266444 0.172079
H87   H     H_    0.746145 0.838079 0.743330 0.153933
H88   H     H_    0.679181 0.837974 0.367563 0.327578
H89   H     H_    0.371386 0.207282 0.627903 0.310820
H90   H     H_    0.320817 0.837973 0.632439 0.327578
H91   H     H_    0.547842 0.244648 0.480415 0.143244
H92   H     H_    0.628606 0.207290 0.372114 0.310809
H93   H     H_    0.179181 0.337974 0.367563 0.327578
H94   H     H_    0.871386 0.707284 0.627900 0.310822
H95   H     H_    0.820817 0.337973 0.632439 0.327578
H96   H     H_    0.128606 0.707292 0.372119 0.310818
H97   H     H_    0.095359 0.781923 0.606784 0.293675
H98   H     H_    0.023948 0.785550 0.684021 0.239866
H99   H     H_    0.056683 0.859904 0.610657 0.222146
H100  H     H_    0.038971 0.885052 0.764794 0.217740
H101  H     H_    0.110363 0.885221 0.692569 0.237157
H102  H     H_    0.048317 0.255694 0.479479 0.177563
H103  H     H_    0.089439 0.740514 0.751243 0.189464
H104  H     H_    0.040801 0.785540 0.845720 0.151337
H105  H     H_    0.959543 0.277007 0.306976 0.257352
H106  H     H_    0.008415 0.280832 0.188569 0.251762
H107  H     H_    0.973663 0.360457 0.247127 0.245176
H108  H     H_    0.933367 0.316142 0.151479 0.215946
H109  H     H_    0.886312 0.310844 0.269296 0.215249
H110  H     H_    0.911923 0.177671 0.264653 0.224340
H111  H     H_    0.957350 0.191105 0.147887 0.208328
H112  H     H_    0.904639 0.781928 0.393219 0.293677
H113  H     H_    0.952152 0.744647 0.519604 0.143246
H114  H     H_    0.976050 0.785549 0.315982 0.239867
H115  H     H_    0.943318 0.859906 0.389342 0.222146
H116  H     H_    0.961028 0.885053 0.235207 0.217740
H117  H     H_    0.889636 0.885222 0.307431 0.237156
H118  H     H_    0.910561 0.740514 0.248758 0.189465
H119  H     H_    0.959199 0.785541 0.154281 0.151336
H120  H     H_    0.040425 0.276952 0.693023 0.257282
H121  H     H_    0.991566 0.280825 0.811460 0.251703
H122  H     H_    0.026332 0.360431 0.752834 0.245153
H123  H     H_    0.066651 0.316150 0.848476 0.215892
H124  H     H_    0.951682 0.255694 0.520526 0.177561
H125  H     H_    0.113691 0.310820 0.730638 0.215220
H126  H     H_    0.088076 0.177649 0.735350 0.224329
H127  H     H_    0.042649 0.191107 0.852114 0.208326
H128  H     H_    0.595360 0.281924 0.606784 0.293676
H129  H     H_    0.523948 0.285553 0.684019 0.239865
H130  H     H_    0.556685 0.359905 0.610654 0.222147
H131  H     H_    0.538972 0.385053 0.764793 0.217740
H132  H     H_    0.610364 0.385222 0.692569 0.237157
H133  H     H_    0.589438 0.240514 0.751243 0.189464
H134  H     H_    0.540801 0.285542 0.845719 0.151337
H135  H     H_    0.047842 0.744648 0.480417 0.143241
H136  H     H_    0.459630 0.776944 0.306896 0.257252
H137  H     H_    0.508452 0.780862 0.188438 0.251691
H138  H     H_    0.473676 0.860441 0.247130 0.245151
H139  H     H_    0.433315 0.816163 0.151536 0.215876
H140  H     H_    0.386308 0.810809 0.269398 0.215211
H141  H     H_    0.411930 0.677652 0.264641 0.224316
H142  H     H_    0.457351 0.691115 0.147874 0.208332
H143  H     H_    0.404639 0.281928 0.393220 0.293678
H144  H     H_    0.476050 0.285551 0.315983 0.239867
H145  H     H_    0.443317 0.359907 0.389343 0.222147
H146  H     H_    0.268450 0.000012 0.475786 0.184237
H147  H     H_    0.461027 0.385054 0.235208 0.217740
H148  H     H_    0.389636 0.385223 0.307431 0.237157
H149  H     H_    0.410562 0.240515 0.248758 0.189465
H150  H     H_    0.459200 0.285542 0.154281 0.151336
H151  H     H_    0.540434 0.776947 0.693012 0.257288
H152  H     H_    0.491569 0.780825 0.811443 0.251704
H153  H     H_    0.526339 0.860429 0.752815 0.245155
H154  H     H_    0.566643 0.816149 0.848482 0.215891
H155  H     H_    0.613692 0.810823 0.730648 0.215216
H156  H     H_    0.588076 0.677650 0.735350 0.224331
O1    O     O_R   0.255040 0.869590 0.478480 -0.600610
O2    O     O_R   0.817950 0.203450 0.375560 -0.582984
O3    O     O_R   0.817950 0.796550 0.375560 -0.579234
O4    O     O_R   0.182050 0.203450 0.624440 -0.582987
O5    O     O_R   0.682050 0.296550 0.624440 -0.579234
O6    O     O_R   0.317950 0.703450 0.375560 -0.582991
O7    O     O_R   0.317950 0.296550 0.375560 -0.579235
O8    O     O_R   0.682050 0.703450 0.624440 -0.582986
O9    O     O_R   0.250530 0.763330 0.367210 -0.564617
O10   O     O_R   0.749470 0.236670 0.632790 -0.587230
O11   O     O_R   0.749470 0.763330 0.632790 -0.564616
O12   O     O_R   0.744960 0.130410 0.521520 -0.606427
O13   O     O_R   0.250530 0.236670 0.367210 -0.587225
O14   O     O_R   0.750530 0.263330 0.367210 -0.564620
O15   O     O_R   0.249470 0.736670 0.632790 -0.587228
O16   O     O_R   0.249470 0.263330 0.632790 -0.564615
O17   O     O_R   0.750530 0.736670 0.367210 -0.587229
O18   O     O_R   0.177260 0.690030 0.513710 -0.547363
O19   O     O_R   0.822740 0.309970 0.486290 -0.547273
O20   O     O_R   0.822740 0.690030 0.486290 -0.547358
O21   O     O_R   0.177260 0.309970 0.513710 -0.547276
O22   O     O_R   0.677260 0.190030 0.513710 -0.547360
O23   O     O_R   0.744960 0.869590 0.521520 -0.600611
O24   O     O_R   0.322740 0.809970 0.486290 -0.547279
O25   O     O_R   0.322740 0.190030 0.486290 -0.547357
O26   O     O_R   0.677260 0.809970 0.513710 -0.547275
O27   O     O_R   0.051640 0.926880 0.885090 -0.594325
O28   O     O_R   0.948360 0.073120 0.114910 -0.584942
O29   O     O_R   0.948360 0.926880 0.114910 -0.594325
O30   O     O_R   0.051640 0.073120 0.885090 -0.584944
O31   O     O_R   0.551640 0.426880 0.885090 -0.594325
O32   O     O_R   0.448360 0.573120 0.114910 -0.584940
O33   O     O_R   0.448360 0.426880 0.114910 -0.594325
O34   O     O_R   0.255040 0.130410 0.478480 -0.606429
O35   O     O_R   0.551640 0.573120 0.885090 -0.584944
O36   O     O_R   0.940620 0.926560 0.986760 -0.599388
O37   O     O_R   0.059380 0.073440 0.013240 -0.587765
O38   O     O_R   0.059380 0.926560 0.013240 -0.599388
O39   O     O_R   0.940620 0.073440 0.986760 -0.587766
O40   O     O_R   0.440620 0.426560 0.986760 -0.599388
O41   O     O_R   0.559380 0.573440 0.013240 -0.587764
O42   O     O_R   0.559380 0.426560 0.013240 -0.599388
O43   O     O_R   0.440620 0.573440 0.986760 -0.587766
O44   O     O_3   0.642170 0.818540 0.403303 -0.720962
O45   O     O_R   0.755040 0.369590 0.478480 -0.600613
O46   O     O_3   0.353479 0.178140 0.599790 -0.703383
O47   O     O_3   0.357828 0.818539 0.596701 -0.720962
O48   O     O_3   0.646517 0.178140 0.400215 -0.703368
O49   O     O_3   0.142170 0.318540 0.403303 -0.720962
O50   O     O_3   0.853478 0.678140 0.599790 -0.703385
O51   O     O_3   0.857828 0.318539 0.596701 -0.720964
O52   O     O_3   0.146517 0.678139 0.400215 -0.703377
O53   O     O_R   0.244960 0.630410 0.521520 -0.606425
O54   O     O_R   0.244960 0.369590 0.521520 -0.600611
O55   O     O_R   0.755040 0.630410 0.478480 -0.606428
O56   O     O_R   0.182050 0.796550 0.624440 -0.579234

loop_
_geom_bond_atom_site_label_1
_geom_bond_atom_site_label_2
_ccdc_geom_bond_type
C78   C226  A    
C20   C170  A    
C31   C161  A    
C126  C127  S    
C44   O41   A    
C10   C184  A    
C4    C177  A    
C68   O48   S    
C147  H43   S    
C211  C220  A    
C150  H50   S    
C171  O7    A    
C50   C59   A    
C135  C173  A    
C139  H31   S    
C52   C61   A    
Cu5   O10   S    
C148  H55   S    
C16   H74   S    
C54   C63   A    
C156  C235  A    
C58   C60   A    
C171  O13   A    
C99   H24   S    
Cu9   O6    S    
C4    H35   S    
Cu11  O55   S    
C108  C109  S    
C61   C63   A    
C110  C111  S    
C62   C64   A    
C227  O24   A    
H89   O46   S    
C107  H119  S    
C50   C90   A    
C146  C176  A    
Cu7   O13   S    
C3    C158  A    
C120  H136  S    
C4    C12   A    
C24   C85   A    
C123  H145  S    
C141  H40   S    
C88   C97   A    
C206  C214  A    
Cu8   O22   S    
C49   C69   A    
C182  O14   A    
C216  C233  A    
C197  C206  A    
C43   O40   A    
C103  H97   S    
C104  C105  S    
C190  C199  A    
C127  H152  S    
C38   C167  A    
C125  C202  S    
C152  H62   S    
Cu7   O34   S    
C145  H47   S    
C71   C73   A    
C137  H21   S    
C215  O3    A    
C179  C188  A    
C82   C91   A    
C51   C66   A    
C52   C72   A    
C181  C190  A    
C186  C195  A    
Cu2   O41   S    
Cu3   O39   S    
C54   C70   A    
C129  H8    S    
C126  H154  S    
Cu1   Cu9   S    
C164  C173  A    
C191  C200  A    
C163  C172  A    
C115  H134  S    
C21   H79   S    
C132  H15   S    
C120  H138  S    
C130  H6    S    
C16   C175  A    
H93   O49   S    
C229  O23   A    
C149  H53   S    
Cu5   O12   S    
Cu6   O11   S    
C15   H73   S    
C79   C85   A    
C12   C174  A    
C21   C30   A    
C208  C217  A    
C66   C77   A    
C117  H129  S    
C104  H111  S    
C6    C179  A    
C138  H32   S    
C57   C78   A    
C8    C17   A    
C144  C145  S    
C118  H142  S    
C26   H84   S    
C139  C140  S    
C131  H17   S    
C222  O45   A    
C28   H86   S    
C200  C209  A    
C193  C203  S    
C56   C59   A    
C36   C144  S    
C106  H105  S    
C121  C201  S    
C80   C88   A    
C5    H46   S    
C144  H48   S    
Cu3   O27   S    
C138  H33   S    
C207  C216  A    
C114  H122  S    
C84   C93   A    
C48   C67   A    
C41   O27   A    
C86   C95   A    
C121  H149  S    
C24   C77   A    
C195  C203  A    
C27   C218  A    
C2    C81   A    
C23   H82   S    
C55   C71   A    
C2    C75   A    
C128  H10   S    
C42   C187  S    
Cu3   O30   S    
C34   C141  S    
C151  H63   S    
C91   C228  S    
C29   H87   S    
C202  C211  A    
C160  O11   A    
C118  C200  S    
C128  C129  S    
C119  H140  S    
C82   C226  A    
C229  O26   A    
C118  H141  S    
Cu9   O53   S    
C156  C165  A    
C33   C163  A    
C218  C235  A    
C14   C173  A    
C34   C164  A    
C180  C189  A    
C124  C174  A    
C156  C168  A    
C115  C116  S    
C69   C76   A    
C85   C94   A    
C31   C131  S    
C116  H132  S    
C39   O29   A    
C106  H107  S    
C181  C234  A    
C133  H12   S    
C3    C220  A    
C27   H85   S    
C32   C162  A    
C29   C38   A    
Cu1   O1    S    
C107  C108  S    
C136  H23   S    
C213  C231  A    
Cu2   O32   S    
C142  H39   S    
C161  C169  A    
Cu7   Cu10  S    
C1    O9    A    
C91   C96   A    
Cu10  O7    S    
C37   C148  S    
C87   C96   A    
C94   C224  S    
H88   O44   S    
Cu8   O5    S    
C72   C75   A    
C3    C185  A    
C113  O52   S    
C47   O43   A    
C30   C159  A    
C204  O16   A    
C70   C72   A    
C100  H104  S    
C1    C209  S    
C125  H3    S    
C19   C172  A    
C192  C201  A    
C177  C230  A    
C153  H58   S    
C158  C170  A    
C111  H123  S    
C165  C174  A    
C115  C199  S    
C95   C223  S    
C210  C219  A    
C120  H137  S    
C222  O19   A    
C224  O54   A    
C35   O44   S    
C79   O49   S    
C126  H155  S    
C11   H70   S    
C109  H114  S    
C110  H126  S    
H90   O47   S    
C215  O17   A    
C193  O56   A    
C39   C188  S    
Cu3   O36   S    
C43   C192  S    
Cu12  O35   S    
C38   C151  S    
C129  C130  S    
C56   H135  S    
C147  H44   S    
C160  C211  S    
C83   C101  A    
C198  C207  A    
C136  C137  S    
C105  H109  S    
C104  H110  S    
C150  H51   S    
C21   C212  A    
Cu7   O21   S    
Cu5   Cu8   S    
C223  O20   A    
C179  C232  A    
C74   C226  A    
Cu9   O15   S    
C32   C134  S    
Cu10  O16   S    
C148  H56   S    
C28   C37   A    
Cu8   O14   S    
C199  C208  A    
C7    C180  A    
C102  C103  S    
C50   C65   A    
C51   C79   A    
C5    C178  A    
C17   H75   S    
C122  H148  S    
C9    C18   A    
C45   O31   A    
C152  C153  S    
C22   C213  A    
Cu2   Cu12  S    
C134  H25   S    
C135  C231  A    
C51   C60   A    
C147  H42   S    
Cu10  O25   S    
C25   C33   A    
C9    H67   S    
C206  C215  S    
C8    C181  A    
C10   H68   S    
C187  C196  A    
C110  C198  S    
C221  O53   A    
C73   C74   A    
Cu3   Cu4   S    
C102  H100  S    
C185  C194  A    
C214  C232  A    
C153  H60   S    
C62   H80   S    
C127  H151  S    
C146  C162  A    
C166  C175  A    
C65   C76   A    
C15   C176  A    
C127  H153  S    
C40   O30   A    
Cu12  O40   S    
C140  H27   S    
C112  O5    A    
C49   C101  A    
Cu6   O23   S    
C137  H20   S    
C194  C202  A    
C228  O25   A    
C48   C56   A    
Cu4   O37   S    
C184  C236  A    
Cu4   O28   S    
C144  H49   S    
Cu2   O42   S    
C29   C220  A    
C40   C189  S    
C129  H7    S    
C65   C67   A    
C125  H156  S    
C67   C77   A    
C158  C167  A    
C151  C152  S    
C184  C192  A    
C90   O50   S    
C93   C99   A    
C115  H133  S    
C123  H144  S    
C132  H16   S    
C81   C89   A    
C205  C213  A    
C42   O28   A    
C26   C217  A    
Cu8   O45   S    
C145  C147  S    
C224  O21   A    
C6    H57   S    
C1    O6    A    
C11   C20   A    
C30   C128  S    
C107  C197  S    
C171  C210  S    
C53   C57   A    
C155  C234  A    
Cu5   O2    S    
C42   O39   A    
C106  H106  S    
C9    C183  A    
C162  C170  A    
C204  C207  S    
C10   C19   A    
C46   C54   A    
C108  H116  S    
C104  C196  S    
Cu7   O4    S    
Cu9   O24   S    
C5    C14   A    
C37   C166  A    
C112  O10   A    
H94   O50   S    
C178  C187  A    
Cu6   O3    S    
C7    C16   A    
C122  H147  S    
C143  H37   S    
C28   C219  A    
C87   C227  S    
C86   C90   A    
C125  C126  S    
Cu1   O18   S    
C103  H98   S    
C18   H76   S    
C131  C132  S    
C108  H117  S    
C100  C195  S    
C152  H61   S    
C63   H69   S    
C140  H29   S    
C39   O36   A    
C217  C234  A    
C119  H139  S    
C119  C120  S    
C157  C236  A    
C97   H2    S    
C130  H4    S    
C27   C36   A    
C105  C106  S    
C13   C83   A    
C22   H81   S    
Cu1   O9    S    
C23   C32   A    
C135  C161  A    
C178  C231  A    
C149  C150  S    
C128  H9    S    
C58   H124  S    
C227  O1    A    
H96   O52   S    
C188  C197  A    
C154  C233  A    
Cu12  O31   S    
C111  C114  S    
Cu11  O26   S    
C47   C191  S    
C138  C139  S    
C177  C186  A    
C223  O55   A    
C64   H1    S    
C130  H5    S    
C133  H11   S    
C182  O2    A    
C149  H54   S    
C142  C143  S    
C193  O15   A    
C43   O33   A    
Cu2   O33   S    
C48   C113  A    
C23   C214  A    
C189  C198  A    
C68   C80   A    
C117  H130  S    
C225  O12   A    
C84   C113  A    
Cu11  O17   S    
C139  H30   S    
H95   O51   S    
C14   H72   S    
C35   C81   A    
C95   C98   A    
C92   C98   A    
C131  H18   S    
C146  C232  A    
C116  C117  S    
C83   C92   A    
C44   O35   A    
C143  H36   S    
Cu10  O54   S    
C154  C175  A    
C209  C218  A    
C157  C172  A    
C45   O42   A    
C107  H118  S    
C17   C169  A    
C19   H77   S    
C66   C69   A    
C124  C159  A    
C109  H115  S    
C114  H121  S    
C159  C168  A    
C228  O34   A    
Cu12  O43   S    
C196  C205  A    
C155  C169  A    
C118  C119  S    
C36   C165  A    
C6    C15   A    
C121  H150  S    
C26   C34   A    
C47   O32   A    
C132  C133  S    
C110  H127  S    
C41   C186  S    
C101  O51   S    
C33   C138  S    
C52   C68   A    
C111  H125  S    
C151  H64   S    
C46   C82   A    
C221  O18   A    
C70   C74   A    
C133  H14   S    
C109  H112  S    
C41   O38   A    
C22   C31   A    
C35   C55   A    
C154  C163  A    
C148  C149  S    
C112  C208  S    
C105  H108  S    
C18   C168  A    
C134  C136  S    
C7    H65   S    
Cu1   O56   S    
C150  H52   S    
C49   C58   A    
C89   C97   A    
C60   H102  S    
C13   C86   A    
Cu6   O20   S    
C116  H131  S    
C212  C230  A    
C53   C62   A    
C45   C190  S    
C88   C225  S    
C13   C76   A    
C55   C64   A    
C100  C102  S    
C121  C122  S    
C59   H113  S    
C142  H38   S    
C57   O47   S    
C96   H146  S    
C134  H26   S    
C203  C212  A    
C78   C87   A    
C201  C210  A    
C12   H71   S    
C143  H34   S    
C100  H103  S    
C8    H66   S    
C11   C185  A    
C219  C236  A    
C25   C216  A    
C53   C73   A    
C102  H101  S    
C103  H99   S    
Cu4   O29   S    
C183  C191  A    
C157  C166  A    
C180  C233  A    
C136  H22   S    
C153  H59   S    
C141  H41   S    
Cu11  O8    S    
C40   O37   A    
C155  C164  A    
C44   C194  S    
Cu6   Cu11  S    
C182  C205  S    
C140  H28   S    
C92   C222  S    
C24   C84   A    
C145  H45   S    
C141  C142  S    
C71   C75   A    
C137  H19   S    
C98   H13   S    
C20   H78   S    
C94   C99   A    
H92   O48   S    
C225  O22   A    
C46   O46   S    
Cu4   O38   S    
Cu5   O19   S    
C2    C80   A    
C204  O4    A    
C114  H120  S    
C61   H91   S    
C117  H128  S    
C183  C235  A    
C93   C221  S    
C89   C229  S    
C122  C123  S    
C160  O8    A    
C124  C230  A    
C123  H143  S    
C167  C176  A    
C25   H83   S    
