data_mof_unit_47687.cif
_audit_creation_date              2012-12-11T16:29:36-0500
_audit_creation_method            fapswitch 2.2
_symmetry_space_group_name_H-M    P1
_symmetry_Int_Tables_number       1
_space_group_crystal_system       triclinic
_cell_length_a                    6.951925
_cell_length_b                    17.287713
_cell_length_c                    18.820536
_cell_angle_alpha                 106.252536
_cell_angle_beta                  89.873014
_cell_angle_gamma                 90.596372
_cell_volume                      2171.39659343

loop_
_atom_site_label
_atom_site_type_symbol
_atom_type_description
_atom_site_fract_x
_atom_site_fract_y
_atom_site_fract_z
_atom_type_partial_charge
O1    O     O_R   0.494360 0.415680 0.413760 -0.535628
O2    O     O_R   0.818810 0.432910 0.557230 -0.526533
O3    O     O_R   0.994290 0.584320 0.586240 -0.532798
C1    C     C_R   0.649883 0.415843 0.580523 0.711843
O4    O     O_R   0.823740 0.406440 0.412520 -0.534502
O5    O     O_R   0.999250 0.557660 0.440500 -0.523167
C2    C     C_R   0.654031 0.383427 0.385173 0.698104
O6    O     O_R   0.489400 0.442340 0.559500 -0.523616
O7    O     O_3   0.662500 0.549650 0.509350 -0.359450
V1    V     V_3+5 0.935340 0.490790 0.498270 1.417514
O8    O     O_R   0.329270 0.567090 0.442770 -0.527130
C3    C     C_R   0.161134 0.584040 0.419372 0.710852
O9    O     O_R   0.324340 0.593560 0.587480 -0.535464
C4    C     C_R   0.155700 0.616417 0.615117 0.695643
V2    V     V_3+5 0.435970 0.509210 0.501730 1.412749
O10   O     O_3   0.158940 0.450350 0.490650 -0.358507
H1    H     H_    0.833664 0.846426 0.563615 0.115288
C5    C     C_R   0.313358 0.605155 0.754413 -0.141295
C6    C     C_R   0.388484 0.597263 0.820540 -0.123050
C7    C     C_R   0.374714 0.660297 0.884948 -0.121137
C8    C     C_R   0.285967 0.731774 0.883725 -0.130613
C9    C     C_R   0.210848 0.742226 0.817173 0.070431
C10   C     C_R   0.224572 0.677425 0.751058 0.068999
C11   C     C_R   0.119219 0.814943 0.816179 -0.188406
C12   C     C_R   0.040816 0.822561 0.748896 0.069470
C13   C     C_R   0.054537 0.757760 0.682781 0.070346
C14   C     C_R   0.146163 0.685039 0.683773 -0.188921
C15   C     C_R   0.952014 0.894831 0.745549 -0.142581
C16   C     C_R   0.876856 0.902721 0.679427 -0.122934
C17   C     C_R   0.890621 0.839687 0.615017 -0.120232
C18   C     C_R   0.979394 0.768212 0.616233 -0.130605
H2    H     H_    0.324585 0.553588 0.706362 0.110600
H3    H     H_    0.456233 0.541590 0.821909 0.117019
H4    H     H_    0.431645 0.653556 0.936353 0.114894
H5    H     H_    0.275403 0.778137 0.935774 0.106144
H6    H     H_    0.940793 0.946399 0.793601 0.108393
H7    H     H_    0.809084 0.958392 0.678064 0.117601
H8    H     H_    0.989951 0.721850 0.564184 0.105889
C19   C     C_1   0.111812 0.863904 0.132623 -0.220085
C20   C     C_1   0.119251 0.821326 0.176180 -0.005015
C21   C     C_1   0.128590 0.771080 0.228046 -0.006336
C22   C     C_1   0.136573 0.728767 0.271825 -0.006267
C23   C     C_1   0.145902 0.678537 0.323705 -0.004861
C24   C     C_1   0.153322 0.635986 0.367285 -0.220669
C25   C     C_1   0.641337 0.363522 0.632219 -0.220730
C26   C     C_1   0.637052 0.320511 0.675424 -0.004636
C27   C     C_1   0.633507 0.269709 0.726830 -0.006513
C28   C     C_1   0.630843 0.226927 0.770247 -0.004579
C29   C     C_1   0.627298 0.176258 0.821759 -0.008323
C30   C     C_1   0.623061 0.133604 0.865263 -0.241386
H9    H     H_    0.849142 0.131400 0.434526 0.115550
C31   C     C_R   0.506810 0.406338 0.249263 -0.150480
C32   C     C_R   0.450476 0.421800 0.183919 -0.170361
C33   C     C_R   0.475338 0.363826 0.117006 -0.172119
C34   C     C_R   0.550770 0.288304 0.114724 0.284245
C35   C     C_R   0.582363 0.267003 0.181736 0.039803
C36   C     C_R   0.574639 0.329524 0.249770 0.027265
C37   C     C_R   0.626891 0.186817 0.182655 -0.195729
C38   C     C_R   0.684748 0.172249 0.250126 0.053147
C39   C     C_R   0.695707 0.236862 0.316447 0.074889
C40   C     C_R   0.640638 0.315469 0.316289 -0.171279
C41   C     C_R   0.732055 0.093676 0.253122 -0.144934
C42   C     C_R   0.791708 0.079571 0.318959 -0.117424
C43   C     C_R   0.803777 0.142760 0.383409 -0.118484
C44   C     C_R   0.755465 0.220483 0.382589 -0.134900
H10   H     H_    0.397345 0.480730 0.184847 0.132611
H11   H     H_    0.447292 0.379505 0.066187 0.116507
H12   H     H_    0.828022 0.019147 0.319994 0.117250
H13   H     H_    0.763373 0.267167 0.434599 0.100706
O11   O     O_R   0.775690 0.057750 0.940570 -0.523805
O12   O     O_R   0.441200 0.093570 0.087490 -0.533334
O13   O     O_R   0.265840 0.942320 0.059480 -0.525384
C45   C     C_R   0.611218 0.117593 0.114375 0.785238
O14   O     O_R   0.446270 0.067110 0.942790 -0.523732
O15   O     O_R   0.270950 0.915660 0.913750 -0.534422
C46   C     C_R   0.614825 0.082354 0.917948 0.757512
O16   O     O_R   0.770580 0.084400 0.086300 -0.532991
O17   O     O_3   0.602640 0.950400 0.990690 -0.363669
V3    V     V_3+5 0.329740 0.009200 0.001730 1.415329
O18   O     O_R   0.940900 0.906360 0.912450 -0.536609
C47   C     C_R   0.109585 0.883547 0.884840 0.694093
O19   O     O_R   0.935830 0.932820 0.057160 -0.526972
C48   C     C_R   0.103971 0.915889 0.080569 0.711503
V4    V     V_3+5 0.829130 0.990680 0.998180 1.410803
O20   O     O_3   0.106100 0.049590 0.009310 -0.361471
H14   H     H_    0.496502 0.455764 0.299057 0.123910
N1    N     N_2   0.622992 0.240601 0.045966 -0.541899
H15   H     H_    0.544449 0.245883 0.001165 0.243905
C49   C     C_3   0.827005 0.253305 0.036894 -0.520526
H16   H     H_    0.877082 0.214013 0.983040 0.196663
H17   H     H_    0.910668 0.238518 0.081531 0.206990
H18   H     H_    0.856130 0.317000 0.038027 0.184509
H19   H     H_    0.723433 0.042086 0.204888 0.102284

loop_
_geom_bond_atom_site_label_1
_geom_bond_atom_site_label_2
_ccdc_geom_bond_type
N1    H15   S    
C21   C22   T    
C6    C7    A    
C1    O6    A    
O12   V3    S    
C32   C33   A    
C12   C15   A    
C13   C14   A    
C16   C17   A    
O14   C46   A    
C15   C16   A    
O13   V3    S    
O5    C3    A    
C17   C18   A    
V2    O10   S    
C35   C36   A    
C5    C6    A    
C26   C27   S    
C2    C40   S    
C33   C34   A    
O8    V2    S    
O1    V2    S    
C10   C14   A    
C4    C14   S    
C49   H17   S    
O11   V4    S    
O7    V1    S    
O18   V4    S    
C7    H4    S    
C38   C39   A    
C8    C9    A    
C34   N1    S    
H1    C17   S    
C1    C25   S    
C5    C10   A    
C11   C12   A    
C6    H3    S    
C19   C20   T    
O4    C2    A    
O17   V3    S    
O15   C47   A    
C33   H11   S    
O16   V4    S    
C37   C38   A    
C25   C26   T    
C39   C40   A    
O2    C1    A    
C11   C47   S    
C41   C42   A    
C30   C46   S    
C27   C28   T    
C34   C35   A    
V4    O20   S    
C49   H18   S    
C32   H10   S    
O3    C4    A    
C20   C21   S    
C39   C44   A    
O19   C48   A    
O6    V2    S    
O19   V4    S    
O14   V3    S    
O9    V2    S    
C23   C24   T    
O11   C46   A    
C9    C11   A    
C5    H2    S    
C22   C23   S    
O2    V1    S    
V3    O20   S    
C31   C32   A    
O12   C45   A    
C42   H12   S    
C28   C29   S    
C38   C41   A    
O1    C2    A    
H9    C43   S    
O18   C47   A    
O5    V1    S    
O8    C3    A    
C36   C40   A    
C8    H5    S    
C18   H8    S    
C43   C44   A    
C31   H14   S    
C12   C13   A    
C19   C48   S    
O4    V1    S    
C3    C24   S    
O3    V1    S    
V1    O10   S    
C44   H13   S    
C35   C37   A    
O7    V2    S    
O13   C48   A    
C31   C36   A    
C42   C43   A    
O17   V4    S    
C13   C18   A    
C7    C8    A    
C15   H6    S    
C29   C30   T    
C41   H19   S    
C16   H7    S    
N1    C49   S    
C45   O16   A    
C9    C10   A    
C49   H16   S    
O9    C4    A    
O15   V3    S    
C37   C45   S    
