data_mof_unit_25916.cif
_audit_creation_date              2012-12-10T17:24:46-0500
_audit_creation_method            fapswitch 2.2
_symmetry_space_group_name_H-M    P1
_symmetry_Int_Tables_number       1
_space_group_crystal_system       triclinic
_cell_length_a                    23.512136
_cell_length_b                    10.831047
_cell_length_c                    9.597689
_cell_angle_alpha                 91.769765
_cell_angle_beta                  89.053142
_cell_angle_gamma                 92.764077
_cell_volume                      2439.87268567

loop_
_atom_site_label
_atom_site_type_symbol
_atom_type_description
_atom_site_fract_x
_atom_site_fract_y
_atom_site_fract_z
_atom_type_partial_charge
C1    C     C_R   0.495785 0.262194 0.498407 0.776363
C2    C     C_R   0.966869 0.289537 0.457091 0.655034
C3    C     C_R   0.026183 0.290824 0.460516 -0.214330
C4    C     C_R   0.058389 0.402735 0.476106 -0.128721
C5    C     C_R   0.030529 0.514871 0.487626 -0.015631
C6    C     C_R   0.062592 0.627692 0.503375 -0.009424
C7    C     C_R   0.034471 0.739139 0.514287 -0.137597
C8    C     C_R   0.975197 0.738669 0.510365 -0.127960
C9    C     C_R   0.118028 0.405548 0.480576 0.659834
C10   C     C_R   0.122172 0.625857 0.507598 0.593867
C11   C     C_R   0.237640 0.522550 0.625175 -0.276218
C12   C     C_R   0.391122 0.505236 0.500971 0.932680
C13   C     C_R   0.296867 0.519376 0.627810 0.633538
C14   C     C_R   0.328448 0.510208 0.501932 -0.260973
C15   C     C_R   0.299427 0.504941 0.374667 -0.347586
C16   C     C_R   0.240299 0.507678 0.372756 0.699247
C17   C     C_R   0.209300 0.516195 0.497998 0.136535
C18   C     C_R   0.762507 0.508833 0.619344 0.080577
C19   C     C_R   0.702795 0.505107 0.622353 0.576941
C20   C     C_R   0.672001 0.504973 0.497311 -0.188429
C21   C     C_R   0.701888 0.509356 0.369500 -0.312890
C22   C     C_R   0.761136 0.513307 0.365976 -0.132226
C23   C     C_R   0.497627 0.737106 0.501754 0.851819
C24   C     C_R   0.791653 0.512803 0.489734 0.278185
C25   C     C_R   0.392677 0.114150 0.617754 -0.031828
C26   C     C_R   0.356052 0.049233 0.709344 0.614546
C27   C     C_R   0.361370 0.923515 0.726455 -0.068328
C28   C     C_R   0.403622 0.862862 0.651715 0.478548
C29   C     C_R   0.446579 0.929464 0.574567 -0.091150
C30   C     C_R   0.442812 0.059617 0.563052 -0.045675
C31   C     C_R   0.488251 0.127229 0.493273 -0.001261
C32   C     C_R   0.531141 0.064975 0.422895 -0.163440
C33   C     C_R   0.532488 0.938106 0.426408 -0.216913
C34   C     C_R   0.609103 0.501298 0.499186 0.816851
C35   C     C_R   0.492022 0.870225 0.504092 -0.048850
C36   C     C_R   0.581467 0.652836 0.141170 -0.135710
C37   C     C_R   0.623119 0.716882 0.061224 0.107573
C38   C     C_R   0.613845 0.729593 0.919100 -0.081969
C39   C     C_R   0.560326 0.691960 0.867700 0.217063
C40   C     C_R   0.533312 0.587225 0.928222 0.183925
C41   C     C_R   0.537600 0.579242 0.075579 0.042306
C42   C     C_R   0.465341 0.420892 0.072460 0.695250
C43   C     C_R   0.466593 0.418670 0.924279 -0.084708
C44   C     C_R   0.883156 0.624144 0.494261 0.549446
C45   C     C_R   0.878623 0.403618 0.468757 0.591997
C46   C     C_R   0.938375 0.401133 0.469211 -0.160939
C47   C     C_R   0.970511 0.514202 0.483929 -0.087052
C48   C     C_R   0.942799 0.626725 0.495736 0.000671
Cu1   Cu    Cu3+1 0.500000 0.499990 0.640660 1.035692
Cu2   Cu    Cu3+1 0.500000 0.500010 0.359340 1.001972
H1    H     H_    0.679539 0.509600 0.271767 0.207581
H2    H     H_    0.783552 0.516200 0.266555 0.167240
H3    H     H_    0.564999 0.115548 0.367718 0.150473
H4    H     H_    0.566670 0.892584 0.371334 0.141777
H5    H     H_    0.046765 0.203530 0.451269 0.215275
H6    H     H_    0.585066 0.663693 0.251175 0.192989
H7    H     H_    0.640586 0.795639 0.862141 0.152658
H8    H     H_    0.439251 0.352169 0.867647 0.178403
H9    H     H_    0.058137 0.827037 0.526139 0.201291
H10   H     H_    0.954863 0.826247 0.519546 0.212457
H11   H     H_    0.213581 0.529003 0.722103 0.208633
H12   H     H_    0.322362 0.497837 0.276180 0.242886
N1    N     N_R   0.852593 0.513751 0.482473 -0.470720
N2    N     N_R   0.148441 0.515920 0.496039 -0.435335
N3    N     N_R   0.500540 0.501210 0.147910 -0.244399
N4    N     N_R   0.500560 0.501290 0.852040 -0.222413
O1    O     O_R   0.500000 0.319640 0.618810 -0.584964
O2    O     O_2   0.846556 0.297281 0.456258 -0.436799
O3    O     O_2   0.145500 0.299017 0.469809 -0.491492
O4    O     O_2   0.153658 0.732815 0.522491 -0.508876
O5    O     O_R   0.500000 0.319660 0.381240 -0.536772
O6    O     O_R   0.417880 0.499950 0.618810 -0.494369
O7    O     O_R   0.417880 0.499980 0.381240 -0.556724
O8    O     O_R   0.500000 0.680340 0.618760 -0.539808
O9    O     O_R   0.500000 0.680360 0.381190 -0.610021
O10   O     O_R   0.582120 0.500020 0.618760 -0.513400
O11   O     O_R   0.582120 0.500050 0.381190 -0.619611
O12   O     O_2   0.855779 0.730732 0.506032 -0.506014
F1    F     F_    0.937859 0.178557 0.442442 -0.602954
F2    F     F_    0.675227 0.500952 0.747876 -0.663391
C49   C     C_3   0.370200 0.230466 0.565753 -0.681466
H13   H     H_    0.324482 0.215444 0.539295 0.261346
H14   H     H_    0.373284 0.300927 0.651200 0.257638
H15   H     H_    0.391052 0.259988 0.467630 0.208601
F3    F     F_    0.311624 0.106796 0.771231 -0.620342
C50   C     C_3   0.319632 0.850393 0.816180 -0.540967
H16   H     H_    0.343087 0.800614 0.894922 0.240115
H17   H     H_    0.289189 0.909908 0.872604 0.258290
H18   H     H_    0.294836 0.781958 0.750140 0.252961
F4    F     F_    0.400726 0.738378 0.654801 -0.654309
F5    F     F_    0.429595 0.340000 0.139686 -0.638002
C51   C     C_3   0.673947 0.781859 0.128281 -0.828297
H19   H     H_    0.674740 0.766079 0.242039 0.228386
H20   H     H_    0.713528 0.746804 0.080127 0.254074
H21   H     H_    0.672981 0.882884 0.112634 0.241751
C52   C     C_3   0.523717 0.802326 0.857554 -0.828426
H22   H     H_    0.539694 0.862847 0.772759 0.227477
H23   H     H_    0.478309 0.773619 0.842197 0.281865
H24   H     H_    0.524798 0.858261 0.956782 0.220077
F6    F     F_    0.322818 0.524909 0.753292 -0.609888
F7    F     F_    0.213026 0.501598 0.249063 -0.611268
C53   C     C_3   0.793617 0.507688 0.755442 -0.699534
H25   H     H_    0.780539 0.422550 0.811576 0.250192
H26   H     H_    0.840536 0.509794 0.741538 0.213772
H27   H     H_    0.782666 0.589607 0.821148 0.241698

loop_
_geom_bond_atom_site_label_1
_geom_bond_atom_site_label_2
_ccdc_geom_bond_type
C9    N2    A    
C19   C20   A    
C1    C31   S    
C49   H13   S    
C7    C8    A    
C45   C46   A    
C2    C46   A    
C5    C47   A    
C26   C27   A    
C1    O5    A    
C18   C24   A    
C36   C37   A    
C9    O3    S    
C42   F5    S    
C26   F3    S    
C17   N2    S    
C30   C31   A    
C50   H17   S    
C15   C16   A    
C52   H24   S    
C33   H4    S    
C53   H27   S    
C18   C19   A    
C18   C53   S    
C2    F1    S    
C43   H8    S    
C33   C35   A    
C3    H5    S    
C11   C17   A    
C47   C48   A    
C16   C17   A    
Cu1   O6    S    
C52   H23   S    
C42   N3    A    
C13   C14   A    
C29   C30   A    
C20   C34   S    
C12   O6    A    
C40   N4    A    
C21   C22   A    
C25   C49   S    
C36   C41   A    
C19   F2    S    
C7    H9    S    
C49   H14   S    
C44   N1    A    
C38   C39   A    
Cu1   N4    S    
Cu2   O7    S    
C39   C40   A    
C50   H16   S    
C41   N3    A    
C25   C26   A    
C45   N1    A    
C51   H21   S    
C27   C50   S    
Cu2   O5    S    
C8    C48   A    
C37   C38   A    
C36   H6    S    
C38   H7    S    
C31   C32   A    
C52   H22   S    
C45   O2    S    
C51   H20   S    
Cu1   O10   S    
C53   H26   S    
C10   O4    S    
C40   C41   A    
C12   C14   S    
C24   N1    S    
C23   C35   S    
C22   C24   A    
C42   C43   A    
C23   O8    A    
C3    C4    A    
Cu2   O11   S    
C32   H3    S    
C21   H1    S    
C49   H15   S    
C22   H2    S    
C25   C30   A    
C46   C47   A    
C28   C29   A    
Cu1   O1    S    
C37   C51   S    
C14   C15   A    
C10   N2    A    
C23   O9    A    
C4    C5    A    
C11   H11   S    
C50   H18   S    
C6    C10   A    
C6    C7    A    
C29   C35   A    
C32   C33   A    
C13   F6    S    
C44   O12   S    
C2    C3    A    
C34   O11   A    
Cu2   O9    S    
C8    H10   S    
C11   C13   A    
C5    C6    A    
C43   N4    A    
C51   H19   S    
C1    O1    A    
C15   H12   S    
C53   H25   S    
Cu2   N3    S    
C39   C52   S    
C16   F7    S    
C20   C21   A    
Cu1   Cu2   S    
C27   C28   A    
Cu1   O8    S    
C28   F4    S    
C4    C9    A    
C12   O7    A    
C44   C48   A    
C34   O10   A    
