data_mof_unit_55299.cif
_audit_creation_date              2012-12-10T18:00:43-0500
_audit_creation_method            fapswitch 2.2
_symmetry_space_group_name_H-M    P1
_symmetry_Int_Tables_number       1
_space_group_crystal_system       triclinic
_cell_length_a                    15.857674
_cell_length_b                    10.809173
_cell_length_c                    9.576231
_cell_angle_alpha                 88.598408
_cell_angle_beta                  91.762092
_cell_angle_gamma                 91.442326
_cell_volume                      1639.68898278

loop_
_atom_site_label
_atom_site_type_symbol
_atom_type_description
_atom_site_fract_x
_atom_site_fract_y
_atom_site_fract_z
_atom_type_partial_charge
C1    C     C_R   0.497122 0.262563 0.501222 0.861469
C2    C     C_R   0.501758 0.737491 0.498435 0.870477
C3    C     C_R   0.574839 0.941874 0.466523 -0.068392
C4    C     C_R   0.422330 0.058156 0.528387 -0.082182
C5    C     C_R   0.500851 0.871596 0.494134 -0.226371
C6    C     C_R   0.497010 0.128489 0.503683 -0.232492
C7    C     C_R   0.441779 0.431444 0.073937 -0.231902
C8    C     C_R   0.558249 0.568845 0.926161 -0.232475
C9    C     C_R   0.439862 0.433664 0.924654 0.605862
C10   C     C_R   0.559085 0.568869 0.075700 0.609434
C11   C     C_R   0.339830 0.499041 0.497777 0.822885
C12   C     C_R   0.660193 0.499196 0.502465 0.823105
C13   C     C_3   0.972847 0.386016 0.548517 0.017103
C14   C     C_3   0.027794 0.610883 0.461459 0.020887
C15   C     C_3   0.018502 0.411175 0.409508 -0.372043
C16   C     C_3   0.981841 0.585832 0.600050 -0.362672
C17   C     C_1   0.249973 0.496986 0.491597 -0.185540
C18   C     C_1   0.750133 0.499327 0.510413 -0.175598
C19   C     C_3   0.036959 0.470625 0.626538 0.573348
C20   C     C_3   0.963627 0.526881 0.383160 0.569573
C21   C     C_3   0.082474 0.496379 0.489777 0.000207
C22   C     C_3   0.917862 0.500343 0.519704 -0.000999
C23   C     C_1   0.174312 0.495840 0.487301 -0.009818
C24   C     C_1   0.825830 0.499756 0.518452 -0.008551
C25   C     C_R   0.572614 0.071382 0.472364 0.460459
C26   C     C_R   0.424113 0.928956 0.516485 0.450377
Cu1   Cu    Cu3+1 0.500000 0.500020 0.640660 0.984860
Cu2   Cu    Cu3+1 0.500000 0.499980 0.359340 0.988270
H1    H     H_    0.035092 0.341226 0.332632 0.150684
H2    H     H_    0.965516 0.655622 0.677236 0.147180
H3    H     H_    0.396153 0.375404 0.130447 0.158450
H4    H     H_    0.603056 0.625890 0.869172 0.156623
N1    N     N_R   0.500020 0.500030 0.852070 -0.213665
N2    N     N_R   0.499980 0.499970 0.147930 -0.214746
O1    O     O_R   0.500000 0.319660 0.618740 -0.563832
O2    O     O_R   0.500000 0.680340 0.381260 -0.564761
O3    O     O_R   0.499990 0.319630 0.381170 -0.561998
O4    O     O_R   0.500010 0.680370 0.618830 -0.573998
O5    O     O_R   0.379080 0.500000 0.618760 -0.515051
O6    O     O_R   0.620920 0.500000 0.381240 -0.517061
O7    O     O_R   0.379080 0.499970 0.381190 -0.606335
O8    O     O_R   0.620920 0.500030 0.618810 -0.607893
C27   C     C_3   0.936673 0.262057 0.602602 -0.393738
C28   C     C_3   0.006259 0.171619 0.644405 -0.318585
C29   C     C_3   0.969395 0.052142 0.707638 -0.886468
H5    H     H_    0.939713 0.070834 0.808307 0.256306
H6    H     H_    0.921134 0.011533 0.635373 0.255368
H7    H     H_    0.020249 0.984529 0.727128 0.247173
H8    H     H_    0.042710 0.150453 0.551179 0.220671
H9    H     H_    0.049968 0.213072 0.723675 0.264983
H10   H     H_    0.897657 0.279028 0.694316 0.189820
H11   H     H_    0.895252 0.221347 0.519155 0.198342
C30   C     C_3   0.065521 0.734484 0.409728 -0.386095
C31   C     C_3   0.998802 0.833544 0.392270 -0.315743
C32   C     C_3   0.036936 0.954415 0.334226 -0.882455
H12   H     H_    0.090496 0.986673 0.402637 0.252219
H13   H     H_    0.059893 0.941065 0.227337 0.254254
H14   H     H_    0.988188 0.026514 0.329023 0.247392
H15   H     H_    0.946910 0.801807 0.320188 0.254162
H16   H     H_    0.972495 0.850495 0.495753 0.223056
H17   H     H_    0.114457 0.765459 0.487584 0.203628
H18   H     H_    0.096150 0.720701 0.308682 0.187621
O9    O     O_3   0.915699 0.564052 0.263788 -0.591041
C33   C     C_3   0.958826 0.536618 0.143568 -0.397682
H19   H     H_    0.958707 0.434898 0.129207 0.173299
H20   H     H_    0.024383 0.575962 0.146463 0.163067
H21   H     H_    0.924719 0.578906 0.052230 0.189199
O10   O     O_3   0.085554 0.436640 0.746335 -0.600530
C34   C     C_3   0.040888 0.460309 0.866160 -0.415746
H22   H     H_    0.976263 0.417628 0.861862 0.168841
H23   H     H_    0.038483 0.561685 0.881575 0.176999
H24   H     H_    0.075425 0.418874 0.957560 0.189743
O11   O     O_3   0.642206 0.143607 0.434866 -0.575616
C35   C     C_3   0.690880 0.172827 0.555920 -0.347378
H25   H     H_    0.652774 0.212937 0.638488 0.166166
H26   H     H_    0.724696 0.091073 0.598024 0.171888
H27   H     H_    0.739724 0.242770 0.526638 0.184123
O12   O     O_3   0.351002 0.857640 0.532554 -0.581831
C36   C     C_3   0.314588 0.833950 0.399102 -0.339426
H28   H     H_    0.256269 0.777036 0.412519 0.181370
H29   H     H_    0.356863 0.780463 0.334259 0.179345
H30   H     H_    0.296952 0.920711 0.342047 0.149899
C37   C     C_3   0.655856 0.880460 0.429704 -0.350601
C38   C     C_3   0.701984 0.828040 0.560465 -0.368260
C39   C     C_3   0.794620 0.809245 0.531895 -0.881057
H31   H     H_    0.800868 0.747077 0.442524 0.274913
H32   H     H_    0.825263 0.899590 0.504996 0.245848
H33   H     H_    0.826928 0.768651 0.626068 0.246200
H34   H     H_    0.697797 0.890991 0.649678 0.217948
H35   H     H_    0.672287 0.738583 0.592878 0.218388
H36   H     H_    0.642416 0.805439 0.354693 0.229569
H37   H     H_    0.697940 0.947455 0.373860 0.245386
C40   C     C_3   0.339498 0.117882 0.560616 -0.329116
C41   C     C_3   0.312377 0.085953 0.710178 -0.263702
C42   C     C_3   0.219238 0.112070 0.727213 -0.876014
H38   H     H_    0.204477 0.206482 0.687185 0.263025
H39   H     H_    0.179677 0.043917 0.667902 0.256796
H40   H     H_    0.203444 0.104001 0.839273 0.243842
H41   H     H_    0.322226 0.986957 0.737851 0.248443
H42   H     H_    0.351343 0.141346 0.785047 0.249351
H43   H     H_    0.342904 0.220120 0.547859 0.170965
H44   H     H_    0.290009 0.086393 0.484176 0.199159
O13   O     O_3   0.379124 0.365906 0.850829 -0.575045
C43   C     C_3   0.297500 0.398358 0.890278 -0.309435
H45   H     H_    0.277095 0.339853 0.980622 0.145909
H46   H     H_    0.292679 0.498489 0.913731 0.159055
H47   H     H_    0.252731 0.380529 0.801782 0.235099
O14   O     O_3   0.614450 0.645692 0.149976 -0.572552
C44   C     C_3   0.698681 0.626007 0.113810 -0.315191
H48   H     H_    0.714239 0.678128 0.016235 0.143622
H49   H     H_    0.712222 0.525897 0.104414 0.173858
H50   H     H_    0.741210 0.662423 0.198162 0.214122

loop_
_geom_bond_atom_site_label_1
_geom_bond_atom_site_label_2
_ccdc_geom_bond_type
C28   H8    S    
C32   H12   S    
C40   C41   S    
O11   C35   S    
C10   O14   S    
C42   H38   S    
C43   H46   S    
C42   H40   S    
C31   H16   S    
C39   H31   S    
Cu1   N1    S    
C37   H37   S    
C26   O12   S    
C35   H26   S    
C18   C24   T    
C41   H41   S    
C14   C21   S    
C4    C40   S    
C19   C21   S    
C44   H49   S    
C27   H11   S    
C29   H7    S    
C6    C25   A    
Cu2   O6    S    
Cu1   O4    S    
C16   H2    S    
Cu2   O7    S    
C2    O2    A    
O14   C44   S    
C34   H23   S    
C12   O8    A    
C30   H17   S    
Cu1   O5    S    
O10   C34   S    
C35   H27   S    
C25   O11   S    
C1    O3    A    
C29   H6    S    
Cu2   N2    S    
C9    N1    A    
C41   C42   S    
C38   H35   S    
C43   H45   S    
C15   H1    S    
C31   H15   S    
C39   H32   S    
C15   C20   S    
C7    H3    S    
C35   H25   S    
C13   C19   S    
C1    C6    S    
C8    H4    S    
C33   H21   S    
C14   C20   S    
C3    C25   A    
C38   C39   S    
C4    C6    A    
C44   H50   S    
C40   H43   S    
C36   H29   S    
O12   C36   S    
Cu1   O1    S    
C30   C31   S    
C36   H28   S    
C33   H20   S    
C12   O6    A    
C34   H24   S    
C27   C28   S    
C30   H18   S    
C2    O4    A    
C37   C38   S    
C13   C15   S    
C41   H42   S    
C9    O13   S    
C19   O10   S    
C10   N2    A    
C17   C23   T    
C11   O5    A    
C20   C22   S    
C32   H13   S    
C3    C37   S    
C7    N2    A    
C14   C16   S    
C2    C5    S    
C38   H34   S    
C13   C27   S    
C28   C29   S    
C1    O1    A    
C39   H33   S    
C28   H9    S    
C7    C9    A    
C31   C32   S    
C11   C17   S    
C16   C22   S    
O9    C33   S    
C3    C5    A    
C40   H44   S    
C36   H30   S    
C4    C26   A    
C42   H39   S    
C37   H36   S    
C33   H19   S    
C20   O9    S    
C21   C23   S    
C44   H48   S    
Cu1   O8    S    
C27   H10   S    
Cu2   O3    S    
C16   C19   S    
C13   C22   S    
C11   O7    A    
C22   C24   S    
C8    N1    A    
C34   H22   S    
C5    C26   A    
C29   H5    S    
C15   C21   S    
C14   C30   S    
Cu2   O2    S    
C8    C10   A    
C32   H14   S    
C12   C18   S    
O13   C43   S    
C43   H47   S    
Cu1   Cu2   S    
