data_mof_unit_23843.cif
_audit_creation_date              2012-12-10T20:37:33-0500
_audit_creation_method            fapswitch 2.2
_symmetry_space_group_name_H-M    P1
_symmetry_Int_Tables_number       1
_space_group_crystal_system       triclinic
_cell_length_a                    15.698741
_cell_length_b                    10.757478
_cell_length_c                    9.904668
_cell_angle_alpha                 90.065623
_cell_angle_beta                  90.121361
_cell_angle_gamma                 90.648193
_cell_volume                      1672.57711466

loop_
_atom_site_label
_atom_site_type_symbol
_atom_type_description
_atom_site_fract_x
_atom_site_fract_y
_atom_site_fract_z
_atom_type_partial_charge
C1    C     C_R   0.503627 0.260257 0.499398 0.868038
C2    C     C_R   0.504224 0.127571 0.496572 -0.157418
C3    C     C_R   0.514345 0.060899 0.374185 -0.012901
C4    C     C_R   0.338013 0.499533 0.499879 0.904758
C5    C     C_R   0.505124 0.933493 0.375594 -0.277869
C6    C     C_R   0.494753 0.871100 0.498128 -0.120140
C7    C     C_R   0.482694 0.936867 0.617193 0.139462
C8    C     C_3   0.530984 0.927387 0.746682 -0.476755
C9    C     C_3   0.535552 0.067722 0.746181 -0.459967
C10   C     C_R   0.429024 0.465321 0.070685 0.128278
C11   C     C_R   0.565295 0.553846 0.073269 0.195163
C12   C     C_3   0.082764 0.497351 0.500560 0.164296
C13   C     C_R   0.566755 0.550474 0.928110 0.185933
C14   C     C_R   0.428012 0.467681 0.929002 0.077885
C15   C     C_3   0.378797 0.347468 0.923806 0.002236
C16   C     C_R   0.499239 0.739550 0.499913 0.885387
C17   C     C_3   0.381761 0.345065 0.077762 -0.471625
C18   C     C_R   0.661979 0.499928 0.500053 0.908286
C19   C     C_3   0.970691 0.380165 0.514088 -0.145208
C20   C     C_3   0.027321 0.427871 0.396773 -0.174935
C21   C     C_1   0.249062 0.498374 0.499818 -0.191439
C22   C     C_1   0.750902 0.498880 0.499941 -0.202332
C23   C     C_3   0.972174 0.567408 0.604528 -0.207053
C24   C     C_3   0.027762 0.449794 0.617877 -0.177875
C25   C     C_3   0.642496 0.744446 0.138708 -0.784289
C26   C     C_3   0.715972 0.537864 0.862687 -0.740862
C27   C     C_3   0.243960 0.249206 0.858854 -0.791075
C28   C     C_1   0.061420 0.740436 0.472464 0.138483
C29   C     C_1   0.544054 0.116114 0.249341 0.186652
C30   C     C_3   0.917095 0.497717 0.500420 0.193221
C31   C     C_3   0.028324 0.613088 0.487156 0.053760
C32   C     C_3   0.971773 0.545432 0.382837 -0.202606
C33   C     C_1   0.173711 0.497541 0.500200 -0.067498
C34   C     C_1   0.826241 0.498100 0.500084 -0.082650
C35   C     C_R   0.486295 0.064274 0.616317 0.107876
H1    H     H_    0.051910 0.370721 0.312294 0.143625
H2    H     H_    0.947578 0.624900 0.688759 0.135779
H3    H     H_    0.052729 0.410558 0.713537 0.139134
H4    H     H_    0.512669 0.882891 0.281897 0.180087
H5    H     H_    0.491185 0.888781 0.829709 0.202523
H6    H     H_    0.687808 0.560789 0.156471 0.227649
H7    H     H_    0.700086 0.768379 0.078843 0.220658
H8    H     H_    0.651118 0.782935 0.241852 0.250759
H9    H     H_    0.585945 0.788192 0.091442 0.223804
H10   H     H_    0.642753 0.698611 0.867310 0.211641
H11   H     H_    0.750215 0.558313 0.957960 0.205453
H12   H     H_    0.594214 0.883314 0.734119 0.199006
H13   H     H_    0.757813 0.569531 0.779169 0.237547
H14   H     H_    0.705162 0.435985 0.852333 0.246274
H15   H     H_    0.286045 0.422670 0.794370 0.264076
H16   H     H_    0.176963 0.271210 0.832909 0.234776
H17   H     H_    0.244181 0.194939 0.954251 0.253486
H18   H     H_    0.271463 0.192476 0.776172 0.238627
H19   H     H_    0.499250 0.109232 0.830471 0.200319
H20   H     H_    0.601376 0.105294 0.733696 0.204333
H21   H     H_    0.413773 0.272121 0.872262 0.158327
H22   H     H_    0.318746 0.355654 0.127325 0.216661
H23   H     H_    0.420758 0.268625 0.118643 0.196603
H24   H     H_    0.944633 0.284359 0.525180 0.137273
H25   H     H_    0.946915 0.585155 0.287316 0.137337
N1    N     N_R   0.499430 0.499140 0.142800 -0.130456
N2    N     N_R   0.499430 0.499180 0.857150 -0.149034
N3    N     N_2   0.632574 0.610833 0.147496 -0.249307
N4    N     N_2   0.636112 0.603891 0.855836 -0.247461
N5    N     N_2   0.292323 0.363408 0.875069 -0.280636
N6    N     N_1   0.087563 0.840842 0.460875 -0.212283
N7    N     N_1   0.568691 0.159250 0.149563 -0.235880
O1    O     O_R   0.500010 0.316790 0.614690 -0.620877
O2    O     O_R   0.500000 0.316760 0.385350 -0.612679
O3    O     O_R   0.376780 0.500010 0.614650 -0.630610
O4    O     O_R   0.376770 0.499970 0.385310 -0.607425
O5    O     O_R   0.500000 0.683240 0.614650 -0.613653
O6    O     O_R   0.499990 0.683210 0.385310 -0.606650
O7    O     O_R   0.623230 0.500030 0.614690 -0.585160
O8    O     O_R   0.623220 0.499990 0.385350 -0.604991
Zn1   Zn    Zn3+2 0.500010 0.500020 0.653130 0.954331
Zn2   Zn    Zn3+2 0.499990 0.499980 0.346870 0.971793

loop_
_geom_bond_atom_site_label_1
_geom_bond_atom_site_label_2
_ccdc_geom_bond_type
C2    C35   A    
C18   O8    A    
O2    Zn2   S    
C19   C20   S    
C16   O5    A    
O5    Zn1   S    
C25   H8    S    
C4    O3    A    
C7    C8    S    
O7    Zn1   S    
C11   N3    S    
C5    C6    A    
C21   C33   T    
C10   C17   S    
C14   N2    A    
C1    O1    A    
C1    C2    S    
C25   N3    S    
C3    C29   S    
C26   N4    S    
C29   N7    T    
C13   N2    A    
N1    Zn2   S    
C8    C9    S    
C24   H3    S    
C23   C24   S    
C9    H20   S    
C26   H13   S    
C17   H23   S    
C18   O7    A    
N2    Zn1   S    
C25   H9    S    
C27   H16   S    
C22   C34   T    
C30   C34   S    
C16   O6    A    
C23   C30   S    
C10   C14   A    
C26   H14   S    
C19   H24   S    
C23   H2    S    
C1    O2    A    
C23   C31   S    
C28   N6    T    
C27   N5    S    
C31   C32   S    
C12   C20   S    
O8    Zn2   S    
C5    H4    S    
C12   C31   S    
O3    Zn1   S    
C10   N1    A    
H6    N3    S    
C3    C5    A    
O4    Zn2   S    
C27   H17   S    
C20   C32   S    
C15   C17   S    
O6    Zn2   S    
C18   C22   S    
C7    C35   A    
C28   C31   S    
C11   N1    A    
C25   H7    S    
C27   H18   S    
C6    C7    A    
O1    Zn1   S    
C12   C24   S    
H10   N4    S    
C15   H21   S    
C2    C3    A    
C8    H12   S    
C30   C32   S    
C4    C21   S    
C11   C13   A    
C13   N4    S    
C19   C24   S    
H15   N5    S    
C26   H11   S    
C6    C16   S    
C20   H1    S    
C9    C35   S    
C32   H25   S    
C14   C15   S    
C9    H19   S    
C8    H5    S    
C12   C33   S    
C19   C30   S    
C4    O4    A    
C17   H22   S    
C15   N5    S    
