data_mof_unit_37319.cif
_audit_creation_date              2012-12-10T16:57:09-0500
_audit_creation_method            fapswitch 2.2
_symmetry_space_group_name_H-M    P1
_symmetry_Int_Tables_number       1
_space_group_crystal_system       triclinic
_cell_length_a                    7.740177
_cell_length_b                    8.578721
_cell_length_c                    16.729438
_cell_angle_alpha                 91.582376
_cell_angle_beta                  81.666049
_cell_angle_gamma                 93.660357
_cell_volume                      1096.68609661

loop_
_atom_site_label
_atom_site_type_symbol
_atom_type_description
_atom_site_fract_x
_atom_site_fract_y
_atom_site_fract_z
_atom_type_partial_charge
C1    C     C_R   0.546223 0.794864 0.497949 0.974831
C2    C     C_R   0.368825 0.419322 0.231859 -0.258230
C3    C     C_R   0.600089 0.285306 0.830742 0.231011
C4    C     C_R   0.359203 0.397317 0.150111 0.242821
C5    C     C_R   0.448826 0.295465 0.887232 0.115077
C6    C     C_R   0.509479 0.435597 0.094391 0.124318
C7    C     C_R   0.301399 0.362959 0.867216 -0.205588
C8    C     C_R   0.662208 0.501270 0.120291 -0.218603
C9    C     C_R   0.305506 0.432001 0.792359 0.177575
C10   C     C_R   0.671419 0.525290 0.202370 0.177321
C11   C     C_2   0.462362 0.288025 0.972368 -0.208524
C12   C     C_R   0.453775 0.205134 0.502099 0.967237
C13   C     C_2   0.506953 0.422380 0.008125 -0.216744
C14   C     C_3   0.836438 0.602280 0.227519 -0.871589
C15   C     C_3   0.145519 0.511053 0.776287 -0.877955
C16   C     C_3   0.186494 0.340795 0.124174 -0.920789
C17   C     C_3   0.759677 0.212181 0.851594 -0.924018
C18   C     C_2   0.570675 0.958235 0.496793 -0.386452
C19   C     C_2   0.429316 0.041784 0.503389 -0.379819
C20   C     C_R   0.476965 0.490370 0.654114 0.883689
C21   C     C_R   0.520862 0.497962 0.345665 0.885570
C22   C     C_R   0.461744 0.430300 0.736388 -0.103909
C23   C     C_R   0.522948 0.481658 0.258647 -0.096392
C24   C     C_R   0.604963 0.352532 0.755824 -0.255550
H1    H     H_    0.723294 0.345255 0.712834 0.177253
H2    H     H_    0.977014 0.618376 0.560453 0.192082
H3    H     H_    0.804634 0.706773 0.266216 0.240310
H4    H     H_    0.901616 0.519013 0.261069 0.254041
H5    H     H_    0.931510 0.641162 0.174537 0.230451
H6    H     H_    0.181794 0.633860 0.758471 0.243725
H7    H     H_    0.084804 0.446592 0.727982 0.255758
H8    H     H_    0.044483 0.513771 0.830659 0.226268
H9    H     H_    0.079403 0.334391 0.176057 0.238887
H10   H     H_    0.149631 0.422088 0.079837 0.243520
H11   H     H_    0.194771 0.221727 0.097117 0.237849
H12   H     H_    0.254626 0.387035 0.275107 0.162980
H13   H     H_    0.865308 0.209048 0.799094 0.240736
H14   H     H_    0.812086 0.280020 0.901211 0.246194
H15   H     H_    0.724010 0.090344 0.871256 0.242490
H16   H     H_    0.544897 0.526636 0.972510 0.159955
H17   H     H_    0.435181 0.178973 0.004463 0.162628
H18   H     H_    0.187548 0.372131 0.912912 0.150274
H19   H     H_    0.774329 0.534163 0.075928 0.142860
H20   H     H_    0.704170 0.009235 0.490494 0.179347
H21   H     H_    0.295820 0.990790 0.509705 0.179435
H22   H     H_    0.022994 0.381615 0.439550 0.186496
N1    N     N_2   0.953500 0.457650 0.478520 -0.176499
N2    N     N_2   0.046500 0.542350 0.521480 -0.176173
O1    O     O_R   0.388470 0.738640 0.505270 -0.608284
O2    O     O_R   0.611530 0.261360 0.494730 -0.613216
O3    O     O_R   0.679650 0.711510 0.491500 -0.627225
O4    O     O_R   0.320350 0.288490 0.508500 -0.632698
O5    O     O_R   0.337210 0.515200 0.623500 -0.609631
O6    O     O_R   0.662790 0.484800 0.376500 -0.611017
O7    O     O_R   0.628380 0.488060 0.609730 -0.633790
O8    O     O_R   0.371620 0.511940 0.390270 -0.628780
Zn1   Zn    Zn3+2 0.305580 0.518120 0.509190 0.935302
Zn2   Zn    Zn3+2 0.694420 0.481880 0.490810 0.933182

loop_
_geom_bond_atom_site_label_1
_geom_bond_atom_site_label_2
_ccdc_geom_bond_type
C4    C16   S    
C21   O8    A    
C2    C4    A    
C19   H21   S    
C15   H7    S    
C18   H20   S    
C14   H3    S    
C11   C13   D    
C12   O2    A    
N1    N2    D    
C8    H19   S    
H2    N2    S    
C3    C5    A    
C14   H4    S    
O6    Zn2   S    
C9    C15   S    
C15   H8    S    
C16   H11   S    
O3    Zn2   S    
C17   H13   S    
C24   H1    S    
N1    Zn2   S    
C1    O3    A    
C1    C18   S    
C3    C17   S    
C20   O7    A    
C12   C19   S    
C4    C6    A    
C12   O4    A    
C20   C22   S    
C11   H17   S    
C17   H14   S    
C21   C23   S    
C5    C11   S    
C10   C14   S    
C21   O6    A    
C16   H9    S    
C22   C24   A    
C9    C22   A    
C7    H18   S    
O4    Zn1   S    
C13   H16   S    
C14   H5    S    
O2    Zn2   S    
C7    C9    A    
N2    Zn1   S    
O1    Zn1   S    
O8    Zn1   S    
C15   H6    S    
C8    C10   A    
C18   C19   D    
C17   H15   S    
O7    Zn2   S    
C2    H12   S    
C2    C23   A    
C5    C7    A    
O5    Zn1   S    
H22   N1    S    
C10   C23   A    
C6    C8    A    
C16   H10   S    
C1    O1    A    
C3    C24   A    
C20   O5    A    
C6    C13   S    
