data_mof_unit_58921.cif
_audit_creation_date              2012-10-26T20:42:32-0400
_audit_creation_method            fapswitch 2.2
_symmetry_space_group_name_H-M    P1
_symmetry_Int_Tables_number       1
_space_group_crystal_system       triclinic
_cell_length_a                    10.831054
_cell_length_b                    9.527799
_cell_length_c                    10.924875
_cell_angle_alpha                 90.002322
_cell_angle_beta                  90.33735
_cell_angle_gamma                 89.999091
_cell_volume                      1127.38500988

loop_
_atom_site_label
_atom_site_type_symbol
_atom_type_description
_atom_site_fract_x
_atom_site_fract_y
_atom_site_fract_z
_atom_type_partial_charge
C1    C     C_R   0.262086 0.499981 0.499703 0.547537
C2    C     C_R   0.936147 0.372508 0.500200 -0.142438
C3    C     C_R   0.871771 0.500055 0.500373 0.017539
C4    C     C_R   0.128229 0.500056 0.499630 0.017542
C5    C     C_R   0.936135 0.627632 0.500286 -0.143843
C6    C     C_R   0.063861 0.627633 0.499734 -0.143823
C7    C     C_R   0.418346 0.075022 0.429143 -0.016390
C8    C     C_R   0.581653 0.075026 0.570860 -0.016469
C9    C     C_R   0.419143 0.924713 0.426283 0.341801
C10   C     C_R   0.580858 0.924709 0.573722 0.341845
C11   C     C_3   0.307380 0.909037 0.243262 -0.030318
C12   C     C_R   0.737913 0.499980 0.500298 0.547558
C13   C     C_3   0.248600 0.799107 0.160451 -0.359129
C14   C     C_3   0.693016 0.909263 0.756566 -0.030451
C15   C     C_3   0.751585 0.799350 0.839533 -0.359137
C16   C     C_R   0.501951 0.499996 0.265237 0.548989
C17   C     C_R   0.498040 0.500003 0.734763 0.549057
C18   C     C_2   0.502883 0.384435 0.933049 -0.163128
C19   C     C_2   0.496677 0.384458 0.066950 -0.163128
C20   C     C_2   0.490327 0.501910 0.866740 -0.125941
C21   C     C_2   0.509668 0.501874 0.133262 -0.125990
C22   C     C_R   0.063857 0.372509 0.499788 -0.142435
Cu1   Cu    Cu3+1 0.500000 0.640660 0.500000 1.053117
Cu2   Cu    Cu3+1 0.500000 0.359340 0.500000 0.923460
H1    H     H_    0.516103 0.283696 0.888377 0.140886
H2    H     H_    0.647610 0.134303 0.624313 0.111679
H3    H     H_    0.392399 0.948695 0.197707 0.112074
H4    H     H_    0.239458 0.995513 0.254255 0.112931
H5    H     H_    0.163161 0.757627 0.203060 0.157170
H6    H     H_    0.224699 0.846722 0.070613 0.090407
H7    H     H_    0.313805 0.711128 0.145358 0.159310
H8    H     H_    0.608233 0.949455 0.802202 0.111981
H9    H     H_    0.761203 0.995402 0.745194 0.113059
H10   H     H_    0.836795 0.757345 0.796861 0.157214
H11   H     H_    0.775824 0.847156 0.929208 0.090436
H12   H     H_    0.483064 0.283794 0.111626 0.140828
H13   H     H_    0.686108 0.711713 0.854963 0.159175
H14   H     H_    0.471463 0.602884 0.908032 0.092801
H15   H     H_    0.528872 0.602762 0.091976 0.092783
H16   H     H_    0.111882 0.272771 0.499633 0.128856
H17   H     H_    0.888125 0.272770 0.500342 0.128831
H18   H     H_    0.888103 0.727361 0.500552 0.155126
H19   H     H_    0.111890 0.727362 0.499481 0.155166
H20   H     H_    0.352370 0.134287 0.375706 0.111723
N1    N     N_R   0.500000 0.852070 0.500000 -0.199777
N2    N     N_R   0.500000 0.147940 0.500000 -0.278136
O1    O     O_R   0.319640 0.618740 0.499990 -0.461078
O2    O     O_3   0.665753 0.847436 0.641995 -0.528204
O3    O     O_R   0.680360 0.618740 0.500010 -0.461091
O4    O     O_R   0.319620 0.381170 0.499990 -0.518452
O5    O     O_R   0.680380 0.381170 0.500010 -0.518435
O6    O     O_R   0.500000 0.618750 0.321940 -0.471425
O7    O     O_R   0.500000 0.618750 0.678060 -0.471304
O8    O     O_R   0.499970 0.381180 0.321940 -0.506028
O9    O     O_R   0.500030 0.381180 0.678060 -0.506059
O10   O     O_3   0.334194 0.847484 0.358045 -0.528273

loop_
_geom_bond_atom_site_label_1
_geom_bond_atom_site_label_2
_ccdc_geom_bond_type
C2    C22   A    
C5    H18   S    
C9    N1    A    
C16   C21   S    
Cu1   N1    S    
C20   H14   S    
C1    O4    A    
C17   O9    A    
C15   H10   S    
C18   C20   D    
C21   H15   S    
C11   H3    S    
C6    H19   S    
C1    C4    S    
C22   H16   S    
C17   C20   S    
Cu2   O5    S    
C12   O3    A    
Cu2   N2    S    
C9    O10   S    
C7    H20   S    
Cu2   O9    S    
C10   O2    S    
C11   C13   S    
Cu1   O6    S    
C18   H1    S    
C11   H4    S    
C14   H9    S    
C13   H5    S    
C19   C21   D    
Cu1   O7    S    
C2    C3    A    
C19   H12   S    
Cu2   O4    S    
C5    C6    A    
C16   O8    A    
Cu1   O3    S    
Cu1   O1    S    
C2    H17   S    
Cu2   O8    S    
C7    N2    A    
C17   O7    A    
C13   H6    S    
C12   O5    A    
C8    H2    S    
C4    C6    A    
C18   C19   S    
C10   N1    A    
C15   H11   S    
C7    C9    A    
C4    C22   A    
C14   C15   S    
C1    O1    A    
C14   O2    S    
C3    C12   S    
Cu1   Cu2   S    
C8    N2    A    
C13   H7    S    
C8    C10   A    
C15   H13   S    
C11   O10   S    
C16   O6    A    
C14   H8    S    
C3    C5    A    
