data_mof_unit_59324.cif
_audit_creation_date              2012-12-11T18:00:02-0500
_audit_creation_method            fapswitch 2.2
_symmetry_space_group_name_H-M    P1
_symmetry_Int_Tables_number       1
_space_group_crystal_system       triclinic
_cell_length_a                    8.212227
_cell_length_b                    12.849255
_cell_length_c                    18.939331
_cell_angle_alpha                 97.764154
_cell_angle_beta                  93.085157
_cell_angle_gamma                 98.889541
_cell_volume                      1950.68663426

loop_
_atom_site_label
_atom_site_type_symbol
_atom_type_description
_atom_site_fract_x
_atom_site_fract_y
_atom_site_fract_z
_atom_type_partial_charge
Ba1   Ba    Ba6+2 0.851480 0.550950 0.465800 1.694247
Ba2   Ba    Ba6+2 0.338350 0.449140 0.534210 1.688154
C1    C     C_3   0.555869 0.833470 0.165408 -0.315117
C2    C     C_3   0.547188 0.787727 0.235822 0.358708
C3    C     C_3   0.496279 0.249758 0.309352 0.228401
C4    C     C_3   0.533192 0.193594 0.236677 0.222365
C5    C     C_3   0.079120 0.261987 0.735913 0.287599
C6    C     C_3   0.139681 0.267774 0.814622 -0.129401
C7    C     C_3   0.579872 0.174934 0.693856 0.386552
C8    C     C_3   0.641936 0.085607 0.727683 -0.277443
C9    C     C_2   0.296921 0.523275 0.295078 -0.299385
C10   C     C_3   0.426243 0.523960 0.241967 0.113887
C11   C     C_2   0.356001 0.540227 0.169086 -0.043001
C12   C     C_3   0.084148 0.775177 0.275996 0.389266
C13   C     C_2   0.192284 0.507717 0.150338 -0.037403
C14   C     C_2   0.085488 0.465657 0.205599 -0.085171
C15   C     C_1   0.148172 0.471766 0.272892 0.095611
C16   C     C_R   0.020787 0.516718 0.937029 0.515804
C17   C     C_R   0.122565 0.512595 0.076619 0.454367
C18   C     C_R   0.085873 0.560894 0.809404 0.316758
C19   C     C_R   0.037707 0.539528 0.733590 -0.040126
C20   C     C_R   0.772709 0.443363 0.757430 0.018997
C21   C     C_R   0.819386 0.458444 0.830523 -0.127445
C22   C     C_R   0.975971 0.514522 0.858087 -0.134718
C23   C     C_3   0.072425 0.805132 0.201218 -0.311945
C24   C     C_R   0.884480 0.477886 0.709928 -0.354240
C25   C     C_R   0.770328 0.180485 0.533331 -0.283075
C26   C     C_R   0.419288 0.814198 0.480965 -0.276994
C27   C     C_R   0.388485 0.991802 0.461761 -0.026261
C28   C     C_R   0.325176 0.884117 0.455700 -0.006012
C29   C     C_R   0.574693 0.850883 0.516368 0.091247
C30   C     C_R   0.640148 0.962394 0.526052 -0.073564
C31   C     C_R   0.545979 0.033061 0.496276 -0.076090
C32   C     C_R   0.614007 0.142264 0.499589 0.050796
C33   C     C_R   0.863267 0.113687 0.563752 -0.004722
C34   C     C_3   0.149989 0.784677 0.630066 0.277510
C35   C     C_R   0.797900 0.005365 0.561395 -0.087516
C36   C     C_3   0.218713 0.902332 0.650265 0.347568
C37   C     C_3   0.963538 0.221833 0.381565 0.250756
C38   C     C_3   0.984020 0.105815 0.366535 -0.316238
C39   C     C_3   0.726005 0.689708 0.678507 0.312657
C40   C     C_3   0.795096 0.724502 0.755858 -0.352872
H1    H     H_    0.354202 0.915824 0.645688 -0.037790
H2    H     H_    0.160872 0.947434 0.612910 -0.019713
H3    H     H_    0.836033 0.227022 0.395366 -0.015323
H4    H     H_    0.051089 0.259175 0.427848 0.085319
H5    H     H_    0.895705 0.063967 0.321488 0.145625
H6    H     H_    0.961488 0.067704 0.414993 0.087356
H7    H     H_    0.111780 0.099852 0.351939 0.143596
H8    H     H_    0.810426 0.643101 0.649284 -0.041678
H9    H     H_    0.605484 0.638138 0.677258 0.082195
H10   H     H_    0.453742 0.879123 0.157709 0.111051
H11   H     H_    0.929216 0.753908 0.758002 0.159645
H12   H     H_    0.776314 0.657129 0.786726 0.043074
H13   H     H_    0.732431 0.788578 0.781836 0.184442
H14   H     H_    0.425541 0.736896 0.234225 -0.156829
H15   H     H_    0.545193 0.767690 0.120031 0.139662
H16   H     H_    0.370128 0.270944 0.306576 0.017455
H17   H     H_    0.589316 0.322591 0.325326 0.049041
H18   H     H_    0.459529 0.112144 0.226536 0.084901
H19   H     H_    0.666146 0.185783 0.237650 0.059869
H20   H     H_    0.675390 0.887170 0.164614 0.112053
H21   H     H_    0.065686 0.732962 0.161046 0.082845
H22   H     H_    0.149388 0.332708 0.717667 0.077919
H23   H     H_    0.945919 0.267918 0.731020 -0.056390
H24   H     H_    0.154163 0.351322 0.841105 0.013820
H25   H     H_    0.264125 0.244672 0.818462 0.174365
H26   H     H_    0.682873 0.211826 0.665219 -0.088825
H27   H     H_    0.474228 0.140175 0.654396 0.081589
H28   H     H_    0.776443 0.106255 0.741783 0.128892
H29   H     H_    0.620427 0.010882 0.689177 0.081330
H30   H     H_    0.972259 0.718519 0.282286 0.116559
H31   H     H_    0.580808 0.071274 0.776996 0.205379
H32   H     H_    0.439158 0.568009 0.130411 0.097474
H33   H     H_    0.957732 0.430095 0.190282 0.147060
H34   H     H_    0.732404 0.426340 0.866222 0.153553
H35   H     H_    0.315329 0.580231 0.343865 0.042300
H36   H     H_    0.847411 0.460860 0.653297 0.076822
H37   H     H_    0.312754 0.041594 0.438528 0.115377
H38   H     H_    0.871868 0.955941 0.586198 0.120274
H39   H     H_    0.822184 0.263355 0.534006 0.055292
H40   H     H_    0.193069 0.735368 0.282662 -0.065532
H41   H     H_    0.368863 0.730239 0.474656 0.063490
H42   H     H_    0.959983 0.841419 0.193001 0.143247
H43   H     H_    0.182284 0.863446 0.193799 0.136606
H44   H     H_    0.167814 0.759130 0.573018 -0.044543
H45   H     H_    0.018704 0.773448 0.639949 0.036669
N1    N     N_R   0.113900 0.602921 0.977525 -0.128127
N2    N     N_R   0.165745 0.600645 0.045184 -0.233690
N3    N     N_R   0.021833 0.427830 0.037827 -0.173850
N4    N     N_R   0.972566 0.429808 0.969566 -0.207406
O1    O     O_2   0.866600 0.438960 0.328790 -0.459371
O2    O     O_3   0.706696 0.780790 0.648039 -0.610417
O3    O     O_3   0.095835 0.867040 0.326371 -0.568386
O4    O     O_2   0.323100 0.561070 0.671250 -0.433283
O5    O     O_3   0.070470 0.559320 0.583840 -0.511604
O6    O     O_3   0.535090 0.363180 0.628460 -0.488816
O7    O     O_3   0.234082 0.729021 0.673910 -0.550970
O8    O     O_3   0.609990 0.369010 0.464390 -0.484998
O9    O     O_3   0.112090 0.307030 0.593210 -0.501050
O10   O     O_2   0.209172 0.122463 0.566111 -0.510875
O11   O     O_3   0.109054 0.167318 0.695351 -0.528823
O12   O     O_3   0.119240 0.440770 0.416170 -0.500502
O13   O     O_3   0.579720 0.631080 0.535620 -0.493094
O14   O     O_2   0.340230 0.234420 0.466230 -0.478350
O15   O     O_3   0.503692 0.175606 0.356627 -0.647170
O16   O     O_2   0.429536 0.434098 0.754101 -0.482803
O17   O     O_3   0.526277 0.248015 0.746423 -0.561364
O18   O     O_3   0.654630 0.636910 0.371550 -0.461074
O19   O     O_2   0.763296 0.553623 0.252230 -0.459467
O20   O     O_3   0.992439 0.268002 0.319530 -0.626805
O21   O     O_3   0.680047 0.731711 0.242248 -0.611121
O22   O     O_2   0.849480 0.765610 0.533810 -0.483788
O23   O     O_3   0.077620 0.693060 0.406790 -0.506418
O24   O     O_2   0.984910 0.879881 0.452483 -0.468014
P1    P     P_3+3 0.034960 0.407000 0.339750 1.002991
P2    P     P_3+3 0.674960 0.749840 0.554930 1.002843
P3    P     P_3+3 0.119788 0.831486 0.411847 0.994132
P4    P     P_3+3 0.154750 0.593090 0.660260 1.052130
P5    P     P_3+3 0.072619 0.173669 0.603974 0.976841
P6    P     P_3+3 0.623221 0.613080 0.277587 0.993242
P7    P     P_3+3 0.522514 0.232535 0.446538 0.943063
P8    P     P_3+3 0.565337 0.375694 0.721706 0.985128
C41   C     C_2   0.562276 0.876374 0.297214 0.799550
O25   O     O_2   0.459926 0.936192 0.301521 -0.645126
O26   O     O_R   0.694537 0.890620 0.348871 -0.717360
H46   H     H_    0.696547 0.956321 0.384931 0.295490
S1    S     S_3+6 0.174464 0.948495 0.739582 -0.028219
O27   O     O_2   0.210400 0.871679 0.789089 -0.198711
O28   O     O_2   0.279644 0.053828 0.765994 -0.260064
O29   O     O_3   0.973897 0.961389 0.739221 -0.554484
H47   H     H_    0.945489 0.959850 0.789235 0.372472
S2    S     S_3+6 0.483569 0.259634 0.163560 -0.076641
O30   O     O_2   0.602519 0.361571 0.166667 -0.286428
O31   O     O_2   0.497953 0.189271 0.094817 -0.220866
O32   O     O_3   0.289163 0.284873 0.166211 -0.530885
H48   H     H_    0.220337 0.215285 0.168938 0.335986
C42   C     C_2   0.022439 0.200979 0.854997 0.921372
O33   O     O_2   0.068444 0.129151 0.882978 -0.510881
O34   O     O_R   0.863331 0.224328 0.863214 -0.767181
H49   H     H_    0.796596 0.174931 0.892356 0.341490
S3    S     S_3+6 0.275901 0.642871 0.846009 -0.008819
O35   O     O_2   0.236564 0.738549 0.892701 -0.191871
O36   O     O_2   0.367931 0.580410 0.891620 -0.306987
O37   O     O_3   0.403653 0.688825 0.787509 -0.447979
H50   H     H_    0.493237 0.645906 0.788865 0.335376

loop_
_geom_bond_atom_site_label_1
_geom_bond_atom_site_label_2
_ccdc_geom_bond_type
C38   H5    S    
C19   C24   A    
C6    H24   S    
O26   H46   S    
C14   H33   S    
C39   C40   S    
O5    P4    S    
O16   P8    D    
C21   H34   S    
S1    O27   D    
Ba1   O8    S    
O37   H50   S    
O7    P4    S    
C7    O17   S    
C13   C17   S    
C10   C11   S    
C24   H36   S    
Ba1   O22   S    
C3    H16   S    
C16   C22   S    
C16   N4    A    
C4    H19   S    
Ba2   O4    S    
C33   C35   A    
C7    H27   S    
C4    S2    S    
C40   H11   S    
C3    C4    S    
C8    H31   S    
C5    H23   S    
C13   C14   S    
C27   C31   A    
C2    C41   S    
C6    C42   S    
Ba1   Ba2   S    
C23   H21   S    
C29   P2    S    
C9    H35   S    
Ba1   O18   S    
C39   O2    S    
C10   P6    S    
C18   C22   A    
Ba2   O6    S    
C14   C15   D    
C5    O11   S    
C23   H42   S    
C21   C22   A    
O20   P1    S    
O9    P5    S    
Ba1   P1    S    
Ba2   O13   S    
C34   H44   S    
C7    C8    S    
Ba1   O12   S    
C37   H4    S    
C37   H3    S    
C8    H29   S    
C37   O20   S    
C2    O21   S    
Ba2   O9    S    
C34   H45   S    
C2    H14   S    
C26   H41   S    
S3    O37   S    
C33   P5    S    
O2    P2    S    
C3    O15   S    
C25   C32   A    
C35   H38   S    
C3    H17   S    
C4    H18   S    
C20   P8    S    
O34   H49   S    
C37   C38   S    
C28   P3    S    
O4    P4    D    
C16   N1    A    
C1    C2    S    
C36   H2    S    
C27   C28   A    
C17   N2    A    
C18   S3    S    
C40   H13   S    
S2    O32   S    
C29   C30   A    
C27   H37   S    
C25   H39   S    
Ba2   P4    S    
O24   P3    D    
O15   P7    S    
C23   H43   S    
C31   C32   A    
O6    P8    S    
Ba1   P2    S    
C30   C35   A    
N1    N2    A    
O1    P1    D    
Ba1   O13   S    
O23   P3    S    
C42   O34   S    
O8    P7    S    
O22   P2    D    
C1    H15   S    
Ba2   O8    S    
Ba1   O1    S    
C11   C13   D    
S2    O30   D    
S3    O36   D    
Ba1   O23   S    
C12   H40   S    
O17   P8    S    
O29   H47   S    
S1    O29   S    
C8    H28   S    
C39   H8    S    
O11   P5    S    
C41   O26   S    
O13   P2    S    
C1    H20   S    
C38   H6    S    
C9    C15   D    
C18   C19   A    
C20   C21   A    
O10   P5    D    
C12   H30   S    
C26   C29   A    
O32   H48   S    
C19   P4    S    
S1    O28   D    
C36   S1    S    
C9    C10   S    
Ba2   O14   S    
C25   C33   A    
C30   C31   A    
Ba2   O5    S    
O12   P1    S    
C7    H26   S    
C36   H1    S    
O19   P6    D    
C17   N3    A    
C1    H10   S    
C12   O3    S    
O3    P3    S    
O18   P6    S    
N3    N4    A    
Ba2   O12   S    
Ba1   O5    S    
C34   C36   S    
C26   C28   A    
O14   P7    D    
C12   C23   S    
C5    H22   S    
C5    C6    S    
C42   O33   D    
O21   P6    S    
C11   H32   S    
C6    H25   S    
C32   P7    S    
C20   C24   A    
S2    O31   D    
S3    O35   D    
C34   O7    S    
C39   H9    S    
C40   H12   S    
C38   H7    S    
C15   P1    S    
C41   O25   D    
