data_mof_unit_38600.cif
_audit_creation_date              2012-12-10T17:24:17-0500
_audit_creation_method            fapswitch 2.2
_symmetry_space_group_name_H-M    P1
_symmetry_Int_Tables_number       1
_space_group_crystal_system       triclinic
_cell_length_a                    10.095609
_cell_length_b                    10.869007
_cell_length_c                    16.866603
_cell_angle_alpha                 90.855512
_cell_angle_beta                  77.729698
_cell_angle_gamma                 96.504464
_cell_volume                      1796.75977888

loop_
_atom_site_label
_atom_site_type_symbol
_atom_type_description
_atom_site_fract_x
_atom_site_fract_y
_atom_site_fract_z
_atom_type_partial_charge
C1    C     C_R   0.558816 0.732784 0.494093 0.845319
C2    C     C_R   0.516908 0.499396 0.345510 0.872955
C3    C     C_R   0.467418 0.460454 0.739012 -0.048775
C4    C     C_R   0.524096 0.502894 0.258643 -0.052885
C5    C     C_R   0.575701 0.410033 0.762267 -0.250642
C6    C     C_R   0.408044 0.524306 0.229898 -0.253290
C7    C     C_R   0.564912 0.371474 0.841739 0.034604
C8    C     C_R   0.410963 0.523020 0.147159 0.036020
C9    C     C_R   0.443449 0.385980 0.898714 0.131532
C10   C     C_R   0.531872 0.497260 0.093326 0.136435
C11   C     C_R   0.331634 0.426912 0.874404 -0.182449
C12   C     C_R   0.441172 0.267231 0.505992 0.841822
C13   C     C_R   0.649374 0.482319 0.121595 -0.185643
C14   C     C_R   0.343703 0.464805 0.794705 -0.207121
C15   C     C_R   0.645617 0.484836 0.204145 -0.198500
C16   C     C_2   0.444192 0.392515 0.984515 -0.223657
C17   C     C_2   0.535720 0.475785 0.008069 -0.220146
C18   C     C_R   0.287116 0.547271 0.118449 0.111456
C19   C     C_R   0.162778 0.473428 0.146471 -0.180848
C20   C     C_R   0.048085 0.491425 0.115867 -0.133024
C21   C     C_R   0.055948 0.584304 0.058096 -0.121647
C22   C     C_R   0.178683 0.659352 0.030783 -0.148045
C23   C     C_2   0.596735 0.865528 0.493576 -0.230405
C24   C     C_R   0.294007 0.640995 0.060690 -0.120394
C25   C     C_R   0.684023 0.324473 0.865485 0.115656
C26   C     C_R   0.666468 0.216512 0.913258 -0.122549
C27   C     C_R   0.777495 0.175762 0.938554 -0.140209
C28   C     C_R   0.906830 0.242171 0.916415 -0.108565
C29   C     C_R   0.925484 0.349111 0.868605 -0.127340
C30   C     C_R   0.814922 0.390104 0.843019 -0.182414
C31   C     C_2   0.263998 0.086502 0.496104 0.413297
C32   C     C_2   0.735919 0.913516 0.504261 0.413277
C33   C     C_2   0.403165 0.134517 0.506802 -0.228086
C34   C     C_2   0.498160 0.935925 0.488151 -0.120119
C35   C     C_2   0.501600 0.064129 0.512515 -0.119171
C36   C     C_2   0.927059 0.510328 0.506526 -0.122592
C37   C     C_2   0.072918 0.489572 0.493529 -0.121427
C38   C     C_R   0.481725 0.495315 0.654365 0.868869
H1    H     H_    0.669525 0.400381 0.718591 0.169401
H2    H     H_    0.407307 0.894014 0.469326 0.216493
H3    H     H_    0.112895 0.421018 0.450213 0.158323
H4    H     H_    0.887074 0.578837 0.549871 0.159031
H5    H     H_    0.112883 0.616182 0.573549 0.178274
H6    H     H_    0.887132 0.383881 0.426404 0.178399
H7    H     H_    0.155650 0.400013 0.190411 0.128900
H8    H     H_    0.953576 0.432467 0.136435 0.125441
H9    H     H_    0.967198 0.597932 0.034275 0.124506
H10   H     H_    0.184772 0.731116 0.985938 0.130986
H11   H     H_    0.388842 0.699042 0.038445 0.125221
H12   H     H_    0.314712 0.541881 0.271669 0.167442
H13   H     H_    0.566793 0.164236 0.931128 0.123416
H14   H     H_    0.763141 0.092856 0.975563 0.129384
H15   H     H_    0.992564 0.210879 0.936351 0.126348
H16   H     H_    0.025453 0.400774 0.851766 0.125960
H17   H     H_    0.830912 0.474473 0.807234 0.124582
H18   H     H_    0.208735 0.143150 0.464963 0.081593
H19   H     H_    0.791372 0.856669 0.535135 0.082210
H20   H     H_    0.736424 0.469707 0.225396 0.158843
H21   H     H_    0.257948 0.500259 0.777219 0.152933
H22   H     H_    0.616519 0.527551 0.964136 0.157610
H23   H     H_    0.362035 0.341810 0.028048 0.160231
H24   H     H_    0.238905 0.438727 0.918499 0.150973
H25   H     H_    0.741958 0.462925 0.079870 0.139847
H26   H     H_    0.592391 0.106090 0.531389 0.216422
N1    N     N_2   0.846390 0.448330 0.467170 -0.188981
N2    N     N_2   0.153610 0.551670 0.532830 -0.189316
O1    O     O_R   0.430310 0.692580 0.506610 -0.587905
O2    O     O_2   0.792948 0.012546 0.474817 -0.567664
O3    O     O_R   0.569690 0.307420 0.493390 -0.589676
O4    O     O_R   0.652740 0.659410 0.485540 -0.616002
O5    O     O_R   0.347260 0.340590 0.514460 -0.617930
O6    O     O_R   0.375640 0.518570 0.627580 -0.607340
O7    O     O_R   0.624360 0.481430 0.372420 -0.608068
O8    O     O_R   0.598070 0.485390 0.606510 -0.622421
O9    O     O_R   0.401930 0.514610 0.393490 -0.620154
O10   O     O_2   0.206768 0.987707 0.525832 -0.567130
Zn1   Zn    Zn3+2 0.351480 0.522150 0.514070 0.959554
Zn2   Zn    Zn3+2 0.648520 0.477850 0.485930 0.958963

loop_
_geom_bond_atom_site_label_1
_geom_bond_atom_site_label_2
_ccdc_geom_bond_type
C22   H10   S    
C12   O3    A    
O4    Zn2   S    
C36   H4    S    
C19   C20   A    
O1    Zn1   S    
C11   H24   S    
H6    N1    S    
C14   H21   S    
C26   C27   A    
C29   C30   A    
C18   C24   A    
C36   C37   S    
C9    C16   S    
C34   C35   S    
C11   C14   A    
C29   H16   S    
C10   C17   S    
C24   H11   S    
C18   C19   A    
C33   C35   D    
C3    C38   S    
C16   C17   D    
O7    Zn2   S    
C31   C33   S    
C35   H26   S    
C31   H18   S    
C32   O2    D    
C21   C22   A    
O3    Zn2   S    
C32   H19   S    
C38   O6    A    
C4    C6    A    
C5    C7    A    
C36   N1    D    
C6    C8    A    
C25   C26   A    
C8    C18   S    
C2    C4    S    
O6    Zn1   S    
C9    C11   A    
C13   H25   S    
C23   C34   D    
C37   N2    D    
C6    H12   S    
O9    Zn1   S    
C3    C14   A    
C12   O5    A    
C1    C23   S    
C5    H1    S    
C15   H20   S    
C22   C24   A    
C16   H23   S    
O5    Zn1   S    
C27   H14   S    
C38   O8    A    
C25   C30   A    
C7    C9    A    
N2    Zn1   S    
C28   C29   A    
N1    Zn2   S    
C3    C5    A    
C10   C13   A    
C28   H15   S    
C19   H7    S    
C30   H17   S    
C1    O4    A    
C7    C25   S    
C23   C32   S    
C4    C15   A    
C13   C15   A    
C26   H13   S    
C31   O10   D    
H5    N2    S    
C2    O7    A    
C1    O1    A    
C37   H3    S    
C17   H22   S    
C20   C21   A    
C8    C10   A    
O8    Zn2   S    
C27   C28   A    
C34   H2    S    
C12   C33   S    
C20   H8    S    
C2    O9    A    
C21   H9    S    
