data_mof_unit_29179.cif
_audit_creation_date              2012-12-10T17:55:26-0500
_audit_creation_method            fapswitch 2.2
_symmetry_space_group_name_H-M    P1
_symmetry_Int_Tables_number       1
_space_group_crystal_system       triclinic
_cell_length_a                    10.90462
_cell_length_b                    9.582819
_cell_length_c                    10.966802
_cell_angle_alpha                 90.002315
_cell_angle_beta                  92.134384
_cell_angle_gamma                 89.998718
_cell_volume                      1145.20283788

loop_
_atom_site_label
_atom_site_type_symbol
_atom_type_description
_atom_site_fract_x
_atom_site_fract_y
_atom_site_fract_z
_atom_type_partial_charge
C1    C     C_R   0.262396 0.501061 0.504043 0.819157
C2    C     C_R   0.737604 0.501059 0.495948 0.819253
C3    C     C_R   0.497148 0.499482 0.265562 0.787342
C4    C     C_R   0.502865 0.499486 0.734441 0.787434
C5    C     C_2   0.486152 0.391200 0.934715 0.250105
C6    C     C_2   0.514182 0.391263 0.065318 0.249858
C7    C     C_2   0.525941 0.497500 0.865638 0.260549
C8    C     C_2   0.474132 0.497456 0.134363 0.260808
C9    C     C_R   0.063311 0.380339 0.503843 -0.235857
C10   C     C_R   0.936695 0.380339 0.496095 -0.235776
C11   C     C_R   0.871580 0.505941 0.492784 -0.177140
C12   C     C_R   0.128419 0.505943 0.507188 -0.177161
C13   C     C_R   0.936291 0.634398 0.492049 0.359221
C14   C     C_R   0.063702 0.634399 0.507933 0.359227
C15   C     C_R   0.430983 0.075482 0.414592 0.460449
C16   C     C_R   0.569022 0.075485 0.585403 0.460515
C17   C     C_R   0.430682 0.926494 0.415029 0.378348
C18   C     C_R   0.569319 0.926496 0.584968 0.378406
Cu1   Cu    Cu3+1 0.500000 0.640660 0.500000 1.130687
Cu2   Cu    Cu3+1 0.500000 0.359340 0.500000 1.067323
H1    H     H_    0.109996 0.281091 0.508454 0.189586
H2    H     H_    0.890015 0.281092 0.491460 0.189594
N1    N     N_R   0.500000 0.852070 0.500000 -0.269369
N2    N     N_R   0.500000 0.147940 0.500000 -0.276581
O1    O     O_R   0.319640 0.618740 0.499990 -0.506636
O2    O     O_R   0.680360 0.618740 0.500010 -0.506643
O3    O     O_R   0.319620 0.381170 0.499990 -0.588266
O4    O     O_R   0.680380 0.381170 0.500010 -0.588213
O5    O     O_R   0.500000 0.618750 0.321940 -0.505673
O6    O     O_R   0.500000 0.618750 0.678060 -0.505576
O7    O     O_R   0.499970 0.381180 0.321940 -0.525363
O8    O     O_R   0.500030 0.381180 0.678060 -0.525411
Cl1   Cl    Cl    0.395573 0.250611 0.877935 -0.498430
Cl2   Cl    Cl    0.605046 0.250941 0.122170 -0.498888
O9    O     O_3   0.594138 0.605653 0.918048 -0.512985
C19   C     C_3   0.719823 0.574853 0.907226 -0.173741
H3    H     H_    0.774500 0.662419 0.946997 0.222936
H4    H     H_    0.744390 0.564015 0.810019 0.151923
H5    H     H_    0.746017 0.478713 0.958835 0.145365
O10   O     O_3   0.405685 0.605385 0.081914 -0.513046
C20   C     C_3   0.280078 0.574356 0.092973 -0.174212
H6    H     H_    0.225192 0.661512 0.052793 0.222725
H7    H     H_    0.255620 0.564121 0.190249 0.152331
H8    H     H_    0.254036 0.477807 0.041896 0.145291
Cl3   Cl    Cl    0.864115 0.798225 0.463444 -0.525538
Cl4   Cl    Cl    0.135872 0.798228 0.536524 -0.525526
O11   O     O_3   0.372148 0.148850 0.320626 -0.507061
C21   C     C_3   0.243245 0.140930 0.328111 -0.119059
H9    H     H_    0.204704 0.247052 0.314371 0.143595
H10   H     H_    0.204863 0.076193 0.252042 0.221413
H11   H     H_    0.211059 0.098913 0.416218 0.152396
O12   O     O_3   0.627908 0.148864 0.679336 -0.507002
C22   C     C_3   0.756802 0.140913 0.671792 -0.118930
H12   H     H_    0.795370 0.247003 0.685617 0.143641
H13   H     H_    0.795211 0.076081 0.747773 0.221399
H14   H     H_    0.788925 0.099004 0.583625 0.152322
Cl5   Cl    Cl    0.339899 0.839621 0.303059 -0.492490
Cl6   Cl    Cl    0.660104 0.839622 0.696930 -0.492624

loop_
_geom_bond_atom_site_label_1
_geom_bond_atom_site_label_2
_ccdc_geom_bond_type
Cu1   N1    S    
C15   C17   A    
Cu2   O3    S    
C11   C13   A    
C9    C10   A    
Cu2   O4    S    
O9    C19   S    
C15   O11   S    
C3    O7    A    
O10   C20   S    
C19   H4    S    
C2    O2    A    
C16   C18   A    
C17   N1    A    
C13   C14   A    
C10   H2    S    
C1    O1    A    
C20   H7    S    
C9    H1    S    
C4    O8    A    
C1    C12   S    
C4    C7    S    
C2    C11   S    
C21   H10   S    
C19   H3    S    
C9    C12   A    
C12   C14   A    
C5    C7    D    
C22   H13   S    
Cu2   O8    S    
C5    C6    S    
Cu1   O1    S    
C20   H8    S    
C2    O4    A    
C10   C11   A    
C18   N1    A    
Cu1   O5    S    
O11   C21   S    
C6    Cl2   S    
C3    O5    A    
O12   C22   S    
C13   Cl3   S    
C16   N2    A    
C3    C8    S    
C20   H6    S    
C22   H14   S    
C17   Cl5   S    
C16   O12   S    
C1    O3    A    
Cu1   O2    S    
Cu2   N2    S    
C21   H9    S    
C6    C8    D    
C8    O10   S    
C22   H12   S    
Cu1   O6    S    
C7    O9    S    
C15   N2    A    
C18   Cl6   S    
C21   H11   S    
C4    O6    A    
Cu1   Cu2   S    
C19   H5    S    
C14   Cl4   S    
Cu2   O7    S    
C5    Cl1   S    
