data_mof_unit_25026.cif
_audit_creation_date              2012-12-11T17:41:45-0500
_audit_creation_method            fapswitch 2.2
_symmetry_space_group_name_H-M    P1
_symmetry_Int_Tables_number       1
_space_group_crystal_system       triclinic
_cell_length_a                    15.530963
_cell_length_b                    15.148344
_cell_length_c                    15.146537
_cell_angle_alpha                 109.805277
_cell_angle_beta                  121.221413
_cell_angle_gamma                 58.618097
_cell_volume                      2590.00142119

loop_
_atom_site_label
_atom_site_type_symbol
_atom_type_description
_atom_site_fract_x
_atom_site_fract_y
_atom_site_fract_z
_atom_type_partial_charge
C1    C     C_R   0.799711 0.942755 0.775529 -0.112812
C2    C     C_R   0.323048 0.364503 0.151958 -0.048926
C3    C     C_R   0.615253 0.705615 0.904981 -0.185426
C4    C     C_R   0.394710 0.264053 0.128868 -0.158423
C5    C     C_R   0.653002 0.783633 0.951619 0.130855
C6    C     C_R   0.351895 0.199596 0.044824 0.109341
C7    C     C_R   0.764969 0.757726 0.981906 -0.164541
C8    C     C_R   0.236237 0.238086 0.982980 -0.152561
C9    C     C_R   0.835844 0.656652 0.958972 -0.087003
C10   C     C_R   0.164828 0.338698 0.006105 -0.108541
C11   C     C_R   0.796038 0.580469 0.907873 0.014389
C12   C     C_R   0.240828 0.009916 0.209992 -0.109306
C13   C     C_R   0.208163 0.401745 0.090696 -0.057268
C14   C     C_R   0.583049 0.921479 0.072777 -0.233293
C15   C     C_R   0.421537 0.060897 0.922784 -0.246798
C16   C     C_R   0.231084 0.288713 0.481761 -0.260872
C17   C     C_R   0.798614 0.723850 0.555336 -0.219663
C18   C     C_R   0.508772 0.020521 0.095858 0.066535
C19   C     C_R   0.495763 0.961887 0.899485 0.061172
C20   C     C_R   0.427903 0.092073 0.021454 0.017906
C21   C     C_R   0.577024 0.890771 0.974278 0.015299
C22   C     C_2   0.133156 0.396402 0.599330 -0.118039
C23   C     C_R   0.197229 0.298773 0.554577 -0.052974
C24   C     C_2   0.975645 0.648544 0.532502 -0.121674
C25   C     C_2   0.127464 0.485462 0.593334 -0.146117
C26   C     C_2   0.036048 0.581931 0.604422 -0.131732
C27   C     C_2   0.978840 0.961189 0.848715 -0.210417
C28   C     C_2   0.146571 0.888974 0.103183 -0.210075
C29   C     C_R   0.272296 0.858397 0.711912 -0.116870
C30   C     C_R   0.717046 0.192661 0.367837 -0.095817
C31   C     C_R   0.355759 0.774554 0.684349 -0.245563
C32   C     C_R   0.639653 0.278995 0.401176 -0.216433
C33   C     C_R   0.332158 0.697115 0.605906 -0.075173
C34   C     C_R   0.861066 0.723126 0.514716 -0.065030
C35   C     C_R   0.675724 0.331322 0.500029 -0.091639
C36   C     C_R   0.221311 0.708128 0.552207 0.733729
C37   C     C_R   0.790742 0.297673 0.564072 0.749872
C38   C     C_R   0.137857 0.793143 0.579063 -0.257102
C39   C     C_R   0.867835 0.211433 0.530172 -0.274383
C40   C     C_R   0.595341 0.228176 0.550903 -0.206522
C41   C     C_R   0.407125 0.781807 0.507107 -0.238031
C42   C     C_R   0.163419 0.867668 0.659355 -0.159667
C43   C     C_R   0.831022 0.158800 0.432368 -0.152129
C44   C     C_R   0.429629 0.506187 0.573694 -0.115860
C45   C     C_R   0.504747 0.321974 0.527199 -0.138537
C46   C     C_R   0.590837 0.516181 0.551053 -0.121582
C47   C     C_R   0.510677 0.417387 0.547197 0.076253
C48   C     C_R   0.505848 0.606565 0.570912 0.059815
C49   C     C_R   0.593050 0.421395 0.536354 0.067716
C50   C     C_R   0.423495 0.603294 0.583062 0.065232
C51   C     C_2   0.037724 0.892500 0.918566 -0.103719
C52   C     C_2   0.132332 0.901714 0.012576 -0.107566
C53   C     C_R   0.407611 0.989984 0.716161 -0.077481
C54   C     C_R   0.595569 0.996895 0.280296 -0.127944
C55   C     C_R   0.410594 0.305171 0.462141 0.701681
C56   C     C_R   0.499991 0.699844 0.561017 -0.114364
C57   C     C_R   0.591599 0.712002 0.586444 0.697219
C58   C     C_R   0.592361 0.922582 0.794037 -0.066174
C59   C     C_R   0.409682 0.071035 0.203398 -0.100221
C60   C     C_R   0.233710 0.199891 0.575069 0.714015
C61   C     C_R   0.800382 0.812931 0.465600 0.696879
C62   C     C_R   0.803016 0.030732 0.685741 -0.133541
C63   C     C_R   0.241178 0.917844 0.299766 -0.135708
C64   C     C_R   0.863452 0.980837 0.775113 0.134965
C65   C     C_R   0.209147 0.935407 0.200551 0.135805
C66   C     C_R   0.499303 0.946264 0.803498 -0.009269
C67   C     C_R   0.504628 0.037092 0.191581 0.014993
C68   C     C_R   0.685994 0.604760 0.881585 -0.069462
F1    F     F_    0.193228 0.638009 0.472537 -0.699292
F2    F     F_    0.827903 0.346818 0.659971 -0.710852
F3    F     F_    0.312128 0.373283 0.398354 -0.706971
F4    F     F_    0.696269 0.662751 0.658562 -0.724908
F5    F     F_    0.208497 0.175942 0.634467 -0.750958
F6    F     F_    0.841406 0.851636 0.435350 -0.750023
H1    H     H_    0.825287 0.890091 0.826755 0.092850
H2    H     H_    0.483559 0.236357 0.175878 0.105313
H3    H     H_    0.796580 0.816213 0.021455 0.111593
H4    H     H_    0.201318 0.189741 0.917835 0.129315
H5    H     H_    0.921548 0.637407 0.980709 0.105066
H6    H     H_    0.075841 0.367686 0.958615 0.129415
H7    H     H_    0.642220 0.865531 0.130126 0.148037
H8    H     H_    0.362656 0.116959 0.865563 0.173168
H9    H     H_    0.006451 0.587969 0.658195 0.145841
H10   H     H_    0.176223 0.486369 0.562219 0.175424
H11   H     H_    0.006136 0.640843 0.478628 0.195314
H12   H     H_    0.224314 0.044974 0.148542 0.090284
H13   H     H_    0.083605 0.396194 0.630018 0.173985
H14   H     H_    0.098715 0.932889 0.680402 0.144739
H15   H     H_    0.890850 0.091814 0.406565 0.154773
H16   H     H_    0.205906 0.349767 0.440924 0.227779
H17   H     H_    0.824662 0.671727 0.607286 0.197992
H18   H     H_    0.291977 0.916307 0.774064 0.129334
H19   H     H_    0.688763 0.151780 0.292135 0.120837
H20   H     H_    0.438805 0.770024 0.723974 0.161923
H21   H     H_    0.551556 0.304411 0.351148 0.146354
H22   H     H_    0.053179 0.801208 0.537695 0.209208
H23   H     H_    0.101546 0.854270 0.105217 0.134386
H24   H     H_    0.956217 0.185022 0.579912 0.181580
H25   H     H_    0.369960 0.499254 0.585006 0.157768
H26   H     H_    0.650613 0.519366 0.536570 0.164307
H27   H     H_    0.682034 0.212605 0.597188 0.150641
H28   H     H_    0.320773 0.800964 0.481879 0.156329
H29   H     H_    0.322243 0.009472 0.695056 0.174663
H30   H     H_    0.682251 0.970021 0.299369 0.175599
H31   H     H_    0.678802 0.886349 0.846870 0.108351
H32   H     H_    0.324178 0.112391 0.150844 0.108570
H33   H     H_    0.835470 0.055587 0.655076 0.114942
H34   H     H_    0.011669 0.011208 0.852320 0.133462
H35   H     H_    0.227356 0.865705 0.319693 0.112078
H36   H     H_    0.176475 0.936645 0.009569 0.128459
H37   H     H_    0.005978 0.842287 0.916183 0.127627
H38   H     H_    0.850801 0.502376 0.889827 0.127026
H39   H     H_    0.152743 0.479525 0.108583 0.118505
H40   H     H_    0.655741 0.545313 0.843797 0.120411
H41   H     H_    0.356557 0.413590 0.217157 0.127086
H42   H     H_    0.531575 0.722690 0.887996 0.121116
N1    N     N_R   0.705410 0.966550 0.689210 -0.049419
N2    N     N_R   0.556610 0.796750 0.548620 -0.102188
N3    N     N_R   0.556610 0.951620 0.703500 -0.054673
N4    N     N_R   0.443390 0.048380 0.296500 -0.047901
N5    N     N_R   0.294590 0.131500 0.522480 -0.113904
N6    N     N_R   0.705410 0.868500 0.477520 -0.109618
N7    N     N_R   0.705410 0.023370 0.632390 -0.047669
N8    N     N_R   0.294590 0.976630 0.367610 -0.046959
N9    N     N_R   0.294590 0.033450 0.310790 -0.046494
N10   N     N_R   0.294590 0.188320 0.465660 -0.081473
N11   N     N_R   0.705410 0.811680 0.534340 -0.079886
N12   N     N_R   0.556610 0.157790 0.497330 -0.071870
N13   N     N_R   0.443390 0.842210 0.502670 -0.075420
N14   N     N_R   0.443390 0.997080 0.657540 -0.049854
N15   N     N_R   0.556610 0.002920 0.342460 -0.043122
N16   N     N_R   0.443390 0.203250 0.451380 -0.103362
Ni1   Ni    Ni4+2 0.629830 0.882720 0.617850 0.238870
Ni2   Ni    Ni4+2 0.370170 0.117280 0.382150 0.239745
Ni3   Ni    Ni4+2 0.629830 0.013030 0.487540 0.240953
Ni4   Ni    Ni4+2 0.370170 0.986970 0.512460 0.224376

loop_
_geom_bond_atom_site_label_1
_geom_bond_atom_site_label_2
_ccdc_geom_bond_type
C28   H23   S    
N9    Ni2   S    
C41   N13   A    
C63   C65   A    
C16   H16   S    
C59   N4    A    
C29   C42   A    
N4    N15   A    
C14   C18   A    
C3    C68   A    
C17   H17   S    
N1    Ni1   S    
C33   C36   A    
C63   N8    A    
C47   C49   A    
C56   C57   A    
C15   C19   A    
C54   N15   A    
C46   C49   A    
N3    Ni1   S    
C26   H9    S    
C14   C21   A    
C54   H30   S    
C35   C37   A    
C24   C26   D    
C38   C42   A    
C30   H19   S    
N15   Ni3   S    
C3    H42   S    
C44   H25   S    
C40   N12   A    
C60   F5    S    
N3    N14   A    
C41   H28   S    
C19   C66   S    
C48   C56   S    
C9    H5    S    
N6    N11   A    
C2    C13   A    
C62   C64   A    
C33   C50   S    
C59   C67   A    
C40   H27   S    
C58   C66   A    
C22   C25   D    
C35   C49   S    
C25   H10   S    
C31   C33   A    
C24   H11   S    
N4    Ni2   S    
C44   C47   A    
C7    H3    S    
C48   C50   A    
N5    Ni4   S    
C37   F2    S    
C8    H4    S    
C40   C45   A    
N12   N16   A    
C62   N7    A    
C27   C51   D    
C15   H8    S    
C60   N5    A    
C45   C47   S    
C23   C60   A    
C37   C39   A    
C46   C48   A    
C59   H32   S    
N8    Ni4   S    
C51   C52   S    
C1    H1    S    
C32   C35   A    
C4    C6    A    
N12   Ni3   S    
C5    C7    A    
C10   H6    S    
C17   N11   A    
C39   H24   S    
C39   C43   A    
C12   N9    A    
C18   C67   S    
C34   C61   A    
C24   C34   S    
N7    Ni3   S    
C61   N6    A    
C63   H35   S    
C2    C4    A    
C41   C56   A    
N13   Ni4   S    
C2    H41   S    
C52   H36   S    
C15   C20   A    
C43   H15   S    
C22   H13   S    
C53   C66   A    
C9    C11   A    
C45   C55   A    
N2    Ni1   S    
C8    C10   A    
C16   C23   A    
C30   C43   A    
C42   H14   S    
C17   C34   A    
C62   H33   S    
C1    C64   A    
C11   C68   A    
C44   C50   A    
C7    C9    A    
C46   H26   S    
C51   H37   S    
C19   C21   A    
C11   H38   S    
N14   Ni4   S    
N11   Ni1   S    
C3    C5    A    
C10   C13   A    
C6    C8    A    
C54   C67   A    
C61   F6    S    
C31   H20   S    
C6    C20   S    
C12   C65   A    
C12   H12   S    
C58   H31   S    
C36   C38   A    
C28   C65   S    
C25   C26   S    
N5    N10   A    
C29   C31   A    
N2    N13   A    
C30   C32   A    
C28   C52   D    
C27   H34   S    
C53   H29   S    
C58   N3    A    
C18   C20   A    
C57   F4    S    
N1    N7    A    
C36   F1    S    
C13   H39   S    
N6    Ni3   S    
C4    H2    S    
C27   C64   S    
C32   H21   S    
C5    C21   S    
N10   Ni2   S    
N16   Ni2   S    
C55   N16   A    
C38   H22   S    
C22   C23   S    
N8    N9    A    
C53   N14   A    
C14   H7    S    
C1    N1    A    
C16   N10   A    
C29   H18   S    
C55   F3    S    
C68   H40   S    
C57   N2    A    
