data_mof_unit_30777.cif
_audit_creation_date              2012-12-10T17:01:34-0500
_audit_creation_method            fapswitch 2.2
_symmetry_space_group_name_H-M    P1
_symmetry_Int_Tables_number       1
_space_group_crystal_system       triclinic
_cell_length_a                    10.033999
_cell_length_b                    11.00802
_cell_length_c                    12.965228
_cell_angle_alpha                 88.642328
_cell_angle_beta                  75.452715
_cell_angle_gamma                 111.084792
_cell_volume                      1282.9966827

loop_
_atom_site_label
_atom_site_type_symbol
_atom_type_description
_atom_site_fract_x
_atom_site_fract_y
_atom_site_fract_z
_atom_type_partial_charge
C1    C     C_R   0.439505 0.254121 0.509157 0.862163
C2    C     C_R   0.560309 0.745715 0.493420 0.835597
C3    C     C_2   0.083296 0.526636 0.504798 0.044426
C4    C     C_2   0.919863 0.506916 0.522764 0.145981
C5    C     C_R   0.473555 0.497782 0.701823 0.817160
C6    C     C_R   0.526467 0.502243 0.298171 0.786745
C7    C     C_R   0.542482 0.507908 0.183688 -0.038473
C8    C     C_R   0.457675 0.491871 0.816276 -0.029943
C9    C     C_R   0.328509 0.364923 0.990269 -0.210936
C10   C     C_R   0.671973 0.634512 0.009578 -0.208934
C11   C     C_R   0.338283 0.387509 0.882918 -0.235307
C12   C     C_R   0.662184 0.611964 0.116942 -0.259323
C13   C     C_R   0.565661 0.581291 0.858081 0.104488
C14   C     C_R   0.434492 0.418465 0.141900 0.109544
C15   C     C_R   0.560033 0.554594 0.966547 0.126970
C16   C     C_R   0.440334 0.444949 0.033348 0.122790
C17   C     C_2   0.405849 0.113647 0.518500 -0.338683
C18   C     C_2   0.594171 0.885935 0.490955 -0.357625
C19   C     C_2   0.515895 0.069676 0.507766 -0.120592
C20   C     C_2   0.483904 0.929902 0.517251 -0.134121
Cu1   Cu    Cu3+1 0.647370 0.522180 0.481340 0.977286
Cu2   Cu    Cu3+1 0.352630 0.477820 0.518660 0.933672
H1    H     H_    0.746335 0.679274 0.149006 0.159411
H2    H     H_    0.254270 0.320092 0.850806 0.158258
H3    H     H_    0.233401 0.282755 0.038150 0.159296
H4    H     H_    0.767134 0.716606 0.961649 0.160926
H5    H     H_    0.368590 0.862530 0.544349 0.218027
H6    H     H_    0.631284 0.137025 0.489979 0.194666
H7    H     H_    0.709674 0.953692 0.465953 0.155099
H8    H     H_    0.290876 0.045870 0.535018 0.170423
N1    N     N_2   0.131210 0.444490 0.546730 -0.185549
N2    N     N_2   0.868790 0.555510 0.453270 -0.146099
O1    O     O_R   0.578710 0.332530 0.490040 -0.539022
O2    O     O_R   0.421290 0.667470 0.509960 -0.597455
O3    O     O_R   0.329810 0.295070 0.521560 -0.593894
O4    O     O_R   0.670190 0.704930 0.478440 -0.565888
O5    O     O_R   0.604230 0.515670 0.637800 -0.556758
O6    O     O_R   0.395770 0.484330 0.362200 -0.593952
O7    O     O_R   0.355330 0.478200 0.669330 -0.579035
O8    O     O_R   0.644670 0.521800 0.330670 -0.597066
C21   C     C_3   0.317886 0.293724 0.210643 -0.853058
H9    H     H_    0.340451 0.273307 0.287249 0.241864
H10   H     H_    0.206524 0.299994 0.228801 0.231517
H11   H     H_    0.316730 0.207532 0.167554 0.225981
C22   C     C_3   0.681741 0.706445 0.789585 -0.867472
H12   H     H_    0.659316 0.726707 0.712891 0.238661
H13   H     H_    0.682028 0.792335 0.832873 0.227746
H14   H     H_    0.793478 0.701023 0.771577 0.230574
C23   C     C_2   0.823854 0.448303 0.631442 0.425333
H15   H     H_    0.848604 0.496890 0.700080 0.039410
O9    O     O_2   0.722825 0.340944 0.645927 -0.552106
C24   C     C_2   0.191597 0.651409 0.439551 0.384714
H16   H     H_    0.289844 0.653904 0.379834 0.118714
O10   O     O_2   0.167219 0.752242 0.448072 -0.589207
C25   C     C_3   0.942311 0.567408 0.338809 -0.458760
H17   H     H_    0.868510 0.494029 0.300550 0.203720
H18   H     H_    0.969066 0.667579 0.300289 0.201415
H19   H     H_    0.043065 0.543392 0.319527 0.123485
C26   C     C_3   0.028048 0.318149 0.606179 -0.517641
H20   H     H_    0.087156 0.253846 0.616954 0.224132
H21   H     H_    0.974037 0.330495 0.688866 0.176795
H22   H     H_    0.946055 0.266329 0.562472 0.189910

loop_
_geom_bond_atom_site_label_1
_geom_bond_atom_site_label_2
_ccdc_geom_bond_type
C5    C8    S    
C3    N1    D    
C25   H17   S    
C6    O6    A    
C8    C13   A    
C17   H8    S    
C20   H5    S    
C5    O5    A    
C2    C18   S    
C9    C11   A    
C21   H9    S    
C14   C21   S    
N2    C25   S    
C1    C17   S    
C19   C20   S    
C4    C23   S    
C3    C24   S    
C10   H4    S    
C25   H18   S    
C9    H3    S    
C26   H20   S    
C18   H7    S    
C22   H12   S    
C13   C22   S    
C19   H6    S    
C21   H10   S    
C12   H1    S    
C2    O2    A    
C4    N2    D    
Cu1   O8    S    
C10   C12   A    
C8    C11   A    
Cu2   O7    S    
C17   C19   D    
C9    C16   A    
C24   O10   D    
C6    C7    S    
C18   C20   D    
C10   C15   A    
C13   C15   A    
C2    O4    A    
C7    C12   A    
Cu2   O2    S    
C21   H11   S    
C14   C16   A    
C26   H21   S    
Cu2   O3    S    
Cu2   N1    S    
C1    O1    A    
C15   C16   A    
Cu2   O6    S    
Cu1   N2    S    
C11   H2    S    
C6    O8    A    
Cu1   O1    S    
C24   H16   S    
C1    O3    A    
Cu1   O5    S    
C25   H19   S    
C23   H15   S    
C22   H13   S    
N1    C26   S    
Cu1   O4    S    
C5    O7    A    
C26   H22   S    
C22   H14   S    
Cu1   Cu2   S    
C7    C14   A    
C3    C4    S    
C23   O9    D    
