data_mof_unit_67329.cif
_audit_creation_date              2013-03-05T16:05:29-0500
_audit_creation_method            fapswitch 2.2
_symmetry_space_group_name_H-M    P1
_symmetry_Int_Tables_number       1
_space_group_crystal_system       triclinic
_cell_length_a                    8.495393
_cell_length_b                    15.406798
_cell_length_c                    15.153616
_cell_angle_alpha                 97.480003
_cell_angle_beta                  100.15465
_cell_angle_gamma                 99.965121
_cell_volume                      1896.28792204

loop_
_atom_site_label
_atom_site_type_symbol
_atom_site_description
_atom_site_fract_x
_atom_site_fract_y
_atom_site_fract_z
_atom_type_partial_charge
P1    P     P_3+3 0.996530 0.418490 0.288400 0.456649
O1    O     O_2   0.826410 0.445300 0.275350 -0.353495
O2    O     O_3   0.098900 0.448430 0.388910 -0.413108
O3    O     O_3   0.628630 0.613330 0.338230 -0.400540
O4    O     O_2   0.730674 0.544069 0.187945 -0.414532
O5    O     O_3   0.941621 0.301893 0.262737 -0.580845
O6    O     O_3   0.628889 0.682535 0.168707 -0.608424
H1    H     H_    0.698356 0.762015 0.294664 0.053224
C1    C     C_3   0.678922 0.843315 0.192538 -1.065732
H2    H     H_    0.811650 0.860021 0.200292 0.284701
H3    H     H_    0.620704 0.839069 0.120471 0.246122
P2    P     P_3+3 0.693090 0.712100 0.580610 0.447416
P3    P     P_3+3 0.091950 0.778411 0.395543 0.488282
O7    O     O_2   0.863180 0.725040 0.553770 -0.337700
O8    O     O_3   0.060890 0.661420 0.386090 -0.399521
O9    O     O_2   0.963022 0.807770 0.446054 -0.363437
O10   O     O_3   0.765079 0.731571 0.698633 -0.586777
O11   O     O_3   0.015715 0.801698 0.284824 -0.505851
C2    C     C_3   0.020688 0.735245 0.211260 0.323298
H4    H     H_    0.953818 0.669155 0.217558 0.173321
H5    H     H_    0.146157 0.734654 0.206597 0.111384
C3    C     C_3   0.960529 0.756802 0.116213 -1.015259
H6    H     H_    0.012625 0.718103 0.065282 0.238110
H7    H     H_    0.827766 0.736862 0.092550 0.297813
C4    C     C_3   0.130233 0.737259 0.753443 0.426046
H8    H     H_    0.105282 0.787158 0.709816 0.136840
H9    H     H_    0.013380 0.690021 0.745741 0.100082
C5    C     C_3   0.184967 0.783061 0.852297 -1.145015
H10   H     H_    0.281129 0.843070 0.858116 0.264106
H11   H     H_    0.081189 0.804817 0.877788 0.285267
H12   H     H_    0.231269 0.736719 0.895782 0.263040
Ba1   Ba    Ba6+2 0.844890 0.542420 0.457460 1.540461
C6    C     C_3   0.884261 0.265107 0.332779 0.402277
H13   H     H_    0.786230 0.297654 0.351929 0.123264
H14   H     H_    0.986221 0.272493 0.392037 0.100042
C7    C     C_3   0.815025 0.165963 0.297137 -1.050843
H15   H     H_    0.712476 0.158288 0.238304 0.275494
H16   H     H_    0.769985 0.131005 0.349631 0.224053
H17   H     H_    0.910418 0.132548 0.275022 0.248837
C8    C     C_3   0.665628 0.675437 0.740530 0.264540
H18   H     H_    0.658317 0.604208 0.712514 0.092110
H19   H     H_    0.544108 0.693137 0.730500 0.133958
C9    C     C_3   0.738383 0.688627 0.842439 0.022781
H20   H     H_    0.859440 0.669801 0.852177 0.103668
H21   H     H_    0.664163 0.641453 0.876049 0.039044
P4    P     P_3+3 0.193180 0.581580 0.711620 0.465202
O12   O     O_2   0.363300 0.554730 0.724710 -0.392096
O13   O     O_3   0.090820 0.551650 0.611100 -0.362517
O14   O     O_3   0.561090 0.386750 0.661790 -0.345722
O15   O     O_3   0.253082 0.697603 0.724253 -0.579228
P5    P     P_3+3 0.081818 0.221550 0.601642 0.482581
O16   O     O_3   0.598940 0.388670 0.448890 -0.363619
O17   O     O_3   0.128820 0.338650 0.613920 -0.364196
O18   O     O_2   0.198356 0.184769 0.546058 -0.402393
O19   O     O_3   0.139644 0.187513 0.706491 -0.554419
Ba2   Ba    Ba6+2 0.344950 0.457650 0.542550 1.571201
P6    P     P_3+3 0.591753 0.584268 0.216512 0.429225
C10   C     C_3   0.617166 0.757813 0.227245 1.152680
H22   H     H_    0.650302 0.900477 0.234064 0.244603
O20   O     O_3   0.590780 0.611410 0.551120 -0.421934
C11   C     C_3   0.262611 0.234301 0.266456 0.295638
H23   H     H_    0.196836 0.195133 0.309630 0.028307
H24   H     H_    0.229512 0.300408 0.269834 0.123424
C12   C     C_3   0.191527 0.180239 0.171324 0.058807
H25   H     H_    0.057139 0.174647 0.158896 0.143189
H26   H     H_    0.208136 0.110634 0.165986 0.051297
P7    P     P_3+3 0.493171 0.274996 0.413595 0.423317
O21   O     O_2   0.326530 0.274990 0.446290 -0.383992
O22   O     O_3   0.435025 0.246544 0.293382 -0.612847
H27   H     H_    0.999145 0.828513 0.112732 0.253229
C13   C     C_3   0.108163 0.244322 0.779227 0.187485
H28   H     H_    0.221464 0.294047 0.810969 0.046845
H29   H     H_    0.015852 0.283546 0.758175 0.136739
C14   C     C_3   0.055934 0.187517 0.850024 0.701368
H30   H     H_    0.166667 0.183298 0.899125 -0.109634
P8    P     P_3+3 0.611673 0.407022 0.781106 0.461204
C15   C     C_3   0.529563 0.231218 0.755176 0.907626
O23   O     O_2   0.480805 0.451168 0.817444 -0.426233
O24   O     O_3   0.591676 0.305692 0.824105 -0.586376
H31   H     H_    0.430634 0.244152 0.703449 0.081088
H32   H     H_    0.558582 0.131182 0.842721 0.292378
C16   C     C_3   0.459993 0.153387 0.799020 -0.988497
H33   H     H_    0.391627 0.096510 0.745988 0.248649
H34   H     H_    0.379863 0.174637 0.843210 0.214161
C17   C     C_R   0.821456 0.471192 0.830456 0.208417
C18   C     C_R   0.893483 0.477430 0.923455 0.002736
C19   C     C_R   0.041319 0.467992 0.106583 -0.013751
C20   C     C_R   0.874061 0.438826 0.073157 -0.012626
C21   C     C_R   0.802543 0.445499 0.984801 -0.118670
C22   C     C_R   0.116288 0.456340 0.195686 0.175033
H35   H     H_    0.797654 0.406000 0.113183 0.160180
H36   H     H_    0.675446 0.421266 0.962171 0.173013
C23   C     C_R   0.289028 0.463339 0.210397 -0.421807
C24   C     C_R   0.084161 0.537204 0.799287 0.188469
C25   C     C_R   0.157847 0.541955 0.892692 -0.025552
C26   C     C_R   0.062581 0.509170 0.954263 0.059290
C27   C     C_R   0.324418 0.575284 0.926088 -0.149373
C28   C     C_R   0.399435 0.565298 0.012557 -0.142570
C29   C     C_R   0.308944 0.527634 0.072687 -0.017335
C30   C     C_R   0.137559 0.502805 0.045278 0.053400
C31   C     C_R   0.386999 0.510008 0.157001 0.172447
C32   C     C_R   0.917678 0.500470 0.770165 -0.478075
H37   H     H_    0.531102 0.581783 0.028651 0.171401
H38   H     H_    0.400198 0.606008 0.884495 0.148770
H39   H     H_    0.350881 0.443215 0.270261 0.156948
H40   H     H_    0.861739 0.494289 0.699100 0.187801
C33   C     C_R   0.305320 0.836051 0.468428 0.225220
H41   H     H_    0.330968 0.723648 0.537986 0.168278
C34   C     C_R   0.570318 0.801626 0.542357 0.200929
C35   C     C_R   0.770761 0.227915 0.509810 -0.379700
C36   C     C_R   0.869756 0.171448 0.543722 0.330973
C37   C     C_R   0.805170 0.080069 0.538177 -0.182006
C38   C     C_R   0.636854 0.044543 0.503041 0.076799
C39   C     C_R   0.538508 0.105053 0.470476 -0.078357
C40   C     C_R   0.560634 0.952297 0.501426 0.040699
C41   C     C_R   0.390006 0.922756 0.460583 -0.198248
C42   C     C_R   0.312650 0.982208 0.413084 0.547093
C43   C     C_R   0.375727 0.072438 0.432331 -0.254823
C44   C     C_R   0.649339 0.887698 0.534007 -0.247835
C45   C     C_R   0.395913 0.783921 0.521477 -0.417876
C46   C     C_R   0.606355 0.196051 0.470924 0.236915
H42   H     H_    0.780256 0.902455 0.552540 0.153914
H43   H     H_    0.822808 0.298017 0.514301 0.150418
H44   H     H_    0.886707 0.039508 0.565066 0.142521
H45   H     H_    0.299619 0.114058 0.402938 0.181423
O25   O     O_3   0.760399 0.779020 0.882890 -0.596680
C47   C     C_3   0.621028 0.794060 0.916499 0.259798
H46   H     H_    0.608099 0.757589 0.974301 0.066928
H47   H     H_    0.508701 0.771062 0.863016 0.126309
C48   C     C_3   0.639021 0.893781 0.950161 -0.378508
H48   H     H_    0.539185 0.904422 0.986200 0.171401
H49   H     H_    0.757395 0.918737 0.999019 0.217495
C49   C     C_3   0.631313 0.947067 0.871995 -0.751537
H50   H     H_    0.712261 0.928013 0.826383 0.277310
H51   H     H_    0.671359 0.019079 0.900196 0.272966
H52   H     H_    0.505289 0.935248 0.831396 0.224966
O26   O     O_3   0.451361 0.755562 0.225074 -0.701768
C50   C     C_3   0.414073 0.750288 0.310598 -0.007331
H53   H     H_    0.342106 0.801060 0.317118 0.144362
H54   H     H_    0.519604 0.771671 0.368099 0.084234
C51   C     C_3   0.314612 0.656329 0.311265 -0.316544
H55   H     H_    0.187610 0.635688 0.278750 0.143223
H56   H     H_    0.339837 0.620612 0.256397 0.190914
C52   C     C_3   0.356088 0.611582 0.393900 -0.589666
H57   H     H_    0.464780 0.654179 0.432368 0.239022
H58   H     H_    0.384225 0.545315 0.378659 0.230394
H59   H     H_    0.268033 0.602553 0.438385 0.256698
O27   O     O_3   0.246199 0.223380 0.103474 -0.585370
C53   C     C_3   0.392055 0.199826 0.084986 0.316891
H60   H     H_    0.364561 0.154050 0.018801 0.075523
H61   H     H_    0.456152 0.166558 0.137270 0.084756
C54   C     C_3   0.508584 0.284544 0.080098 -0.343906
H62   H     H_    0.549766 0.324477 0.149620 0.225536
H63   H     H_    0.616880 0.267048 0.055687 0.194889
C55   C     C_3   0.425969 0.340149 0.017172 -0.751027
H64   H     H_    0.493886 0.409407 0.035418 0.213850
H65   H     H_    0.300736 0.343292 0.025867 0.313339
H66   H     H_    0.422394 0.313630 0.945438 0.255973
N1    N     N_R   0.956808 0.231219 0.903788 0.236834
O28   O     O_R   0.844015 0.183150 0.934751 -0.407459
O29   O     O_R   0.012477 0.313325 0.943097 -0.472782
O30   O     O_3   0.964011 0.103284 0.803556 -0.582691
C56   C     C_3   0.037221 0.031656 0.827449 0.244281
H67   H     H_    0.994022 0.010420 0.887873 0.089001
H68   H     H_    0.173010 0.048416 0.845030 0.081429
C57   C     C_3   0.983779 0.954010 0.747705 -0.273321
H69   H     H_    0.972944 0.890284 0.774389 0.197426
H70   H     H_    0.860878 0.955936 0.709254 0.231381
C58   C     C_3   0.103998 0.956239 0.683441 -0.925198
H71   H     H_    0.121917 0.020812 0.658360 0.305117
H72   H     H_    0.056645 0.902167 0.623958 0.268172
H73   H     H_    0.223760 0.946081 0.718941 0.243911
N2    N     N_R   0.659891 0.208477 0.711657 0.212510
O31   O     O_R   0.753223 0.270743 0.684447 -0.477622
O32   O     O_R   0.684869 0.127200 0.700055 -0.408582
O33   O     O_3   0.180919 0.955066 0.342021 -0.625359
C59   C     C_3   0.225139 0.954127 0.254582 0.194839
H74   H     H_    0.128780 0.977264 0.209611 0.115588
H75   H     H_    0.220964 0.884854 0.225425 0.178329
C60   C     C_3   0.394793 0.003567 0.245379 -0.452701
H76   H     H_    0.409802 0.076546 0.264692 0.227312
H77   H     H_    0.492152 0.981571 0.290592 0.209170
C61   C     C_3   0.417252 0.982938 0.147198 -1.001754
H78   H     H_    0.400048 0.909814 0.125372 0.294409
H79   H     H_    0.541678 0.015282 0.141703 0.275575
H80   H     H_    0.326319 0.006944 0.099512 0.251576

loop_
_geom_bond_atom_site_label_1
_geom_bond_atom_site_label_2
_geom_bond_distance
_ccdc_geom_bond_type
C19   C20   1.394086 A    
P1    C22   1.964947 S    
C55   H65   1.103261 S    
Ba1   O13   2.810976 S    
C58   H71   1.106253 S    
H41   C45   1.077572 S    
C25   C26   1.424131 A    
P8    O24   1.761469 S    
P3    C33   1.943145 S    
C12   O27   1.397894 S    
C51   H56   1.012211 S    
H32   C16   1.104394 S    
C53   H60   1.110892 S    
O8    Ba1   2.819568 S    
N2    O31   1.293824 A    
C4    C5    1.524395 S    
O25   C47   1.411311 S    
P3    O11   1.793642 S    
C5    H10   1.105401 S    
C56   H68   1.113120 S    
P8    O23   1.543352 D    
C37   H44   1.073764 S    
P1    O2    1.581166 S    
C53   H61   1.112263 S    
C35   C46   1.391459 A    
C17   C18   1.417752 A    
O17   Ba2   2.820238 S    
C28   H37   1.079133 S    
C28   C29   1.410047 A    
C26   C30   1.436880 A    
C6    C7    1.527461 S    
C41   C42   1.414963 A    
O1    Ba1   2.927449 S    
O11   C2    1.423777 S    
C19   C30   1.436994 A    
C11   H24   1.099842 S    
C35   C36   1.394792 A    
Ba1   O16   2.846937 S    
H1    C10   1.114702 S    
C4    O15   1.404008 S    
C39   C46   1.419269 A    
C8    C9    1.531803 S    
C56   H67   1.111339 S    
C5    H11   1.107923 S    
C59   H75   1.092773 S    
O3    P6    1.798152 S    
C49   H52   1.108596 S    
C15   N2    1.454331 S    
N1    O29   1.294650 A    
C43   H45   1.069558 S    
C1    H2    1.093823 S    
O6    C10   1.394700 S    
C11   H23   1.104262 S    
C60   C61   1.532611 S    
C23   H39   1.075496 S    
C15   O24   1.403585 S    
P2    Ba1   3.567215 S    
C55   H66   1.103589 S    
C57   H70   1.109604 S    
C58   H72   1.108595 S    
N1    O28   1.300083 A    
C24   C25   1.430160 A    
C52   H59   1.095254 S    
P7    C46   1.882540 S    
C9    O25   1.413296 S    
P2    C34   1.954291 S    
C60   H77   1.107253 S    
C27   C28   1.392383 A    
N2    O32   1.300696 A    
P4    O13   1.581253 S    
C14   H30   1.108939 S    
P7    O21   1.580166 D    
C56   C57   1.529588 S    
O27   C53   1.413194 S    
C51   C52   1.523409 S    
C52   H58   1.093329 S    
C61   H80   1.107875 S    
C23   C31   1.430468 A    
C14   O30   1.416785 S    
C4    H8    1.101073 S    
Ba2   O21   2.961471 S    
C7    H17   1.108751 S    
P1    Ba1   3.551040 S    
Ba2   O20   2.846453 S    
P7    O22   1.776074 S    
O10   C8    1.394299 S    
C12   H26   1.100127 S    
P2    O10   1.753224 S    
C11   C12   1.530674 S    
C48   H49   1.112114 S    
C9    H20   1.106540 S    
C47   H47   1.108388 S    
C61   H78   1.108582 S    
C42   O33   1.372142 S    
C35   H43   1.082408 S    
C1    H3    1.105116 S    
O2    Ba2   2.811604 S    
C29   C30   1.411158 A    
P4    C24   1.881816 S    
C54   C55   1.523345 S    
C59   C60   1.547749 S    
C2    C3    1.539383 S    
C6    H13   1.105032 S    
O14   P8    1.756104 S    
O3    Ba1   2.805606 S    
C54   H62   1.112470 S    
C21   H36   1.058023 S    
C9    H21   1.111851 S    
C24   C32   1.397592 A    
C39   C43   1.378772 A    
O16   P7    1.789608 S    
C18   C26   1.407734 A    
C14   N1    1.456562 S    
C10   O26   1.397430 S    
C8    H18   1.110953 S    
C29   C31   1.414150 A    
C54   H63   1.111666 S    
C16   H33   1.107681 S    
C16   H34   1.095350 S    
P3    O8    1.758931 S    
C49   H50   1.105201 S    
C58   H73   1.110444 S    
C3    H7    1.097198 S    
C53   C54   1.514266 S    
C48   C49   1.525051 S    
C4    H9    1.102602 S    
Ba1   O20   3.047321 S    
C47   H46   1.111636 S    
C50   C51   1.546965 S    
C33   C45   1.430899 A    
C55   H64   1.096264 S    
C3    H27   1.107668 S    
C60   H76   1.103488 S    
C34   C44   1.410934 A    
C22   C23   1.427756 A    
C13   H29   1.099079 S    
C38   C39   1.433394 A    
C15   H31   1.107616 S    
C11   O22   1.421644 S    
O13   Ba2   3.052652 S    
P4    O12   1.557683 D    
O33   C59   1.438538 S    
P5    C36   1.842970 S    
C36   C37   1.405617 A    
C2    H5    1.082114 S    
C44   H42   1.073894 S    
C5    H12   1.107706 S    
O7    Ba1   2.961422 S    
C52   H57   1.060200 S    
C18   C21   1.394210 A    
C13   C14   1.546510 S    
C25   C27   1.396643 A    
P3    O9    1.538535 D    
C50   H54   1.104140 S    
O30   C56   1.413480 S    
O14   Ba2   2.804983 S    
P6    C31   1.907207 S    
O26   C50   1.396372 S    
P4    O15   1.747190 S    
C40   C44   1.434753 A    
O5    C6    1.388752 S    
O4    P6    1.525487 D    
P5    O18   1.540999 D    
C12   H25   1.110062 S    
C2    H4    1.101295 S    
C61   H79   1.110025 S    
C48   H48   1.110230 S    
P2    O7    1.556207 D    
C47   C48   1.526836 S    
C13   H28   1.109207 S    
C51   H55   1.077492 S    
C7    H16   1.103091 S    
C57   H69   1.105073 S    
C20   H35   1.072414 S    
O16   Ba2   3.046390 S    
C15   C16   1.526184 S    
P1    O1    1.557410 D    
C8    H19   1.102775 S    
C6    H14   1.111124 S    
O6    P6    1.765582 S    
C32   H40   1.082493 S    
P5    O19   1.752608 S    
O2    Ba1   3.051703 S    
C33   C41   1.433564 A    
C27   H38   1.072869 S    
C50   H53   1.078028 S    
P2    O20   1.605489 S    
C37   C38   1.418630 A    
C20   C21   1.393926 A    
C1    C10   1.525008 S    
C57   C58   1.529665 S    
C7    H15   1.109419 S    
C59   H74   1.108660 S    
C19   C22   1.435422 A    
P4    Ba2   3.551795 S    
P1    O5    1.749280 S    
C49   H51   1.106333 S    
C3    H6    1.113099 S    
P5    O17   1.756718 S    
C42   C43   1.373402 A    
C1    H22   1.102037 S    
P8    C17   1.854889 S    
Ba1   Ba2   4.675107 S    
O19   C13   1.409348 S    
C17   C32   1.396222 A    
C40   C41   1.439928 A    
C34   C45   1.429029 A    
O12   Ba2   2.928095 S    
C38   C40   1.451413 A    
