data_mof_unit_10524.cif
_audit_creation_date              2013-03-05T16:05:14-0500
_audit_creation_method            fapswitch 2.2
_symmetry_space_group_name_H-M    P1
_symmetry_Int_Tables_number       1
_space_group_crystal_system       triclinic
_cell_length_a                    11.553973
_cell_length_b                    14.972544
_cell_length_c                    15.506548
_cell_angle_alpha                 82.391298
_cell_angle_beta                  89.736926
_cell_angle_gamma                 104.129723
_cell_volume                      2576.55040273

loop_
_atom_site_label
_atom_site_type_symbol
_atom_site_description
_atom_site_fract_x
_atom_site_fract_y
_atom_site_fract_z
_atom_type_partial_charge
O1    O     O_R   0.466720 0.383110 0.605620 -0.615502
O2    O     O_R   0.533280 0.616890 0.394380 -0.612490
O3    O     O_R   0.509090 0.531900 0.639510 -0.619294
O4    O     O_R   0.490910 0.468100 0.360490 -0.626847
C1    C     C_R   0.485745 0.441945 0.662113 0.870437
C2    C     C_R   0.518572 0.558121 0.337877 0.870428
O5    O     O_R   0.644370 0.425610 0.483050 -0.607276
O6    O     O_R   0.355630 0.574390 0.516950 -0.609826
O7    O     O_R   0.686740 0.574390 0.516930 -0.605692
O8    O     O_R   0.313260 0.425610 0.483070 -0.595219
C3    C     C_R   0.718003 0.500808 0.500120 0.901616
C4    C     C_R   0.282000 0.499201 0.499873 0.905498
Zn1   Zn    Zn3+2 0.471710 0.400660 0.477370 0.969606
Zn2   Zn    Zn3+2 0.528290 0.599340 0.522630 0.968332
C5    C     C_1   0.839001 0.502030 0.500424 -0.153173
C6    C     C_1   0.161004 0.498013 0.499559 -0.155295
C7    C     C_1   0.940939 0.501072 0.500219 0.038916
C8    C     C_1   0.059075 0.499003 0.499760 0.038469
C9    C     C_R   0.494144 0.407939 0.754117 -0.065147
C10   C     C_R   0.545329 0.592893 0.245595 -0.065535
C11   C     C_R   0.502245 0.286290 0.871494 -0.140152
C12   C     C_R   0.618013 0.716921 0.127331 -0.147888
C13   C     C_R   0.485300 0.314042 0.783997 -0.174027
C14   C     C_R   0.586395 0.687786 0.215243 -0.172702
C15   C     C_R   0.522068 0.473377 0.811559 -0.230600
C16   C     C_R   0.538202 0.527933 0.188139 -0.229261
C17   C     C_R   0.547094 0.448331 0.897951 0.070911
C18   C     C_R   0.576341 0.554871 0.101099 0.071708
C19   C     C_R   0.531049 0.352549 0.929705 0.142499
C20   C     C_R   0.611366 0.651243 0.069081 0.143930
C21   C     C_R   0.580186 0.516519 0.954275 0.042379
C22   C     C_R   0.572688 0.487572 0.044515 0.044625
C23   C     C_R   0.561539 0.392407 0.075381 -0.222575
C24   C     C_R   0.620196 0.612579 0.923120 -0.227300
C25   C     C_R   0.542968 0.325228 0.018757 0.084867
C26   C     C_R   0.637689 0.679733 0.979731 0.070508
H1    H     H_    0.499030 0.455776 0.211883 0.165371
H2    H     H_    0.520743 0.544239 0.788354 0.166179
H3    H     H_    0.593822 0.739291 0.259156 0.177066
H4    H     H_    0.465330 0.262265 0.740025 0.170337
H5    H     H_    0.492487 0.212969 0.893106 0.179229
H6    H     H_    0.647241 0.790864 0.105425 0.179425
H7    H     H_    0.570345 0.369046 0.143387 0.149732
H8    H     H_    0.641529 0.636851 0.854837 0.161907
N1    N     N_R   0.566020 0.731700 0.552730 -0.124619
N2    N     N_R   0.433980 0.268300 0.447270 -0.123984
C27   C     C_R   0.684826 0.844242 0.632175 0.236281
C28   C     C_R   0.331734 0.160344 0.356509 0.245392
C29   C     C_R   0.654943 0.755354 0.607973 -0.069034
C30   C     C_R   0.364056 0.249860 0.378998 -0.068489
C31   C     C_R   0.504865 0.792193 0.516733 -0.023783
C32   C     C_R   0.478414 0.203215 0.494776 -0.025480
C33   C     C_R   0.525520 0.882141 0.540952 -0.042082
C34   C     C_R   0.446412 0.110029 0.478439 -0.042870
C35   C     C_R   0.613084 0.906523 0.603987 -0.082047
C36   C     C_R   0.365636 0.087497 0.410743 -0.081607
C37   C     C_R   0.464449 0.948631 0.502786 0.057704
C38   C     C_R   0.494355 0.039875 0.525650 0.060512
C39   C     C_R   0.569167 0.057553 0.596244 -0.278171
C40   C     C_R   0.372499 0.926148 0.443974 -0.279743
C41   C     C_R   0.624913 0.991610 0.637113 0.346035
C42   C     C_R   0.320557 0.993131 0.400478 0.343659
H9    H     H_    0.538523 0.227130 0.544233 0.139802
H10   H     H_    0.441793 0.767632 0.469225 0.142058
H11   H     H_    0.336581 0.306208 0.340334 0.171759
H12   H     H_    0.705680 0.705408 0.630381 0.175945
H13   H     H_    0.581505 0.120855 0.624613 0.167558
H14   H     H_    0.334019 0.855543 0.433601 0.173617
N3    N     N_3   0.531368 0.228975 0.052099 -0.423330
H15   H     H_    0.555153 0.221824 0.117176 0.219661
H16   H     H_    0.440961 0.194900 0.051273 0.235341
N4    N     N_3   0.677381 0.776887 0.946200 -0.399480
H17   H     H_    0.704776 0.785606 0.880675 0.266365
H18   H     H_    0.603695 0.805598 0.948564 0.215660
N5    N     N_R   0.683543 0.009271 0.716926 0.243361
O9    O     O_R   0.745289 0.092587 0.725623 -0.341474
O10   O     O_R   0.658667 0.946578 0.785419 -0.385728
N6    N     N_R   0.215044 0.962346 0.352881 0.245990
O11   O     O_R   0.207040 0.894460 0.307003 -0.345222
O12   O     O_R   0.119829 0.990853 0.367220 -0.315979
N7    N     N_R   0.794447 0.872513 0.676016 0.239880
O13   O     O_R   0.830644 0.812404 0.730913 -0.392821
O14   O     O_R   0.869506 0.951239 0.647771 -0.305971
N8    N     N_R   0.276239 0.147389 0.274827 0.233027
O15   O     O_R   0.198700 0.193920 0.247872 -0.347744
O16   O     O_R   0.319469 0.103645 0.220374 -0.368119

loop_
_geom_bond_atom_site_label_1
_geom_bond_atom_site_label_2
_geom_bond_distance
_ccdc_geom_bond_type
C17   C19   1.419800 A    
O7    Zn2   1.959614 S    
N7    O13   1.301422 A    
C27   C29   1.392981 A    
C41   N5    1.437858 S    
O5    C3    1.294151 A    
O1    C1    1.305110 A    
C12   C14   1.393649 A    
C40   C42   1.392603 A    
N8    O16   1.301437 A    
Zn1   N2    2.039684 S    
N6    O12   1.301533 A    
N1    C31   1.346626 A    
C13   H4    1.083177 S    
N2    C32   1.346656 A    
C14   H3    1.083058 S    
C28   C36   1.420923 A    
O4    Zn1   1.938021 S    
N3    H16   1.045579 S    
C39   H13   1.075722 S    
C3    C5    1.393698 S    
C4    C6    1.393790 S    
C28   C30   1.392128 A    
O2    C2    1.305110 A    
O2    Zn2   1.969905 S    
N7    O14   1.301548 A    
C32   C34   1.410728 A    
Zn2   N1    2.039682 S    
C33   C35   1.426715 A    
C34   C36   1.426829 A    
C39   C41   1.392776 A    
C29   H12   1.081990 S    
C17   C21   1.414193 A    
C23   H7    1.079552 S    
C10   C14   1.398931 A    
C18   C22   1.414458 A    
C24   H8    1.079783 S    
N8    O15   1.301434 A    
N4    H18   1.045720 S    
C33   C37   1.424775 A    
N6    O11   1.301534 A    
C37   C40   1.410409 A    
C38   C39   1.410397 A    
C11   C19   1.410122 A    
C32   H9    1.074652 S    
C28   N8    1.436957 S    
C31   C33   1.410523 A    
C9    C13   1.399475 A    
N5    O9    1.301611 A    
C15   H2    1.078093 S    
N5    O10   1.301241 A    
C21   C22   1.404776 A    
N1    C29   1.351141 A    
O6    C4    1.294068 A    
C7    C8    1.372838 S    
C21   C24   1.415984 A    
O7    C3    1.296787 A    
C25   N3    1.438728 S    
O3    Zn2   1.938023 S    
O8    C4    1.296866 A    
C11   H5    1.082587 S    
O4    C2    1.305865 A    
C11   C13   1.394511 A    
C36   C42   1.412063 A    
O1    Zn1   1.969905 S    
C27   C35   1.421429 A    
C34   C38   1.424855 A    
C5    C7    1.181364 T    
N2    C30   1.351316 A    
O6    Zn2   1.942537 S    
C12   C20   1.409875 A    
C42   N6    1.437840 S    
C31   H10   1.074615 S    
N4    H17   1.044685 S    
O3    C1    1.306280 A    
O8    Zn1   1.959614 S    
C16   H1    1.077970 S    
C1    C9    1.461864 S    
C15   C17   1.393682 A    
C2    C10   1.460957 S    
C19   C25   1.404572 A    
C16   C18   1.393605 A    
C20   C26   1.403707 A    
C22   C23   1.416030 A    
C18   C20   1.419744 A    
C37   C38   1.417889 A    
C12   H6    1.082557 S    
C10   C16   1.391970 A    
C35   C41   1.412257 A    
C23   C25   1.399613 A    
C24   C26   1.399483 A    
C27   N7    1.438010 S    
N3    H15   1.045750 S    
C9    C15   1.391709 A    
C30   H11   1.081924 S    
O5    Zn1   1.942537 S    
C40   H14   1.075779 S    
C6    C8    1.181388 T    
C26   N4    1.438227 S    
