data_mof_unit_9028.cif
_audit_creation_date              2012-12-10T19:47:26-0500
_audit_creation_method            fapswitch 2.2
_symmetry_space_group_name_H-M    P1
_symmetry_Int_Tables_number       1
_space_group_crystal_system       triclinic
_cell_length_a                    10.86561
_cell_length_b                    10.900366
_cell_length_c                    12.710919
_cell_angle_alpha                 91.439465
_cell_angle_beta                  92.707977
_cell_angle_gamma                 89.459751
_cell_volume                      1503.26321698

loop_
_atom_site_label
_atom_site_type_symbol
_atom_type_description
_atom_site_fract_x
_atom_site_fract_y
_atom_site_fract_z
_atom_type_partial_charge
C1    C     C_R   0.262161 0.498710 0.500943 0.829327
C2    C     C_R   0.829384 0.776331 0.372315 -0.233230
C3    C     C_R   0.138072 0.320118 0.622152 0.062627
C4    C     C_R   0.862555 0.653406 0.352510 0.086183
C5    C     C_R   0.158945 0.340631 0.730949 -0.111210
C6    C     C_R   0.846083 0.602894 0.250181 -0.079165
C7    C     C_R   0.199386 0.244608 0.795069 -0.257154
C8    C     C_R   0.802827 0.675845 0.167519 -0.247235
C9    C     C_R   0.217172 0.127236 0.751253 -0.183350
C10   C     C_R   0.773683 0.799061 0.186598 -0.191357
C11   C     C_R   0.938172 0.407554 0.552943 0.111072
C12   C     C_R   0.737829 0.501381 0.498757 0.817910
C13   C     C_R   0.061253 0.584693 0.437798 0.089830
C14   C     C_R   0.871462 0.497809 0.495901 -0.126442
C15   C     C_R   0.128407 0.501131 0.502151 -0.136647
C16   C     C_R   0.503202 0.261836 0.502462 0.789855
C17   C     C_R   0.497293 0.738135 0.497684 0.797108
C18   C     C_R   0.931932 0.581201 0.433410 -0.050894
C19   C     C_R   0.067748 0.412635 0.559540 -0.041411
C20   C     C_2   0.460096 0.471178 0.031255 -0.281586
C21   C     C_2   0.534118 0.533161 0.968741 -0.285096
C22   C     C_1   0.524611 0.524941 0.852762 0.205522
C23   C     C_R   0.499331 0.871565 0.494117 -0.039610
C24   C     C_1   0.472718 0.477015 0.147230 0.206913
C25   C     C_R   0.785818 0.118695 0.820005 -0.142317
C26   C     C_R   0.207919 0.899197 0.185754 -0.138740
C27   C     C_R   0.734133 0.079504 0.722258 -0.187847
C28   C     C_R   0.260682 0.924553 0.286314 -0.168725
C29   C     C_R   0.612680 0.113378 0.690622 0.100309
C30   C     C_R   0.382632 0.887818 0.312845 0.094873
C31   C     C_R   0.541945 0.179696 0.762417 -0.078164
C32   C     C_R   0.450185 0.825753 0.236297 -0.062951
C33   C     C_R   0.592916 0.216297 0.861074 -0.143265
C34   C     C_R   0.502191 0.128293 0.506560 -0.067357
C35   C     C_R   0.397350 0.800505 0.135764 -0.160932
C36   C     C_R   0.715244 0.187444 0.889357 -0.103387
C37   C     C_R   0.276408 0.837498 0.110338 -0.126439
C38   C     C_R   0.553098 0.932916 0.582653 -0.173104
C39   C     C_R   0.448941 0.066917 0.418112 -0.127295
C40   C     C_3   0.871877 0.294304 0.589246 -0.446829
C41   C     C_3   0.838709 0.210664 0.493993 -0.714874
C42   C     C_3   0.127492 0.674281 0.370087 -0.313057
C43   C     C_3   0.148995 0.618176 0.260403 -0.752369
C44   C     C_R   0.445682 0.939750 0.410056 0.066083
C45   C     C_R   0.554507 0.060200 0.591509 0.009530
C46   C     C_R   0.199340 0.106750 0.642556 0.428544
C47   C     C_R   0.785464 0.849026 0.289023 0.414638
C48   C     C_R   0.162127 0.203514 0.577708 -0.223369
Cl1   Cl    Cl    0.214680 0.957922 0.588946 -0.720576
Cl2   Cl    Cl    0.745874 0.003102 0.311718 -0.718828
Cu1   Cu    Cu3+1 0.492140 0.492110 0.395880 0.974582
Cu2   Cu    Cu3+1 0.507860 0.507890 0.604120 0.983498
H1    H     H_    0.754520 0.216322 0.965725 0.140728
H2    H     H_    0.114234 0.928123 0.166150 0.147811
H3    H     H_    0.788627 0.021276 0.671907 0.143736
H4    H     H_    0.207647 0.975988 0.342731 0.167005
H5    H     H_    0.446916 0.201604 0.742655 0.155625
H6    H     H_    0.544628 0.799901 0.253506 0.162123
H7    H     H_    0.536891 0.265445 0.916201 0.140853
H8    H     H_    0.450902 0.754080 0.077048 0.144345
H9    H     H_    0.593896 0.880780 0.647215 0.155801
H10   H     H_    0.408072 0.118995 0.353518 0.154109
H11   H     H_    0.245320 0.052506 0.801742 0.166242
H12   H     H_    0.235801 0.818301 0.032345 0.137981
H13   H     H_    0.740798 0.855368 0.121995 0.165600
H14   H     H_    0.144445 0.186187 0.494121 0.148019
H15   H     H_    0.842484 0.816439 0.450841 0.158711
H16   H     H_    0.922450 0.185608 0.451298 0.264642
H17   H     H_    0.796391 0.125131 0.519079 0.257756
H18   H     H_    0.771997 0.256561 0.438832 0.263429
H19   H     H_    0.927992 0.240704 0.647024 0.224966
H20   H     H_    0.787951 0.318870 0.631285 0.233245
H21   H     H_    0.133060 0.517553 0.256832 0.241471
H22   H     H_    0.086612 0.661511 0.200211 0.234022
H23   H     H_    0.138940 0.429502 0.766488 0.142818
H24   H     H_    0.245446 0.633545 0.239635 0.262929
H25   H     H_    0.075367 0.761761 0.362255 0.209770
H26   H     H_    0.216324 0.703285 0.409288 0.209079
H27   H     H_    0.872713 0.508592 0.233679 0.139155
H28   H     H_    0.213823 0.260377 0.879135 0.149336
H29   H     H_    0.795236 0.637585 0.088234 0.144732
H30   H     H_    0.605011 0.591727 0.004821 0.155062
H31   H     H_    0.388209 0.413285 0.995234 0.152496
H32   H     H_    0.879863 0.093783 0.842674 0.142870
N1    N     N_1   0.480320 0.480250 0.239400 -0.163111
N2    N     N_1   0.519680 0.519750 0.760600 -0.160196
O1    O     O_R   0.313000 0.493330 0.412070 -0.578058
O2    O     O_R   0.687000 0.506670 0.587930 -0.587032
O3    O     O_R   0.326280 0.506660 0.587930 -0.566704
O4    O     O_R   0.673720 0.493340 0.412070 -0.570647
O5    O     O_R   0.493370 0.312980 0.412070 -0.571427
O6    O     O_R   0.506630 0.687020 0.587930 -0.567812
O7    O     O_R   0.506650 0.326310 0.587930 -0.588222
O8    O     O_R   0.493350 0.673690 0.412070 -0.596854

loop_
_geom_bond_atom_site_label_1
_geom_bond_atom_site_label_2
_ccdc_geom_bond_type
C43   H21   S    
C1    O1    A    
C40   H19   S    
C27   C29   A    
C14   C18   A    
C32   H6    S    
Cu1   N1    S    
C28   H4    S    
C15   C19   A    
C46   Cl1   S    
C11   C19   A    
C16   O7    A    
C17   C23   S    
C13   C18   A    
C12   O4    A    
C35   C37   A    
Cu1   O4    S    
C11   C14   A    
C27   H3    S    
C3    C48   A    
C33   C36   A    
C38   C45   A    
C36   H1    S    
C16   C34   S    
C34   C39   A    
C20   C24   S    
C25   H32   S    
C31   C33   A    
C3    C19   S    
C1    C15   S    
C41   H16   S    
C24   N1    T    
C38   H9    S    
C4    C18   S    
C43   H22   S    
C9    C46   A    
C33   H7    S    
C21   C22   S    
Cu1   O5    S    
C30   C44   S    
Cu2   O3    S    
C17   O6    A    
C26   H2    S    
C13   C42   S    
C47   Cl2   S    
C46   C48   A    
C12   O2    A    
C8    H29   S    
C32   C35   A    
Cu2   O2    S    
C4    C6    A    
C2    H15   S    
Cu1   O1    S    
C5    C7    A    
C6    C8    A    
Cu1   O8    S    
C23   C44   A    
Cu1   Cu2   S    
C29   C45   S    
C35   H8    S    
C5    H23   S    
C2    C4    A    
Cu2   O7    S    
C34   C45   A    
C20   C21   D    
C16   O5    A    
C40   C41   S    
C12   C14   S    
C42   H26   S    
C13   C15   A    
Cu2   O6    S    
C42   C43   S    
C37   H12   S    
C41   H17   S    
C10   H13   S    
C43   H24   S    
C7    C9    A    
C39   H10   S    
C1    O3    A    
C40   H20   S    
C9    H11   S    
C3    C5    A    
C26   C37   A    
C39   C44   A    
C2    C47   A    
C25   C27   A    
C23   C38   A    
C26   C28   A    
C31   H5    S    
Cu2   N2    S    
C29   C31   A    
C30   C32   A    
C6    H27   S    
C28   C30   A    
C22   N2    T    
C11   C40   S    
C25   C36   A    
C21   H30   S    
C42   H25   S    
C8    C10   A    
C20   H31   S    
C10   C47   A    
C7    H28   S    
C17   O8    A    
C48   H14   S    
C41   H18   S    
