data_mof_unit_42113.cif
_audit_creation_date              2012-12-11T17:37:35-0500
_audit_creation_method            fapswitch 2.2
_symmetry_space_group_name_H-M    P1
_symmetry_Int_Tables_number       1
_space_group_crystal_system       triclinic
_cell_length_a                    13.043628
_cell_length_b                    13.053994
_cell_length_c                    15.451493
_cell_angle_alpha                 117.230584
_cell_angle_beta                  63.559335
_cell_angle_gamma                 97.666361
_cell_volume                      2086.46798208

loop_
_atom_site_label
_atom_site_type_symbol
_atom_type_description
_atom_site_fract_x
_atom_site_fract_y
_atom_site_fract_z
_atom_type_partial_charge
C1    C     C_R   0.025846 0.834804 0.029595 -0.142210
C2    C     C_R   0.693856 0.457146 0.313068 0.059541
C3    C     C_R   0.637826 0.559361 0.020332 0.151395
C4    C     C_R   0.985240 0.832206 0.323305 0.055558
C5    C     C_R   0.323202 0.578266 0.009766 -0.125302
C6    C     C_R   0.896903 0.204639 0.793657 -0.137730
C7    C     C_R   0.217588 0.425593 0.690507 -0.109597
C8    C     C_R   0.097916 0.250635 0.041758 -0.130530
C9    C     C_R   0.998304 0.166889 0.945893 -0.092840
C10   C     C_R   0.320726 0.524008 0.781303 -0.126678
C11   C     C_R   0.244338 0.479534 0.105776 -0.171330
C12   C     C_R   0.695074 0.416213 0.213014 -0.150898
C13   C     C_R   0.973685 0.308666 0.704437 -0.143250
C14   C     C_R   0.337157 0.539779 0.073342 0.159350
C15   C     C_R   0.909848 0.216085 0.704190 0.066462
C16   C     C_R   0.327912 0.446020 0.680555 0.033804
C17   C     C_R   0.084359 0.144555 0.966758 0.044495
C18   C     C_R   0.311080 0.030554 0.258487 -0.113443
C19   C     C_R   0.205046 0.010186 0.326355 -0.137335
C20   C     C_R   0.102696 0.054151 0.341354 0.106905
C21   C     C_R   0.107784 0.116851 0.286504 -0.193479
C22   C     C_R   0.213796 0.137327 0.218832 -0.121462
C23   C     C_R   0.739817 0.576667 0.947104 -0.149112
C24   C     C_R   0.315408 0.095025 0.205635 -0.107264
C25   C     C_R   0.944190 0.147016 0.518103 -0.211845
C26   C     C_R   0.878538 0.140576 0.615820 0.056270
C27   C     C_R   0.819335 0.041513 0.613934 0.024570
C28   C     C_R   0.848667 0.943804 0.514232 -0.249851
C29   C     C_R   0.943090 0.941591 0.421333 0.062047
C30   C     C_R   0.990877 0.046071 0.423724 0.019742
C31   C     C_R   0.736117 0.950840 0.743136 0.197676
C32   C     C_R   0.640964 0.943360 0.831461 -0.133244
C33   C     C_R   0.543257 0.021359 0.890660 -0.164568
C34   C     C_R   0.963270 0.722216 0.316403 -0.135157
C35   C     C_R   0.538404 0.108366 0.863437 -0.113511
C36   C     C_R   0.630325 0.115844 0.774855 -0.143617
C37   C     C_R   0.728512 0.036440 0.712738 -0.001515
C38   C     C_R   0.945223 0.355042 0.338798 -0.124632
C39   C     C_R   0.829989 0.332068 0.369473 -0.139089
C40   C     C_R   0.744273 0.413815 0.464557 0.117351
C41   C     C_R   0.775872 0.511323 0.535329 -0.173819
C42   C     C_R   0.891167 0.534299 0.503691 -0.157176
C43   C     C_R   0.975421 0.457744 0.404048 -0.120446
C44   C     C_R   0.534195 0.412365 0.562215 -0.254708
C45   C     C_R   0.661611 0.481114 0.047118 -0.112398
C46   C     C_R   0.422799 0.435240 0.580729 0.087226
C47   C     C_R   0.403781 0.463738 0.510615 0.056892
C48   C     C_R   0.494620 0.456923 0.417960 -0.270745
C49   C     C_R   0.605587 0.439149 0.401304 0.074837
C50   C     C_R   0.627199 0.417156 0.473672 0.028079
C51   C     C_R   0.222019 0.443028 0.492954 -0.237386
C52   C     C_R   0.104252 0.474163 0.543479 -0.133038
C53   C     C_R   0.057710 0.580861 0.634291 -0.121295
C54   C     C_R   0.129640 0.658584 0.672817 -0.206711
C55   C     C_R   0.247665 0.626779 0.625847 0.231541
C56   C     C_R   0.045373 0.820039 0.219168 -0.123397
C57   C     C_R   0.292494 0.515180 0.538661 0.077213
C58   C     C_2   0.432310 0.558839 0.100895 -0.205027
C59   C     C_2   0.525238 0.600732 0.048226 -0.201830
C60   C     C_2   0.893780 0.968833 0.035189 -0.194287
C61   C     C_2   0.889700 0.062426 0.123310 -0.168713
C62   C     C_R   0.791557 0.512506 0.311254 -0.118104
C63   C     C_R   0.924688 0.750188 0.935044 -0.155359
C64   C     C_R   0.949489 0.856384 0.998657 0.141998
H1    H     H_    0.073267 0.898701 0.067404 0.095991
H2    H     H_    0.842877 0.148157 0.825165 0.112184
H3    H     H_    0.192772 0.365975 0.628240 0.121864
H4    H     H_    0.159381 0.265660 0.074488 0.088169
H5    H     H_    0.967437 0.104420 0.889272 0.096361
H6    H     H_    0.390616 0.561686 0.801781 0.100553
H7    H     H_    0.222083 0.450043 0.166496 0.090504
H8    H     H_    0.983968 0.356252 0.660165 0.100615
H9    H     H_    0.397495 0.112952 0.155218 0.099810
H10   H     H_    0.389835 0.998006 0.248292 0.114886
H11   H     H_    0.202470 0.962906 0.369323 0.114623
H12   H     H_    0.637938 0.357835 0.184016 0.097796
H13   H     H_    0.029175 0.149507 0.297154 0.117978
H14   H     H_    0.217079 0.186903 0.177651 0.098491
H15   H     H_    0.803378 0.867196 0.511398 0.134344
H16   H     H_    0.641584 0.877224 0.855235 0.122347
H17   H     H_    0.471088 0.014010 0.957816 0.117550
H18   H     H_    0.462425 0.168914 0.910008 0.115742
H19   H     H_    0.623771 0.182021 0.753010 0.124136
H20   H     H_    0.063992 0.478204 0.377254 0.119354
H21   H     H_    0.747948 0.622687 0.902001 0.086168
H22   H     H_    0.010389 0.296658 0.261553 0.106467
H23   H     H_    0.806365 0.257702 0.313974 0.123481
H24   H     H_    0.710828 0.576328 0.608047 0.123597
H25   H     H_    0.914186 0.615127 0.552835 0.147601
H26   H     H_    0.548471 0.397075 0.619520 0.130969
H27   H     H_    0.478976 0.479357 0.365003 0.132511
H28   H     H_    0.255482 0.356971 0.426829 0.143479
H29   H     H_    0.965608 0.602493 0.676159 0.115554
H30   H     H_    0.093265 0.741772 0.742274 0.123396
H31   H     H_    0.923908 0.699261 0.382297 0.097126
H32   H     H_    0.434087 0.516395 0.146347 0.125181
H33   H     H_    0.522527 0.646808 0.005999 0.122132
H34   H     H_    0.846446 0.974326 0.994927 0.132567
H35   H     H_    0.930964 0.062039 0.170435 0.126745
H36   H     H_    0.602774 0.442658 0.097005 0.087539
H37   H     H_    0.080835 0.885239 0.193535 0.111670
H38   H     H_    0.819197 0.551775 0.373928 0.128473
H39   H     H_    0.878027 0.736627 0.888770 0.098732
H40   H     H_    0.369921 0.640986 0.982947 0.083683
N1    N     N_R   0.037320 0.720000 0.995830 -0.044688
N2    N     N_R   0.946240 0.290870 0.848020 -0.043979
N3    N     N_R   0.146160 0.501170 0.788610 -0.041010
N4    N     N_R   0.025750 0.332680 0.063570 -0.038290
N5    N     N_R   0.962680 0.280000 0.004170 -0.043976
N6    N     N_R   0.209230 0.553860 0.848010 -0.047034
N7    N     N_R   0.175100 0.482030 0.063570 -0.038978
N8    N     N_R   0.996810 0.351820 0.788610 -0.040545
N9    N     N_R   0.790770 0.446140 0.151990 -0.039027
N10   N     N_R   0.824900 0.517970 0.936430 -0.038849
N11   N     N_R   0.003190 0.648180 0.211390 -0.037348
N12   N     N_R   0.774330 0.457010 0.995830 -0.045204
N13   N     N_R   0.053760 0.709130 0.151980 -0.040548
N14   N     N_R   0.853840 0.498830 0.211390 -0.040307
N15   N     N_R   0.974250 0.667320 0.936430 -0.036818
N16   N     N_R   0.225670 0.542990 0.004170 -0.043826
Ni1   Ni    Ni4+2 0.130310 0.630310 0.000000 0.209466
Ni2   Ni    Ni4+2 0.869690 0.369690 0.000000 0.213887
Ni3   Ni    Ni4+2 0.985660 0.509480 0.863750 0.216111
Ni4   Ni    Ni4+2 0.014340 0.490520 0.136250 0.218444
H41   H     H_    0.982106 0.225335 0.515916 0.121327
N17   N     N_2   0.838442 0.873834 0.685547 -0.114714
H42   H     H_    0.908002 0.891606 0.628883 0.181296
C65   C     C_3   0.872873 0.842617 0.747978 -1.036930
H43   H     H_    0.962071 0.801355 0.697625 0.261256
H44   H     H_    0.816653 0.779196 0.771665 0.251543
H45   H     H_    0.870807 0.921092 0.820326 0.255876
H46   H     H_    0.048562 0.412224 0.515654 0.132507
N18   N     N_2   0.317560 0.701648 0.673824 -0.115028
H47   H     H_    0.272278 0.758473 0.754464 0.168157
C66   C     C_3   0.396117 0.759113 0.612413 -0.933716
H48   H     H_    0.444655 0.817133 0.656519 0.256675
H49   H     H_    0.348257 0.811459 0.600494 0.250721
H50   H     H_    0.458555 0.695580 0.533062 0.264160

loop_
_geom_bond_atom_site_label_1
_geom_bond_atom_site_label_2
_ccdc_geom_bond_type
C66   H50   S    
C65   H45   S    
N17   H42   S    
C41   C42   A    
C3    C23   A    
C35   C36   A    
N3    Ni3   S    
C2    C12   A    
C65   H43   S    
C66   H48   S    
C20   C30   S    
C53   C54   A    
N16   Ni1   S    
C26   C27   A    
N12   Ni2   S    
C38   H22   S    
C18   C24   A    
C36   C37   A    
C9    H5    S    
C56   H37   S    
C13   N8    A    
C60   H34   S    
N6    Ni1   S    
C38   C39   A    
C11   C14   A    
C11   H7    S    
C24   H9    S    
C47   C57   S    
C36   H19   S    
N4    N5    A    
C18   C19   A    
C56   N13   A    
C28   H15   S    
C58   H32   S    
N13   Ni1   S    
C6    C15   A    
C54   C55   A    
N9    Ni2   S    
C19   C20   A    
N11   N13   A    
C48   H27   S    
C1    H1    S    
C51   C57   A    
C39   H23   S    
C4    C29   S    
C25   H41   S    
C5    H40   S    
C18   H10   S    
C21   C22   A    
C4    C56   A    
C43   H20   S    
C61   H35   S    
N4    Ni4   S    
C8    N4    A    
C35   H18   S    
C44   C46   A    
C9    N5    A    
C14   C58   S    
C4    C34   A    
C54   H30   S    
C5    N16   A    
C11   N7    A    
C51   C52   A    
C52   H46   S    
C34   H31   S    
C22   H14   S    
N8    Ni3   S    
C63   H39   S    
C16   C46   S    
C39   C40   A    
C15   C26   S    
N2    N8    A    
C25   C26   A    
C55   N18   S    
C53   H29   S    
C3    C45   A    
C31   C37   A    
C60   C61   D    
C29   C30   A    
C2    C49   S    
C51   H28   S    
C32   H16   S    
C63   N15   A    
C47   C48   A    
C48   C49   A    
N2    Ni2   S    
C6    N2    A    
N1    Ni1   S    
N14   Ni4   S    
C5    C14   A    
N10   Ni3   S    
C10   H6    S    
C9    C17   A    
C40   C41   A    
C8    H4    S    
C55   C57   A    
C12   H12   S    
N18   H47   S    
C59   H33   S    
N3    N6    A    
C22   C24   A    
C58   C59   D    
C42   C43   A    
C1    C64   A    
C44   H26   S    
C52   C53   A    
C12   N9    A    
C44   C50   A    
C25   C30   A    
C66   H49   S    
C41   H24   S    
C46   C47   A    
C28   C29   A    
N17   C65   S    
N11   Ni4   S    
N7    Ni4   S    
C31   C32   A    
C7    C16   A    
C63   C64   A    
C45   H36   S    
C65   H44   S    
N10   N12   A    
C13   H8    S    
N15   Ni3   S    
C8    C17   A    
C60   C64   S    
C42   H25   S    
N1    N15   A    
C32   C33   A    
C13   C15   A    
C34   N11   A    
C38   C43   A    
C10   C16   A    
C23   N10   A    
C45   N12   A    
C27   C37   S    
C40   C50   S    
C19   H11   S    
C33   C35   A    
C10   N6    A    
C7    N3    A    
N5    Ni2   S    
C62   N14   A    
C7    H3    S    
N9    N14   A    
C6    H2    S    
C20   C21   A    
C49   C50   A    
C23   H21   S    
C21   H13   S    
C27   C28   A    
N18   C66   S    
N7    N16   A    
C31   N17   S    
C33   H17   S    
C2    C62   A    
C1    N1    A    
C62   H38   S    
C3    C59   S    
