data_mof_unit_52464.cif
_audit_creation_date              2013-03-05T16:06:21-0500
_audit_creation_method            fapswitch 2.2
_symmetry_space_group_name_H-M    P1
_symmetry_Int_Tables_number       1
_space_group_crystal_system       triclinic
_cell_length_a                    14.944339
_cell_length_b                    15.310497
_cell_length_c                    16.839602
_cell_angle_alpha                 91.791823
_cell_angle_beta                  100.041436
_cell_angle_gamma                 97.910437
_cell_volume                      3751.82958375

loop_
_atom_site_label
_atom_site_type_symbol
_atom_site_description
_atom_site_fract_x
_atom_site_fract_y
_atom_site_fract_z
_atom_type_partial_charge
O1    O     O_R   0.615140 0.606020 0.522930 -0.633941
O2    O     O_R   0.384860 0.393980 0.477070 -0.631436
O3    O     O_R   0.468580 0.639400 0.493740 -0.547229
O4    O     O_R   0.531420 0.360600 0.506260 -0.594143
C1    C     C_R   0.557788 0.662881 0.509220 0.931314
C2    C     C_R   0.442728 0.337421 0.486781 0.958345
O5    O     O_R   0.581950 0.481350 0.400520 -0.629926
O6    O     O_R   0.418050 0.518650 0.599480 -0.625231
O7    O     O_R   0.435380 0.514730 0.371330 -0.614682
O8    O     O_R   0.564620 0.485270 0.628670 -0.612514
C3    C     C_R   0.509013 0.492844 0.349452 0.872127
C4    C     C_R   0.489551 0.503740 0.650518 0.883552
Zn1   Zn    Zn3+2 0.597860 0.477710 0.519490 0.952016
Zn2   Zn    Zn3+2 0.402140 0.522290 0.480510 0.979115
C5    C     C_R   0.504562 0.468691 0.264772 -0.008112
C6    C     C_R   0.486265 0.510118 0.735983 -0.012294
C7    C     C_R   0.418464 0.440948 0.215930 -0.210006
C8    C     C_R   0.568445 0.524072 0.792397 -0.197239
C9    C     C_R   0.412752 0.417423 0.135000 -0.204773
C10   C     C_R   0.565721 0.528404 0.874115 -0.198327
C11   C     C_R   0.492946 0.422879 0.102574 0.217301
C12   C     C_R   0.480998 0.517829 0.899467 0.208940
C13   C     C_R   0.579295 0.444244 0.151978 -0.197272
C14   C     C_R   0.398761 0.506406 0.843773 -0.192929
C15   C     C_R   0.585187 0.466861 0.233379 -0.205931
C16   C     C_R   0.401324 0.503004 0.761814 -0.183671
C17   C     C_2   0.485942 0.428653 0.015655 0.024184
C18   C     C_2   0.479170 0.509178 0.984892 0.030449
H1    H     H_    0.355517 0.438870 0.239887 0.152434
H2    H     H_    0.634582 0.530972 0.773428 0.156801
H3    H     H_    0.337239 0.492378 0.718916 0.150623
H4    H     H_    0.652150 0.486198 0.270839 0.152977
H5    H     H_    0.641311 0.449432 0.126300 0.136939
H6    H     H_    0.333246 0.497479 0.863896 0.135573
H7    H     H_    0.629249 0.536808 0.917711 0.135652
H8    H     H_    0.345973 0.401557 0.096432 0.137379
C19   C     C_R   0.595961 0.756840 0.511235 -0.220179
C20   C     C_R   0.410758 0.246189 0.457762 -0.199784
C21   C     C_R   0.712497 0.877725 0.575710 0.178096
C22   C     C_R   0.355499 0.151241 0.334819 0.180099
C23   C     C_R   0.679751 0.787172 0.562040 -0.252880
C24   C     C_R   0.358490 0.230769 0.379880 -0.249963
C25   C     C_R   0.548254 0.815961 0.464647 0.271114
C26   C     C_R   0.455007 0.179733 0.494925 0.228624
C27   C     C_R   0.579763 0.907691 0.476259 -0.056022
C28   C     C_R   0.468781 0.108360 0.445848 -0.035852
C29   C     C_R   0.657495 0.938353 0.537512 0.060321
C30   C     C_R   0.414014 0.090472 0.367420 0.054846
C31   C     C_R   0.530490 0.970607 0.434860 0.095271
C32   C     C_R   0.536738 0.054804 0.472598 0.112532
C33   C     C_R   0.614393 0.085337 0.531872 -0.126285
C34   C     C_R   0.477685 0.953845 0.356717 -0.120451
C35   C     C_R   0.676222 0.028964 0.560975 -0.220813
C36   C     C_R   0.421598 0.013354 0.323009 -0.223922
H9    H     H_    0.734877 0.056351 0.606125 0.139077
H10   H     H_    0.383746 0.997249 0.262349 0.142057
H11   H     H_    0.324968 0.283841 0.353258 0.179022
H12   H     H_    0.716427 0.739266 0.594417 0.188484
H13   H     H_    0.629370 0.153735 0.554395 0.158736
H14   H     H_    0.482584 0.896798 0.319237 0.184380
N1    N     N_R   0.271750 0.551950 0.454510 -0.116734
N2    N     N_R   0.728250 0.448050 0.545490 -0.105014
C37   C     C_R   0.169333 0.638702 0.381609 -0.303167
C38   C     C_R   0.834508 0.375517 0.631130 -0.334567
C39   C     C_R   0.254292 0.610237 0.397236 0.092310
C40   C     C_R   0.745386 0.390431 0.603506 0.026017
C41   C     C_R   0.207870 0.517083 0.496490 -0.056266
C42   C     C_R   0.795103 0.492054 0.511688 -0.052636
C43   C     C_R   0.119699 0.543411 0.484151 -0.005397
C44   C     C_R   0.887930 0.481857 0.538294 -0.008993
C45   C     C_R   0.100468 0.606211 0.425038 0.091793
C46   C     C_R   0.907671 0.421463 0.599530 0.105815
C47   C     C_R   0.050334 0.507404 0.526811 0.026860
C48   C     C_R   0.960341 0.528231 0.504762 0.021502
C49   C     C_R   0.945306 0.595647 0.450758 -0.227622
C50   C     C_R   0.068842 0.452035 0.591370 -0.222073
C51   C     C_R   0.013616 0.635365 0.410688 0.164398
C52   C     C_R   0.999472 0.409043 0.628533 0.160651
H15   H     H_    0.772842 0.534005 0.464417 0.125610
H16   H     H_    0.228231 0.468268 0.537750 0.128918
H17   H     H_    0.689476 0.357326 0.629464 0.165884
H18   H     H_    0.307115 0.635148 0.364066 0.200048
H19   H     H_    0.158991 0.685756 0.335563 0.151653
H20   H     H_    0.844733 0.328860 0.677547 0.142736
H21   H     H_    0.880680 0.619830 0.440799 0.155615
H22   H     H_    0.138107 0.443613 0.615144 0.154075
C53   C     C_3   0.995074 0.707878 0.351922 -0.405887
C54   C     C_3   0.901070 0.739225 0.343782 -0.879795
H23   H     H_    0.845313 0.684438 0.319287 0.254965
H24   H     H_    0.890502 0.765955 0.403015 0.263877
H25   H     H_    0.897756 0.792917 0.300990 0.256235
H26   H     H_    0.047695 0.766762 0.371539 0.221787
H27   H     H_    0.002634 0.683970 0.290778 0.203716
C55   C     C_3   0.021697 0.349337 0.698454 -0.407818
C56   C     C_3   0.123336 0.343680 0.729086 -0.880250
H28   H     H_    0.154369 0.314904 0.680858 0.266621
H29   H     H_    0.161535 0.409951 0.750905 0.252190
H30   H     H_    0.129540 0.299926 0.780533 0.255756
H31   H     H_    0.993640 0.373318 0.750710 0.207611
H32   H     H_    0.986708 0.281146 0.679591 0.208370
C57   C     C_3   0.474044 0.590908 0.037687 -0.395088
C58   C     C_3   0.469315 0.675868 0.992573 -0.845356
H33   H     H_    0.531344 0.692306 0.964892 0.263434
H34   H     H_    0.406761 0.668695 0.944976 0.262852
H35   H     H_    0.466234 0.731295 0.035679 0.252412
H36   H     H_    0.412029 0.578727 0.066019 0.220362
H37   H     H_    0.535537 0.602698 0.086483 0.221771
C59   C     C_3   0.488957 0.346764 0.962627 -0.391335
C60   C     C_3   0.491370 0.261736 0.007848 -0.847402
H38   H     H_    0.554307 0.267357 0.054913 0.259598
H39   H     H_    0.429626 0.247658 0.036340 0.259396
H40   H     H_    0.491988 0.205579 0.964690 0.259332
H41   H     H_    0.427132 0.336602 0.914084 0.223198
H42   H     H_    0.550779 0.357528 0.933885 0.220188
N3    N     N_R   0.475686 0.179287 0.582165 0.192107
O9    O     O_R   0.463964 0.104852 0.616966 -0.369017
O10   O     O_R   0.492113 0.252318 0.627333 -0.423910
N4    N     N_R   0.462906 0.782897 0.412505 0.186698
O11   O     O_R   0.385921 0.801788 0.429727 -0.397259
O12   O     O_R   0.461912 0.730239 0.350054 -0.457212
C61   C     C_3   0.802662 0.910714 0.633150 -0.406740
C62   C     C_3   0.862947 0.840536 0.661611 -0.868874
H43   H     H_    0.829397 0.795097 0.701353 0.254960
H44   H     H_    0.877455 0.802699 0.609075 0.263275
H45   H     H_    0.929383 0.873309 0.697195 0.256864
H46   H     H_    0.844485 0.959529 0.601937 0.206772
H47   H     H_    0.787393 0.944809 0.687405 0.210562
C63   C     C_3   0.296884 0.133308 0.250536 -0.394208
C64   C     C_3   0.235193 0.202302 0.221941 -0.887327
H48   H     H_    0.188368 0.211371 0.265063 0.265923
H49   H     H_    0.277332 0.266212 0.214715 0.254784
H50   H     H_    0.192631 0.179453 0.162184 0.253053
H51   H     H_    0.342867 0.127677 0.205952 0.203177
H52   H     H_    0.251568 0.069110 0.249246 0.211642

loop_
_geom_bond_atom_site_label_1
_geom_bond_atom_site_label_2
_geom_bond_distance
_ccdc_geom_bond_type
C57   H37   1.110864 S    
C53   C54   1.531418 S    
C37   C39   1.383547 A    
C57   C58   1.530540 S    
C1    C19   1.469817 S    
C7    H1    1.083335 S    
C47   C48   1.414069 A    
C56   H28   1.110849 S    
C63   C64   1.530601 S    
C56   H30   1.110541 S    
C21   C23   1.403074 A    
O5    C3    1.301538 A    
O1    C1    1.301816 A    
C55   H31   1.111667 S    
C9    C11   1.394604 A    
C14   C16   1.386903 A    
C23   H12   1.080318 S    
C61   H47   1.111270 S    
C9    H8    1.083587 S    
C60   H39   1.110944 S    
C5    C15   1.400896 A    
N3    O9    1.302123 A    
C22   C63   1.527413 S    
C59   C60   1.530124 S    
C58   H35   1.110442 S    
C5    C7    1.403957 A    
C27   C29   1.426729 A    
C59   H42   1.110850 S    
O4    Zn1   1.912654 S    
C43   C45   1.426233 A    
N4    O11   1.301567 A    
C38   H20   1.080699 S    
C46   C52   1.414484 A    
C34   H14   1.079724 S    
C10   H7    1.083636 S    
C3    C5    1.449734 S    
C18   C57   1.530579 S    
C49   H21   1.069478 S    
Zn1   N2    2.037991 S    
C4    C6    1.449286 S    
C26   N3    1.447981 S    
C26   C28   1.408624 A    
N3    O10   1.302003 A    
C44   C48   1.421490 A    
C2    C20   1.452699 S    
C43   C47   1.421862 A    
C8    H2    1.083310 S    
C27   C31   1.419281 A    
C29   C35   1.406875 A    
C64   H50   1.110456 S    
C15   H4    1.083345 S    
C22   C24   1.405620 A    
C11   C17   1.455440 S    
C16   H3    1.083519 S    
C12   C18   1.453351 S    
C53   H26   1.111732 S    
O2    C2    1.300060 A    
C24   H11   1.081076 S    
C34   C36   1.389780 A    
C36   H10   1.081015 S    
C35   H9    1.081087 S    
C6    C16   1.403526 A    
C28   C30   1.424030 A    
C48   C49   1.412152 A    
N2    C40   1.351715 A    
O4    C2    1.304590 A    
C60   H40   1.110375 S    
C13   H5    1.083447 S    
Zn2   N1    2.037991 S    
C14   H6    1.083457 S    
C37   H19   1.080695 S    
C33   C35   1.388135 A    
C38   C40   1.384447 A    
C59   H41   1.111389 S    
C19   C25   1.403601 A    
C30   C36   1.406197 A    
O7    Zn2   1.990332 S    
C20   C26   1.394594 A    
C63   H52   1.111535 S    
O7    C3    1.301548 A    
N1    C41   1.347120 A    
C54   H25   1.110539 S    
C55   H32   1.111489 S    
O6    C4    1.300660 A    
C31   C34   1.407545 A    
C32   C33   1.406826 A    
C55   C56   1.531837 S    
C58   H34   1.110552 S    
C49   C51   1.400783 A    
C61   C62   1.530984 S    
C37   C45   1.409167 A    
O3    Zn2   1.912651 S    
O8    C4    1.303308 A    
C42   C44   1.413083 A    
C54   H24   1.111092 S    
C11   C13   1.398852 A    
C47   C50   1.412218 A    
C12   C14   1.396127 A    
O1    Zn1   1.943525 S    
C10   C12   1.395686 A    
C62   H44   1.111165 S    
C50   H22   1.069501 S    
C45   C51   1.413904 A    
C21   C29   1.419162 A    
C64   H48   1.110807 S    
C57   H36   1.110639 S    
C22   C30   1.421337 A    
O6    Zn2   1.979343 S    
C41   H16   1.074832 S    
C50   C52   1.401355 A    
O3    C1    1.309784 A    
O8    Zn1   1.990332 S    
C56   H29   1.111083 S    
C20   C24   1.399477 A    
C28   C32   1.414017 A    
C21   C61   1.527731 S    
N2    C42   1.346501 A    
C62   H45   1.110494 S    
C61   H46   1.111775 S    
C25   C27   1.414590 A    
C60   H38   1.110719 S    
C40   H17   1.082011 S    
C39   H18   1.079279 S    
C17   C59   1.526741 S    
C52   C55   1.531919 S    
C53   H27   1.111435 S    
C7    C9    1.383683 A    
C8    C10   1.383576 A    
C38   C46   1.409990 A    
C19   C23   1.398964 A    
C58   H33   1.110726 S    
O2    Zn2   1.943528 S    
N4    O12   1.301701 A    
C25   N4    1.434580 S    
N1    C39   1.350855 A    
O5    Zn1   1.979343 S    
C13   C15   1.387965 A    
C33   H13   1.082430 S    
C54   H23   1.110940 S    
C51   C53   1.531809 S    
C42   H15   1.074848 S    
C6    C8    1.401656 A    
C31   C32   1.403324 A    
C17   C18   1.361845 D    
C44   C46   1.426200 A    
C41   C43   1.413443 A    
C62   H43   1.110566 S    
C63   H51   1.111527 S    
C64   H49   1.110576 S    
