data_mof_unit_11636.cif
_audit_creation_date              2012-12-10T16:45:23-0500
_audit_creation_method            fapswitch 2.2
_symmetry_space_group_name_H-M    P1
_symmetry_Int_Tables_number       1
_space_group_crystal_system       triclinic
_cell_length_a                    7.61236
_cell_length_b                    8.665974
_cell_length_c                    15.834707
_cell_angle_alpha                 97.315363
_cell_angle_beta                  76.44097
_cell_angle_gamma                 102.220304
_cell_volume                      989.143529051

loop_
_atom_site_label
_atom_site_type_symbol
_atom_type_description
_atom_site_fract_x
_atom_site_fract_y
_atom_site_fract_z
_atom_type_partial_charge
C1    C     C_R   0.541378 0.799267 0.505504 0.848252
C2    C     C_R   0.458621 0.200732 0.494493 0.848376
C3    C     C_R   0.278968 0.434600 0.078382 -0.221501
C4    C     C_R   0.704345 0.627882 0.930671 -0.223719
C5    C     C_R   0.154344 0.400124 0.024254 -0.219759
C6    C     C_R   0.827887 0.666055 0.985351 -0.218715
C7    C     C_2   0.550599 0.966690 0.518711 -0.245319
C8    C     C_2   0.449392 0.033301 0.481282 -0.245519
C9    C     C_R   0.387494 0.488659 0.665237 0.786522
C10   C     C_R   0.612568 0.513085 0.334952 0.788155
C11   C     C_R   0.322027 0.476769 0.759373 -0.034536
C12   C     C_R   0.677514 0.537488 0.242119 -0.035442
C13   C     C_R   0.082114 0.393203 0.883394 -0.201078
C14   C     C_R   0.904951 0.659947 0.124000 -0.199544
C15   C     C_R   0.137205 0.417262 0.795142 -0.163226
C16   C     C_R   0.855449 0.618816 0.209669 -0.175758
C17   C     C_R   0.448940 0.518932 0.813283 -0.245791
C18   C     C_R   0.552328 0.492717 0.187571 -0.244318
C19   C     C_R   0.395876 0.500552 0.903128 0.078518
C20   C     C_R   0.596162 0.537815 0.101864 0.076571
C21   C     C_R   0.210279 0.431631 0.937164 0.151432
C22   C     C_R   0.776889 0.620932 0.070127 0.148596
C23   C     C_R   0.523048 0.543636 0.959236 0.060754
C24   C     C_R   0.465689 0.503791 0.047321 0.063520
Cu1   Cu    Cu3+1 0.322120 0.483240 0.490330 1.139078
Cu2   Cu    Cu3+1 0.677880 0.516760 0.509670 1.138350
H1    H     H_    0.012654 0.347608 0.050906 0.164706
H2    H     H_    0.965111 0.731093 0.960800 0.161636
H3    H     H_    0.420956 0.422988 0.214327 0.181871
H4    H     H_    0.590067 0.560764 0.782783 0.183671
H5    H     H_    0.954260 0.654758 0.251094 0.169169
H6    H     H_    0.036619 0.384276 0.754521 0.170583
H7    H     H_    0.939528 0.342634 0.909481 0.150719
H8    H     H_    0.042877 0.724160 0.100107 0.151726
H9    H     H_    0.221860 0.408829 0.145067 0.170122
H10   H     H_    0.754680 0.670858 0.866912 0.169139
H11   H     H_    0.631866 0.034134 0.563602 0.188100
H12   H     H_    0.368096 0.965850 0.436403 0.188176
N1    N     N_2   0.945180 0.542040 0.524240 0.081810
N2    N     N_2   0.054820 0.457960 0.475760 0.082338
O1    O     O_R   0.384450 0.714270 0.493720 -0.540261
O2    O     O_R   0.615550 0.285730 0.506280 -0.540252
O3    O     O_R   0.684880 0.742590 0.510050 -0.520718
O4    O     O_R   0.315120 0.257410 0.489950 -0.520486
O5    O     O_R   0.265540 0.477900 0.617090 -0.559772
O6    O     O_R   0.734460 0.522100 0.382910 -0.559037
O7    O     O_R   0.565970 0.506210 0.633420 -0.566509
O8    O     O_R   0.434030 0.493790 0.366580 -0.564557
S1    S     S_3+6 0.009611 0.722083 0.581509 0.128749
O9    O     O_2   0.149635 0.724657 0.634267 -0.305862
O10   O     O_2   0.075338 0.848016 0.518622 -0.293326
O11   O     O_3   0.822840 0.768099 0.652766 -0.528605
H13   H     H_    0.858989 0.881047 0.672710 0.350012
S2    S     S_3+6 0.990343 0.277904 0.418515 0.129831
O12   O     O_2   0.924519 0.152022 0.481430 -0.293681
O13   O     O_2   0.850372 0.275367 0.365730 -0.305064
O14   O     O_3   0.177090 0.231769 0.347293 -0.528185
H14   H     H_    0.141139 0.118629 0.327655 0.350060

loop_
_geom_bond_atom_site_label_1
_geom_bond_atom_site_label_2
_ccdc_geom_bond_type
C14   H8    S    
C19   C23   A    
C23   C24   A    
C4    H10   S    
S2    O13   D    
C10   O6    A    
C6    H2    S    
N2    S2    S    
C3    H9    S    
S1    O11   S    
C14   C22   A    
S1    O10   D    
C7    H11   S    
C13   C21   A    
C7    C8    D    
C18   H3    S    
C1    C7    S    
C13   H7    S    
C16   H5    S    
C9    O5    A    
C17   H4    S    
C9    C11   S    
Cu1   O8    S    
O14   H14   S    
C8    H12   S    
Cu2   O7    S    
C2    O2    A    
C12   C16   A    
C10   C12   S    
Cu1   O4    S    
C1    O1    A    
C19   C21   A    
C3    C24   A    
C20   C22   A    
Cu2   O3    S    
C9    O7    A    
C18   C20   A    
C13   C15   A    
Cu1   N2    S    
C10   O8    A    
C14   C16   A    
Cu2   N1    S    
Cu2   O6    S    
Cu1   O1    S    
C6    C22   A    
N1    S1    S    
Cu1   O5    S    
C15   H6    S    
C5    C21   A    
O11   H13   S    
Cu2   O2    S    
C4    C6    A    
S1    O9    D    
C12   C18   A    
N1    N2    D    
C4    C23   A    
S2    O12   D    
C11   C17   A    
C17   C19   A    
Cu1   Cu2   S    
C5    H1    S    
C11   C15   A    
C1    O3    A    
C2    C8    S    
C20   C24   A    
C2    O4    A    
C3    C5    A    
S2    O14   S    
