data_mof_unit_56470.cif
_audit_creation_date              2012-12-10T20:30:16-0500
_audit_creation_method            fapswitch 2.2
_symmetry_space_group_name_H-M    P1
_symmetry_Int_Tables_number       1
_space_group_crystal_system       triclinic
_cell_length_a                    10.008764
_cell_length_b                    10.857331
_cell_length_c                    13.497541
_cell_angle_alpha                 90.053103
_cell_angle_beta                  73.026077
_cell_angle_gamma                 87.211363
_cell_volume                      1401.02475846

loop_
_atom_site_label
_atom_site_type_symbol
_atom_type_description
_atom_site_fract_x
_atom_site_fract_y
_atom_site_fract_z
_atom_type_partial_charge
C1    C     C_R   0.501567 0.738649 0.491785 0.913188
C2    C     C_R   0.458875 0.451949 0.965128 0.116553
C3    C     C_R   0.466667 0.519554 0.874366 0.013222
C4    C     C_R   0.553151 0.475492 0.023555 0.058432
C5    C     C_R   0.674810 0.540376 0.976050 0.018005
C6    C     C_R   0.678750 0.606946 0.886735 -0.236479
C7    C     C_R   0.566591 0.609975 0.845314 0.047929
C8    C     C_R   0.521720 0.452247 0.131056 -0.055279
C9    C     C_R   0.749393 0.521199 0.130673 -0.171251
C10   C     C_R   0.371978 0.496371 0.817368 -0.213847
C11   C     C_R   0.397803 0.943684 0.541821 -0.066941
C12   C     C_R   0.422072 0.501512 0.702609 0.848694
C13   C     C_R   0.505313 0.870090 0.481441 -0.067272
C14   C     C_R   0.624477 0.929010 0.421040 -0.198936
C15   C     C_R   0.626821 0.059264 0.423403 -0.220061
C16   C     C_R   0.513826 0.128856 0.490746 -0.082760
C17   C     C_R   0.405086 0.065440 0.551803 -0.002323
C18   C     C_3   0.262597 0.079867 0.627947 0.811800
C19   C     C_3   0.258719 0.938231 0.616304 -0.301261
C20   C     C_R   0.895406 0.561325 0.574343 0.162840
C21   C     C_R   0.960061 0.433686 0.428946 -0.143584
C22   C     C_R   0.102612 0.432444 0.429853 -0.045624
C23   C     C_R   0.505523 0.260803 0.494245 0.835239
C24   C     C_R   0.035084 0.557918 0.579094 0.134940
C25   C     C_3   0.012684 0.693958 0.610009 0.307447
C26   C     C_3   0.869722 0.694051 0.592945 -0.598785
C27   C     C_R   0.575762 0.492607 0.298321 0.847663
C28   C     C_R   0.779006 0.552582 0.027033 0.018501
C29   C     C_R   0.617565 0.483708 0.184862 -0.179008
C30   C     C_R   0.245211 0.438981 0.868480 0.016913
C31   C     C_R   0.238533 0.375140 0.959479 -0.062385
C32   C     C_R   0.354179 0.366073 0.995554 -0.213555
H1    H     H_    0.825081 0.537559 0.171932 0.215269
H2    H     H_    0.714994 0.104744 0.373450 0.150954
H3    H     H_    0.184809 0.909991 0.575747 0.149333
H4    H     H_    0.932807 0.379786 0.370893 0.154204
H5    H     H_    0.179816 0.375265 0.374451 0.163586
H6    H     H_    0.088017 0.749796 0.554208 0.106111
H7    H     H_    0.779395 0.711430 0.660899 0.222194
H8    H     H_    0.759529 0.669688 0.856469 0.179464
H9    H     H_    0.864518 0.744853 0.522543 0.200717
H10   H     H_    0.357346 0.293694 0.049674 0.126622
H11   H     H_    0.151159 0.318980 0.995011 0.185010
H12   H     H_    0.713560 0.875371 0.372333 0.162236
N1    N     N_R   0.856940 0.500860 0.500710 -0.109635
N2    N     N_R   0.142580 0.500820 0.500710 -0.140465
O1    O     O_R   0.385310 0.683210 0.499990 -0.575344
O2    O     O_R   0.614650 0.683240 0.500000 -0.631174
O3    O     O_R   0.328390 0.499940 0.653610 -0.591050
O4    O     O_R   0.557730 0.499980 0.653620 -0.628441
O5    O     O_R   0.385350 0.316760 0.500000 -0.592417
O6    O     O_R   0.614690 0.316790 0.500010 -0.629127
O7    O     O_R   0.442270 0.500020 0.346380 -0.609959
O8    O     O_R   0.671610 0.500060 0.346390 -0.624276
Zn1   Zn    Zn3+2 0.346870 0.499980 0.499990 1.010705
Zn2   Zn    Zn3+2 0.653130 0.500020 0.500010 0.946620
O9    O     O_3   0.248494 0.115782 0.732447 -0.694960
C33   C     C_3   0.364551 0.173177 0.747832 0.017627
H13   H     H_    0.324745 0.219514 0.822548 0.207699
H14   H     H_    0.404287 0.244898 0.690386 0.142158
C34   C     C_3   0.479718 0.082964 0.762399 -0.377903
H15   H     H_    0.433089 0.020859 0.827138 0.267451
H16   H     H_    0.529198 0.026573 0.691636 0.238226
C35   C     C_3   0.592845 0.152434 0.790658 -0.888591
H17   H     H_    0.626638 0.229570 0.736719 0.262039
H18   H     H_    0.684390 0.088705 0.786575 0.270365
H19   H     H_    0.552412 0.190580 0.870754 0.258764
O10   O     O_3   0.174396 0.147618 0.580194 -0.641139
C36   C     C_3   0.036850 0.170605 0.644920 0.158942
H20   H     H_    0.030421 0.263800 0.680099 0.179625
H21   H     H_    0.003561 0.104149 0.708637 0.143183
C37   C     C_3   0.937456 0.172635 0.577524 -0.380288
H22   H     H_    0.840312 0.228167 0.616217 0.199699
H23   H     H_    0.988519 0.217041 0.503456 0.242244
C38   C     C_3   0.900888 0.044354 0.551574 -0.878098
H24   H     H_    0.996405 0.983295 0.521964 0.259201
H25   H     H_    0.849580 0.051403 0.489595 0.265473
H26   H     H_    0.827202 0.003681 0.620076 0.252482
C39   C     C_2   0.269293 0.861612 0.706906 0.371452
H27   H     H_    0.283744 0.902448 0.775775 0.113783
O11   O     O_2   0.262864 0.750184 0.703548 -0.551310
O12   O     O_3   0.002059 0.714975 0.716675 -0.604890
C40   C     C_3   0.942711 0.835812 0.750209 0.074013
H28   H     H_    0.828896 0.840755 0.762483 0.198043
H29   H     H_    0.983862 0.903875 0.690661 0.109994
C41   C     C_3   0.972008 0.878122 0.850887 -0.359846
H30   H     H_    0.036774 0.807562 0.877532 0.273509
H31   H     H_    0.033151 0.962184 0.835535 0.211824
C42   C     C_3   0.839180 0.912432 0.938537 -0.845059
H32   H     H_    0.778305 0.988930 0.914633 0.263297
H33   H     H_    0.868073 0.943453 0.007616 0.265457
H34   H     H_    0.772585 0.832646 0.960699 0.270680
C43   C     C_2   0.915977 0.604352 0.976445 0.380686
H35   H     H_    0.949243 0.616692 0.893992 0.110690
O13   O     O_2   0.994812 0.632073 0.026076 -0.558736
C44   C     C_2   0.381890 0.413554 0.191244 0.427120
H36   H     H_    0.373200 0.328541 0.234371 0.025571
O14   O     O_2   0.277305 0.478878 0.195633 -0.540240
C45   C     C_2   0.126996 0.427583 0.823662 0.373949
H37   H     H_    0.109052 0.492443 0.767711 0.148251
O15   O     O_2   0.042636 0.348003 0.852999 -0.616282
C46   C     C_2   0.541790 0.721504 0.788947 0.345448
H38   H     H_    0.493146 0.717949 0.727942 0.119612
O16   O     O_2   0.575170 0.821535 0.812204 -0.644365

loop_
_geom_bond_atom_site_label_1
_geom_bond_atom_site_label_2
_ccdc_geom_bond_type
C43   H35   S    
C27   C29   S    
C8    C44   S    
C4    C8    A    
C12   O3    A    
C23   O6    A    
C27   O8    A    
C21   H4    S    
C11   C19   S    
C31   H11   S    
C5    C6    A    
C8    C29   A    
O1    Zn1   S    
C3    C7    A    
C30   C31   A    
C41   H31   S    
C26   H7    S    
C18   O10   S    
C15   C16   A    
C2    C32   A    
C18   C19   S    
C34   H16   S    
C40   H28   S    
N1    Zn2   S    
O10   C36   S    
C7    C46   S    
C44   O14   D    
N2    Zn1   S    
C42   H33   S    
C15   H2    S    
C20   N1    A    
C9    C29   A    
C37   H22   S    
C34   H15   S    
C33   C34   S    
C43   O13   D    
C21   C22   A    
C9    H1    S    
C46   H38   S    
C37   C38   S    
C21   N1    A    
O7    Zn1   S    
O8    Zn2   S    
C36   H21   S    
C35   H19   S    
C20   C24   A    
C24   C25   S    
C37   H23   S    
C39   O11   D    
C41   H30   S    
C1    O1    A    
C33   H13   S    
O3    Zn1   S    
C22   H5    S    
C30   C45   S    
O4    Zn2   S    
C28   C43   S    
C35   H18   S    
C36   C37   S    
C2    C4    A    
C38   H24   S    
C25   H6    S    
C5    C28   A    
C10   C30   A    
C18   O9    S    
C23   O5    A    
C31   C32   A    
C44   H36   S    
C17   C18   S    
C42   H34   S    
C46   O16   D    
C38   H25   S    
C10   C12   S    
C22   N2    A    
C16   C23   S    
C25   O12   S    
C6    H8    S    
C1    C13   S    
C14   H12   S    
O2    Zn2   S    
C11   C17   A    
C40   H29   S    
C4    C5    A    
C41   C42   S    
C12   O4    A    
C27   O7    A    
C1    O2    A    
C6    C7    A    
C45   H37   S    
C24   N2    A    
C35   H17   S    
C2    C3    A    
C25   C26   S    
C3    C10   A    
C19   H3    S    
C34   C35   S    
C11   C13   A    
O9    C33   S    
C16   C17   A    
C20   C26   S    
O5    Zn1   S    
C36   H20   S    
C38   H26   S    
C39   H27   S    
O6    Zn2   S    
C40   C41   S    
C9    C28   A    
O12   C40   S    
C32   H10   S    
C14   C15   A    
C42   H32   S    
C13   C14   A    
C33   H14   S    
C45   O15   D    
C19   C39   S    
C26   H9    S    
