data_mof_unit_45063.cif
_audit_creation_date              2012-12-10T18:50:53-0500
_audit_creation_method            fapswitch 2.2
_symmetry_space_group_name_H-M    P1
_symmetry_Int_Tables_number       1
_space_group_crystal_system       triclinic
_cell_length_a                    10.652612
_cell_length_b                    9.891831
_cell_length_c                    15.712861
_cell_angle_alpha                 90.523232
_cell_angle_beta                  89.901504
_cell_angle_gamma                 90.044121
_cell_volume                      1655.65250628

loop_
_atom_site_label
_atom_site_type_symbol
_atom_type_description
_atom_site_fract_x
_atom_site_fract_y
_atom_site_fract_z
_atom_type_partial_charge
C1    C     C_R   0.260104 0.499933 0.500584 0.848353
C2    C     C_R   0.935613 0.612168 0.534291 -0.198200
C3    C     C_R   0.872252 0.499690 0.501538 -0.006823
C4    C     C_R   0.127606 0.499547 0.501707 0.002131
C5    C     C_R   0.550177 0.074134 0.566322 0.429452
C6    C     C_R   0.537158 0.931122 0.570572 0.426866
C7    C     C_R   0.499597 0.499586 0.338432 0.902286
C8    C     C_R   0.458355 0.927144 0.430904 -0.209223
C9    C     C_R   0.455035 0.070553 0.431883 -0.209533
C10   C     C_R   0.739811 0.500006 0.500451 0.844974
C11   C     C_R   0.501754 0.500264 0.661562 0.895504
C12   C     C_3   0.647881 0.459197 0.954786 0.922011
C13   C     C_3   0.496594 0.657747 0.047687 0.410017
C14   C     C_3   0.391992 0.414999 0.046890 0.432751
C15   C     C_3   0.404944 0.410307 0.947492 -0.545427
C16   C     C_3   0.481796 0.645741 0.948742 -0.409122
C17   C     C_1   0.508627 0.499953 0.750172 -0.210165
C18   C     C_3   0.502857 0.506619 0.082586 -0.053446
C19   C     C_3   0.514920 0.500692 0.916843 0.020357
C20   C     C_2   0.386740 0.740688 0.082225 0.367415
C21   C     C_2   0.265489 0.472502 0.077214 0.298628
C22   C     C_3   0.309436 0.190703 0.056793 0.065779
C23   C     C_3   0.630402 0.443548 0.052923 -0.363552
C24   C     C_3   0.244681 0.137743 0.136921 -0.291459
C25   C     C_3   0.124842 0.059766 0.115417 -0.913221
C26   C     C_3   0.637706 0.765375 0.147847 0.129714
C27   C     C_3   0.702660 0.903178 0.150080 -0.330542
C28   C     C_3   0.737089 0.945221 0.240792 -0.959870
C29   C     C_3   0.778194 0.590289 0.861394 0.108569
C30   C     C_3   0.916493 0.631044 0.864647 -0.283731
C31   C     C_3   0.967517 0.661084 0.775900 -0.999722
C32   C     C_3   0.642910 0.218002 0.921106 -0.017491
C33   C     C_3   0.740146 0.105317 0.929951 -0.339060
C34   C     C_1   0.513866 0.499194 0.825359 -0.077150
C35   C     C_3   0.680561 0.965616 0.922358 -0.929574
C36   C     C_3   0.735565 0.128824 0.630171 0.096281
C37   C     C_3   0.796271 0.237346 0.686534 -0.309405
C38   C     C_3   0.938075 0.218408 0.692543 -0.972922
C39   C     C_3   0.449856 0.864805 0.696880 0.110412
C40   C     C_3   0.421050 0.999706 0.742128 -0.397236
C41   C     C_3   0.329447 0.981323 0.815972 -0.962000
C42   C     C_1   0.500825 0.502923 0.174434 -0.100190
C43   C     C_1   0.499819 0.499658 0.249687 -0.202383
C44   C     C_R   0.064134 0.386493 0.469897 -0.206568
C45   C     C_R   0.064200 0.612096 0.534384 -0.194867
C46   C     C_R   0.935709 0.386586 0.469792 -0.204337
H1    H     H_    0.384302 0.670466 0.928313 0.186877
H2    H     H_    0.113756 0.698863 0.560302 0.151248
H3    H     H_    0.886344 0.299583 0.444040 0.151563
H4    H     H_    0.886030 0.698951 0.560178 0.159644
H5    H     H_    0.337682 0.710994 0.139617 0.039551
H6    H     H_    0.244292 0.473531 0.144795 0.077682
H7    H     H_    0.352683 0.104675 0.021759 0.199369
H8    H     H_    0.238001 0.234495 0.013260 0.152947
H9    H     H_    0.310357 0.070733 0.171699 0.232153
H10   H     H_    0.219907 0.223898 0.179585 0.206839
H11   H     H_    0.054938 0.128082 0.085863 0.255919
H12   H     H_    0.317074 0.444059 0.916088 0.224674
H13   H     H_    0.083569 0.017984 0.174562 0.255938
H14   H     H_    0.145136 0.974992 0.070773 0.304692
H15   H     H_    0.702543 0.689117 0.174803 0.151388
H16   H     H_    0.553561 0.771512 0.189522 0.116429
H17   H     H_    0.789430 0.898965 0.110736 0.233762
H18   H     H_    0.638947 0.980472 0.122872 0.239822
H19   H     H_    0.651298 0.953423 0.280801 0.270384
H20   H     H_    0.784529 0.045201 0.239976 0.265683
H21   H     H_    0.801889 0.870186 0.269157 0.266463
H22   H     H_    0.723967 0.674160 0.832674 0.141723
H23   H     H_    0.424927 0.872613 0.375443 0.173285
H24   H     H_    0.769619 0.500623 0.818594 0.170512
H25   H     H_    0.927571 0.722442 0.905630 0.232749
H26   H     H_    0.971937 0.547576 0.892894 0.260391
H27   H     H_    0.959466 0.570223 0.734168 0.272692
H28   H     H_    0.068050 0.690025 0.780411 0.271208
H29   H     H_    0.914777 0.745903 0.746985 0.266889
H30   H     H_    0.590396 0.203898 0.860825 0.173928
H31   H     H_    0.577534 0.208479 0.975183 0.176312
H32   H     H_    0.813837 0.115277 0.880257 0.241424
H33   H     H_    0.786111 0.115151 0.993196 0.221769
H34   H     H_    0.418151 0.123464 0.377440 0.175070
H35   H     H_    0.596358 0.958523 0.963833 0.301014
H36   H     H_    0.749400 0.887838 0.942019 0.290696
H37   H     H_    0.653467 0.944285 0.855503 0.260808
H38   H     H_    0.773843 0.139254 0.564344 0.127538
H39   H     H_    0.760463 0.027395 0.655135 0.159386
H40   H     H_    0.776129 0.339007 0.660412 0.223407
H41   H     H_    0.755192 0.232933 0.751294 0.240494
H42   H     H_    0.960304 0.118859 0.721018 0.261826
H43   H     H_    0.978669 0.299295 0.733555 0.274111
H44   H     H_    0.981624 0.224422 0.628425 0.276327
H45   H     H_    0.414239 0.305963 0.922802 0.162696
H46   H     H_    0.464482 0.787393 0.746625 0.176039
H47   H     H_    0.366779 0.831272 0.658966 0.132754
H48   H     H_    0.508990 0.044247 0.767102 0.260609
H49   H     H_    0.378797 0.071350 0.696330 0.232561
H50   H     H_    0.240598 0.934980 0.792963 0.268528
H51   H     H_    0.307938 0.081280 0.845254 0.262516
H52   H     H_    0.371532 0.915975 0.865417 0.285927
H53   H     H_    0.541575 0.721988 0.916683 0.213107
H54   H     H_    0.709889 0.493719 0.086553 0.195161
H55   H     H_    0.638108 0.337592 0.074490 0.175597
H56   H     H_    0.113502 0.299475 0.444154 0.153811
N1    N     N_R   0.499970 0.857200 0.499980 -0.132875
N2    N     N_R   0.499970 0.142800 0.499980 -0.129313
O1    O     O_R   0.316750 0.614620 0.499990 -0.629294
O2    O     O_2   0.186984 0.516332 0.028082 -0.610020
O3    O     O_3   0.406737 0.282102 0.080590 -0.665609
O4    O     O_3   0.611435 0.730047 0.061852 -0.609075
O5    O     O_3   0.733988 0.569431 0.945693 -0.619947
O6    O     O_3   0.707387 0.342560 0.917810 -0.678973
O7    O     O_3   0.604046 0.146266 0.632404 -0.625648
O8    O     O_3   0.561546 0.868686 0.647057 -0.638839
O9    O     O_R   0.316750 0.385380 0.499990 -0.623409
O10   O     O_R   0.499990 0.614720 0.377140 -0.626964
O11   O     O_R   0.499990 0.385280 0.377140 -0.610615
O12   O     O_R   0.683220 0.614710 0.500000 -0.606044
O13   O     O_R   0.683220 0.385290 0.500000 -0.619750
O14   O     O_R   0.499980 0.614620 0.622860 -0.595588
O15   O     O_R   0.499980 0.385380 0.622860 -0.555255
O16   O     O_2   0.358287 0.847339 0.049042 -0.619124
Zn1   Zn    Zn3+2 0.499980 0.653120 0.500000 0.956182
Zn2   Zn    Zn3+2 0.499980 0.346880 0.500000 0.969984

loop_
_geom_bond_atom_site_label_1
_geom_bond_atom_site_label_2
_ccdc_geom_bond_type
C14   C18   S    
C11   O15   A    
C12   O6    S    
C30   H25   S    
C35   H35   S    
C22   H8    S    
C23   H55   S    
C24   H9    S    
C15   C19   S    
C38   H43   S    
C8    H23   S    
C29   C30   S    
C25   H11   S    
C13   C18   S    
C39   O8    S    
C14   C21   S    
C29   O5    S    
C36   C37   S    
C26   H15   S    
C20   H5    S    
C18   C42   S    
C9    N2    A    
C5    C6    A    
C33   H32   S    
C31   H27   S    
C41   H50   S    
N2    Zn2   S    
C22   O3    S    
C7    O11   A    
C39   H47   S    
C2    H4    S    
C33   C35   S    
C32   H31   S    
O10   Zn1   S    
C11   C17   S    
O9    Zn2   S    
C8    C9    A    
C25   H14   S    
C7    C43   S    
C21   O2    D    
C23   H54   S    
C5    N2    A    
O11   Zn2   S    
C1    O9    A    
C13   O4    S    
C16   H1    S    
C12   O5    S    
C35   H36   S    
C44   C46   A    
C22   H7    S    
C4    C45   A    
C2    C45   A    
O12   Zn1   S    
C18   C23   S    
C37   H40   S    
C28   H21   S    
C24   C25   S    
C26   O4    S    
C39   C40   S    
C35   H37   S    
C33   H33   S    
C31   H28   S    
C4    C44   A    
C38   H42   S    
O14   Zn1   S    
C28   H20   S    
O13   Zn2   S    
C37   C38   S    
C29   H22   S    
C31   H29   S    
C12   C23   S    
C36   O7    S    
C26   C27   S    
O1    Zn1   S    
C6    N1    A    
C27   H17   S    
C40   C41   S    
C15   H12   S    
C41   H51   S    
C42   C43   T    
C40   H49   S    
N1    Zn1   S    
C39   H46   S    
C20   O16   D    
C10   O12   A    
C7    O10   A    
C29   H24   S    
C45   H2    S    
C14   O3    S    
C44   H56   S    
C13   C20   S    
C14   C15   S    
C6    O8    S    
C37   H41   S    
C46   H3    S    
C40   H48   S    
C19   C34   S    
C32   H30   S    
C30   H26   S    
C16   H53   S    
C36   H39   S    
C24   H10   S    
C5    O7    S    
C38   H44   S    
C3    C46   A    
C1    C4    S    
C32   C33   S    
C28   H19   S    
C26   H16   S    
C10   O13   A    
C17   C34   T    
C30   C31   S    
C36   H38   S    
C16   C19   S    
C12   C19   S    
O15   Zn2   S    
C2    C3    A    
C22   C24   S    
C8    N1    A    
C27   H18   S    
C15   H45   S    
C32   O6    S    
C13   C16   S    
C27   C28   S    
C3    C10   S    
C41   H52   S    
C25   H13   S    
C11   O14   A    
C9    H34   S    
C21   H6    S    
C1    O1    A    
