data_mof_unit_48061.cif
_audit_creation_date              2012-12-11T15:14:51-0500
_audit_creation_method            fapswitch 2.2
_symmetry_space_group_name_H-M    P1
_symmetry_Int_Tables_number       1
_space_group_crystal_system       triclinic
_cell_length_a                    22.289385
_cell_length_b                    7.238227
_cell_length_c                    19.241435
_cell_angle_alpha                 90.000684
_cell_angle_beta                  99.122201
_cell_angle_gamma                 90.0
_cell_volume                      3065.06684727

loop_
_atom_site_label
_atom_site_type_symbol
_atom_type_description
_atom_site_fract_x
_atom_site_fract_y
_atom_site_fract_z
_atom_type_partial_charge
O1    O     O_R   0.448470 0.506130 0.415700 -0.534073
O2    O     O_R   0.551530 0.006130 0.584300 -0.534072
O3    O     O_R   0.436320 0.174490 0.555800 -0.529368
O4    O     O_R   0.563680 0.674490 0.444200 -0.529368
C1    C     C_R   0.421210 0.344270 0.575143 0.698527
C2    C     C_R   0.578790 0.844269 0.424857 0.698523
O5    O     O_R   0.441350 0.176340 0.414480 -0.533404
O6    O     O_R   0.558650 0.676340 0.585520 -0.533405
O7    O     O_R   0.556600 0.007100 0.441970 -0.534740
O8    O     O_R   0.443400 0.507100 0.558030 -0.534742
C3    C     C_R   0.427245 0.344713 0.389044 0.671251
C4    C     C_R   0.572755 0.844715 0.610956 0.671250
O9    O     O_3   0.537810 0.339550 0.509190 -0.371298
O10   O     O_3   0.462190 0.839550 0.490810 -0.371299
V1    V     V_3+5 0.492990 0.064280 0.498300 1.446906
V2    V     V_3+5 0.507010 0.564280 0.501700 1.446903
C5    C     C_R   0.867146 0.976225 0.695101 -0.152757
C6    C     C_R   0.132858 0.476301 0.304896 -0.152755
H1    H     H_    0.954454 0.003688 0.759422 0.105824
H2    H     H_    0.045550 0.503759 0.240576 0.105828
H3    H     H_    0.784729 0.970724 0.579651 0.142263
H4    H     H_    0.215277 0.470853 0.420345 0.142263
H5    H     H_    0.885507 0.002671 0.647158 0.116759
H6    H     H_    0.114499 0.502784 0.352838 0.116761
C7    C     C_R   0.884706 0.942073 0.821806 -0.033177
C8    C     C_R   0.115294 0.442082 0.178194 -0.033179
C9    C     C_R   0.589881 0.817893 0.740006 -0.160608
C10   C     C_R   0.410115 0.317809 0.259996 -0.160604
C11   C     C_R   0.626607 0.816594 0.805517 -0.122885
C12   C     C_R   0.373386 0.316455 0.194487 -0.122885
C13   C     C_R   0.688963 0.846842 0.811495 -0.155862
C14   C     C_R   0.311031 0.346727 0.188507 -0.155861
C15   C     C_R   0.716588 0.879852 0.751352 0.078399
C16   C     C_R   0.283411 0.379823 0.248648 0.078399
C17   C     C_R   0.678324 0.882656 0.683981 0.060964
C18   C     C_R   0.321677 0.382670 0.316018 0.060964
C19   C     C_R   0.780791 0.909945 0.755842 0.072784
C20   C     C_R   0.219210 0.409948 0.244157 0.072782
C21   C     C_R   0.804758 0.943692 0.692820 0.128398
C22   C     C_R   0.195245 0.443747 0.307178 0.128398
C23   C     C_R   0.766463 0.945500 0.627756 -0.175126
C24   C     C_R   0.233541 0.445588 0.372241 -0.175121
C25   C     C_R   0.704392 0.915199 0.623286 -0.176738
C26   C     C_R   0.295612 0.415271 0.376711 -0.176740
C27   C     C_R   0.822303 0.908498 0.820392 -0.212087
C28   C     C_R   0.177696 0.408486 0.179608 -0.212088
C29   C     C_R   0.906586 0.976499 0.758976 -0.165853
C30   C     C_R   0.093416 0.476551 0.241022 -0.165852
C31   C     C_R   0.614683 0.851117 0.678868 -0.075863
C32   C     C_R   0.385317 0.351104 0.321132 -0.075868
H7    H     H_    0.807729 0.883844 0.870366 0.091977
H8    H     H_    0.192269 0.383811 0.129635 0.091978
H9    H     H_    0.541606 0.792567 0.736932 0.104204
H10   H     H_    0.458389 0.292456 0.263071 0.104206
H11   H     H_    0.714243 0.843355 0.864032 0.105010
H12   H     H_    0.285748 0.343170 0.135972 0.105009
H13   H     H_    0.606542 0.791131 0.852310 0.116380
H14   H     H_    0.393448 0.290922 0.147696 0.116380
H15   H     H_    0.676856 0.917799 0.571601 0.119186
H16   H     H_    0.323149 0.417900 0.428395 0.119193
C33   C     C_3   0.774373 0.794318 0.307557 0.039577
C34   C     C_3   0.225629 0.294325 0.692443 0.039606
C35   C     C_3   0.800882 0.979460 0.285443 -0.258130
C36   C     C_3   0.199119 0.479466 0.714559 -0.258126
H17   H     H_    0.841985 0.049901 0.313404 0.132160
H18   H     H_    0.158017 0.549906 0.686599 0.132148
H19   H     H_    0.722375 0.199478 0.291094 0.128803
H20   H     H_    0.277625 0.699490 0.708914 0.128797
C37   C     C_1   0.875448 0.940848 0.121192 -0.192758
C38   C     C_1   0.124552 0.440844 0.878808 -0.192739
C39   C     C_1   0.624973 0.853167 0.379559 -0.158498
C40   C     C_1   0.375028 0.353172 0.620442 -0.158494
C41   C     C_3   0.766395 0.726896 0.230560 0.107182
C42   C     C_3   0.233606 0.226900 0.769438 0.107156
C43   C     C_3   0.792018 0.911188 0.208123 0.098027
C44   C     C_3   0.207983 0.411190 0.791878 0.098002
C45   C     C_3   0.701087 0.808171 0.217256 -0.230830
C46   C     C_3   0.298914 0.308177 0.782745 -0.230831
C47   C     C_3   0.709938 0.876950 0.294349 0.101209
C48   C     C_3   0.290064 0.376960 0.705653 0.101205
C49   C     C_3   0.727519 0.992954 0.195411 0.179053
C50   C     C_3   0.272482 0.492957 0.804593 0.179070
C51   C     C_3   0.735631 0.062714 0.272429 -0.141228
C52   C     C_3   0.264371 0.562722 0.727575 -0.141223
C53   C     C_1   0.837700 0.929562 0.160153 -0.058088
C54   C     C_1   0.162300 0.429558 0.839847 -0.058082
C55   C     C_1   0.663328 0.862684 0.341294 0.027061
C56   C     C_1   0.336674 0.362692 0.658708 0.027060
H21   H     H_    0.660058 0.737604 0.189138 0.119559
H22   H     H_    0.339943 0.237610 0.810862 0.119557
O11   O     O_R   0.056650 0.288730 0.942060 -0.532406
O12   O     O_R   0.943350 0.788730 0.057940 -0.532410
O13   O     O_R   0.058660 0.616870 0.085540 -0.535681
O14   O     O_R   0.941340 0.116870 0.914460 -0.535679
C57   C     C_R   0.072766 0.448745 0.111033 0.681010
C58   C     C_R   0.927234 0.948743 0.888967 0.681013
O15   O     O_R   0.063700 0.618520 0.944220 -0.535687
O16   O     O_R   0.936300 0.118520 0.055780 -0.535685
O17   O     O_R   0.948460 0.787610 0.915680 -0.532671
O18   O     O_R   0.051540 0.287610 0.084320 -0.532671
C59   C     C_R   0.078834 0.450118 0.924677 0.714616
C60   C     C_R   0.921166 0.950119 0.075322 0.714619
O19   O     O_3   0.962230 0.453430 0.990860 -0.373115
O20   O     O_3   0.037770 0.953430 0.009140 -0.373116
V3    V     V_3+5 0.007010 0.728750 0.001700 1.420808
V4    V     V_3+5 0.992990 0.228750 0.998300 1.420814
C61   C     C_2   0.802166 0.686891 0.371120 0.358751
H23   H     H_    0.850134 0.653078 0.378535 0.037906
O21   O     O_2   0.771481 0.638815 0.415092 -0.528827
C62   C     C_2   0.197835 0.186908 0.628877 0.358750
H24   H     H_    0.149870 0.153055 0.621471 0.037926
O22   O     O_2   0.228514 0.138889 0.584892 -0.528830
C63   C     C_3   0.700922 0.102001 0.129773 -0.363715
C64   C     C_3   0.638919 0.182829 0.136479 -0.775003
H25   H     H_    0.606697 0.070908 0.144760 0.229465
H26   H     H_    0.642927 0.281142 0.181288 0.220772
H27   H     H_    0.620559 0.258264 0.087470 0.217895
H28   H     H_    0.732501 0.215083 0.121202 0.179947
H29   H     H_    0.696304 0.008647 0.083411 0.177513
C65   C     C_3   0.299077 0.602001 0.870233 -0.363716
C66   C     C_3   0.361083 0.682819 0.863532 -0.775005
H30   H     H_    0.393304 0.570892 0.855254 0.229465
H31   H     H_    0.357079 0.781129 0.818723 0.220769
H32   H     H_    0.379441 0.758256 0.912542 0.217896
H33   H     H_    0.267500 0.715089 0.878803 0.179945
H34   H     H_    0.303692 0.508648 0.916593 0.177513
C67   C     C_3   0.779851 0.536466 0.202395 -0.363584
C68   C     C_3   0.845344 0.474487 0.225829 -0.755200
H35   H     H_    0.877819 0.581075 0.213423 0.231639
H36   H     H_    0.853639 0.445248 0.283081 0.213159
H37   H     H_    0.853636 0.345151 0.197805 0.225684
H38   H     H_    0.748711 0.435058 0.220726 0.186782
H39   H     H_    0.770369 0.540745 0.143980 0.181842
C69   C     C_3   0.220147 0.036477 0.797606 -0.363563
C70   C     C_3   0.154664 0.974451 0.774127 -0.755201
H40   H     H_    0.122170 0.081091 0.786447 0.231612
H41   H     H_    0.146421 0.945037 0.716885 0.213160
H42   H     H_    0.146350 0.845201 0.802193 0.225687
H43   H     H_    0.251309 0.935075 0.779310 0.186769
H44   H     H_    0.229596 0.040795 0.856022 0.181842

loop_
_geom_bond_atom_site_label_1
_geom_bond_atom_site_label_2
_ccdc_geom_bond_type
C70   H42   S    
C47   C51   S    
C35   H17   S    
H19   C51   S    
C7    C27   A    
C9    C11   A    
C23   C25   A    
O1    C3    A    
C50   C65   S    
C48   C52   S    
O2    C4    A    
C68   H35   S    
C2    O7    A    
C47   C55   S    
C64   H25   S    
C38   C59   S    
O3    V1    S    
C70   H40   S    
C21   C23   A    
C37   C60   S    
C46   H22   S    
O5    C3    A    
C45   H21   S    
C5    H5    S    
C42   C44   S    
C6    H6    S    
C34   C48   S    
C20   C22   A    
C26   H16   S    
C1    C40   S    
C69   H44   S    
C46   C48   S    
C27   H7    S    
C68   H36   S    
C58   O17   A    
C28   H8    S    
C5    C21   A    
C33   C35   S    
C6    C22   A    
C62   H24   S    
C36   C52   S    
C66   H32   S    
C34   C36   S    
C40   C56   T    
C67   H38   S    
C10   C32   A    
C43   C53   S    
C17   C31   A    
C61   H23   S    
C13   C15   A    
C17   C25   A    
C7    C29   A    
C16   C18   A    
C25   H15   S    
O13   V3    S    
C22   C24   A    
O13   C57   A    
C63   H29   S    
C11   C13   A    
C61   O21   D    
O11   V4    S    
C24   C26   A    
O11   C59   A    
O20   V3    S    
C49   C51   S    
C4    C31   S    
C45   C47   S    
C2    C39   S    
O17   V3    S    
C66   H31   S    
H20   C52   S    
C67   H39   S    
C8    C30   A    
C57   O18   A    
O4    C2    A    
C44   C50   S    
C69   H43   S    
C10   H10   S    
C65   H33   S    
C43   C49   S    
C33   C41   S    
C41   C67   S    
C15   C19   A    
C35   C51   S    
C36   H18   S    
O4    V2    S    
C37   C53   T    
C46   C50   S    
C34   C62   S    
C45   C49   S    
O6    C4    A    
C36   C44   S    
H1    C29   S    
O1    V2    S    
O14   C58   A    
O2    V1    S    
C66   H30   S    
H2    C30   S    
H3    C23   S    
C11   H13   S    
C50   C52   S    
C39   C55   T    
C18   C26   A    
C41   C43   S    
C19   C27   A    
C67   C68   S    
C38   C54   T    
C68   H37   S    
C44   C54   S    
C18   C32   A    
C65   C66   S    
C63   C64   S    
C8    C57   S    
C70   H41   S    
O14   V4    S    
C16   C20   A    
C5    C29   A    
O3    C1    A    
C6    C30   A    
C42   C69   S    
C64   H26   S    
C9    H9    S    
C69   C70   S    
O12   C60   A    
O18   V4    S    
O16   V4    S    
C10   C12   A    
O7    V1    S    
O15   V3    S    
C1    O8    A    
C48   C56   S    
C3    C32   S    
O16   C60   A    
C12   C14   A    
H4    C24   S    
C35   C43   S    
C33   C47   S    
C12   H14   S    
O5    V1    S    
C15   C17   A    
O19   V4    S    
C65   H34   S    
C33   C61   S    
C62   O22   D    
C20   C28   A    
C64   H27   S    
C8    C28   A    
C63   H28   S    
O12   V3    S    
C19   C21   A    
C7    C58   S    
O6    V2    S    
C42   C46   S    
O9    V2    S    
C49   C63   S    
C41   C45   S    
O10   V1    S    
C34   C42   S    
O8    V2    S    
C13   H11   S    
C14   H12   S    
O15   C59   A    
C9    C31   A    
C14   C16   A    
