data_mof_unit_8956.cif
_audit_creation_date              2012-12-11T17:39:28-0500
_audit_creation_method            fapswitch 2.2
_symmetry_space_group_name_H-M    P1
_symmetry_Int_Tables_number       1
_space_group_crystal_system       triclinic
_cell_length_a                    15.113364
_cell_length_b                    15.130812
_cell_length_c                    15.002293
_cell_angle_alpha                 108.494271
_cell_angle_beta                  110.343662
_cell_angle_gamma                 110.079269
_cell_volume                      2623.8076072

loop_
_atom_site_label
_atom_site_type_symbol
_atom_type_description
_atom_site_fract_x
_atom_site_fract_y
_atom_site_fract_z
_atom_type_partial_charge
C1    C     C_R   0.909085 0.970512 0.722093 -0.127218
C2    C     C_R   0.998706 0.321324 0.546725 0.044533
C3    C     C_R   0.366474 0.297991 0.798894 0.154400
C4    C     C_R   0.634826 0.934326 0.431769 0.053981
C5    C     C_R   0.722810 0.687694 0.277272 -0.143128
C6    C     C_R   0.256930 0.036810 0.443804 -0.089562
C7    C     C_R   0.092650 0.791997 0.592268 -0.145988
C8    C     C_R   0.907836 0.002962 0.200928 -0.128636
C9    C     C_R   0.089745 0.091672 0.288893 -0.129930
C10   C     C_R   0.910298 0.700351 0.502126 -0.130809
C11   C     C_R   0.728520 0.780885 0.186304 -0.130917
C12   C     C_R   0.091610 0.313773 0.561103 -0.135367
C13   C     C_R   0.262305 0.948287 0.539568 -0.160242
C14   C     C_R   0.683587 0.678839 0.174668 0.131821
C15   C     C_R   0.295369 0.973420 0.471394 0.057039
C16   C     C_R   0.002791 0.697296 0.560659 0.064362
C17   C     C_R   0.996248 0.059442 0.193921 0.059575
C18   C     C_R   0.454636 0.588310 0.263361 -0.126956
C19   C     C_R   0.458833 0.687566 0.289136 -0.121247
C20   C     C_R   0.438961 0.734172 0.372021 0.118798
C21   C     C_R   0.412444 0.678114 0.426408 -0.169159
C22   C     C_R   0.408445 0.579091 0.400452 -0.095819
C23   C     C_R   0.303575 0.206550 0.797840 -0.181792
C24   C     C_R   0.430141 0.534542 0.319489 -0.112693
C25   C     C_R   0.366400 0.856610 0.417856 -0.255452
C26   C     C_R   0.377219 0.959132 0.453316 0.094281
C27   C     C_R   0.467869 0.048654 0.473797 0.109619
C28   C     C_R   0.544633 0.032964 0.454623 -0.207770
C29   C     C_R   0.537065 0.932243 0.423250 0.053413
C30   C     C_R   0.447562 0.841826 0.403612 0.020740
C31   C     C_R   0.481167 0.221853 0.474953 -0.081781
C32   C     C_R   0.520896 0.333138 0.537356 -0.178167
C33   C     C_R   0.574200 0.384691 0.651366 -0.121867
C34   C     C_R   0.696531 0.992759 0.400801 -0.172744
C35   C     C_R   0.587929 0.326138 0.705075 -0.079832
C36   C     C_R   0.547655 0.215683 0.645145 -0.144210
C37   C     C_R   0.494971 0.162561 0.530470 0.017103
C38   C     C_R   0.748068 0.184290 0.214143 -0.116935
C39   C     C_R   0.826980 0.283126 0.309942 -0.118040
C40   C     C_R   0.806061 0.319496 0.394683 0.112033
C41   C     C_R   0.702310 0.259504 0.379290 -0.176327
C42   C     C_R   0.623910 0.159705 0.283342 -0.138953
C43   C     C_R   0.647267 0.121513 0.201498 -0.164139
C44   C     C_R   0.900564 0.511734 0.518290 -0.230009
C45   C     C_R   0.302650 0.297762 0.707218 -0.113197
C46   C     C_R   0.001207 0.609536 0.583537 0.063091
C47   C     C_R   0.096374 0.612421 0.652006 0.020747
C48   C     C_R   0.086932 0.517768 0.651419 -0.237497
C49   C     C_R   0.991428 0.418654 0.570836 0.067421
C50   C     C_R   0.896983 0.415727 0.501779 0.015691
C51   C     C_R   0.266128 0.708957 0.650945 -0.179012
C52   C     C_R   0.368283 0.800618 0.698302 -0.122327
C53   C     C_R   0.415217 0.885559 0.803151 -0.110113
C54   C     C_R   0.362694 0.876833 0.862928 -0.143326
C55   C     C_R   0.259343 0.786349 0.815412 -0.153838
C56   C     C_R   0.696440 0.905815 0.495632 -0.125170
C57   C     C_R   0.209214 0.703501 0.707838 0.115541
C58   C     C_2   0.533930 0.467244 0.881114 -0.146423
C59   C     C_2   0.481798 0.374288 0.878447 -0.213439
C60   C     C_2   0.619414 0.563501 0.986216 -0.126549
C61   C     C_2   0.605752 0.580411 0.072277 -0.215543
C62   C     C_R   0.291163 0.039321 0.024615 -0.200435
C63   C     C_R   0.199820 0.045777 0.017242 -0.123467
C64   C     C_R   0.203555 0.145065 0.045729 0.107360
C65   C     C_R   0.301876 0.239419 0.086758 -0.223285
C66   C     C_R   0.395510 0.233757 0.095272 0.276800
C67   C     C_R   0.909546 0.218106 0.481766 -0.106544
C68   C     C_R   0.388077 0.131840 0.062237 -0.086408
C69   C     C_R   0.092733 0.160154 0.124839 -0.212468
C70   C     C_R   0.992538 0.090602 0.109528 0.044908
C71   C     C_R   0.895764 0.039034 0.006346 0.007344
C72   C     C_R   0.904944 0.059626 0.925179 -0.224145
C73   C     C_R   0.006021 0.093477 0.930042 0.056568
C74   C     C_R   0.102950 0.146239 0.033671 0.023408
C75   C     C_R   0.793361 0.839174 0.924768 -0.122620
C76   C     C_R   0.698779 0.741672 0.882354 -0.146072
C77   C     C_R   0.607305 0.742228 0.884373 -0.094920
C78   C     C_R   0.091980 0.067293 0.810837 -0.120403
C79   C     C_R   0.609375 0.840035 0.925703 -0.110597
C80   C     C_R   0.701143 0.937208 0.961314 -0.207572
C81   C     C_R   0.795552 0.937781 0.965634 0.125647
C82   C     C_R   0.002784 0.048930 0.825106 0.048617
H1    H     H_    0.824327 0.935379 0.700252 0.095578
H2    H     H_    0.268148 0.070600 0.392861 0.125550
H3    H     H_    0.177192 0.828679 0.651559 0.133790
H4    H     H_    0.825177 0.984826 0.155972 0.113870
H5    H     H_    0.173791 0.149406 0.319672 0.094531
H6    H     H_    0.826730 0.649850 0.479231 0.086839
H7    H     H_    0.710376 0.802938 0.123104 0.117750
H8    H     H_    0.282656 0.903990 0.579316 0.113404
H9    H     H_    0.427824 0.458344 0.300487 0.119629
H10   H     H_    0.470579 0.553162 0.200054 0.103066
H11   H     H_    0.477862 0.728060 0.244740 0.114077
H12   H     H_    0.176106 0.378676 0.607243 0.096237
H13   H     H_    0.396592 0.711774 0.490169 0.101462
H14   H     H_    0.389107 0.537163 0.443609 0.106399
H15   H     H_    0.295444 0.789047 0.402648 0.134848
H16   H     H_    0.616631 0.103295 0.474741 0.121649
H17   H     H_    0.511127 0.380824 0.498029 0.147676
H18   H     H_    0.605290 0.470419 0.698164 0.102487
H19   H     H_    0.631212 0.366592 0.793516 0.123503
H20   H     H_    0.560490 0.171821 0.688445 0.110293
H21   H     H_    0.586884 0.043960 0.127907 0.108229
H22   H     H_    0.333698 0.175204 0.849615 0.104768
H23   H     H_    0.766250 0.156166 0.150849 0.106300
H24   H     H_    0.906218 0.329249 0.320279 0.111592
H25   H     H_    0.684795 0.286746 0.443654 0.126529
H26   H     H_    0.545779 0.110750 0.272803 0.158105
H27   H     H_    0.827000 0.505365 0.463264 0.126893
H28   H     H_    0.159445 0.520023 0.703620 0.129663
H29   H     H_    0.229083 0.644677 0.568371 0.117250
H30   H     H_    0.410693 0.806811 0.653629 0.109093
H31   H     H_    0.494128 0.956699 0.839598 0.105493
H32   H     H_    0.402879 0.940397 0.946112 0.101316
H33   H     H_    0.668932 0.018019 0.341999 0.123034
H34   H     H_    0.217662 0.781499 0.861075 0.110904
H35   H     H_    0.502906 0.478697 0.811377 0.122621
H36   H     H_    0.518459 0.363481 0.947512 0.148495
H37   H     H_    0.687764 0.624699 0.991254 0.139096
H38   H     H_    0.536248 0.521453 0.067714 0.136403
H39   H     H_    0.456631 0.122377 0.066313 0.090923
H40   H     H_    0.287042 0.962367 0.003681 0.119678
H41   H     H_    0.125255 0.972927 0.988080 0.116810
H42   H     H_    0.304679 0.316192 0.109737 0.114120
H43   H     H_    0.330359 0.348399 0.674364 0.086126
H44   H     H_    0.167530 0.203564 0.203187 0.138938
H45   H     H_    0.830034 0.023440 0.848809 0.125736
H46   H     H_    0.864620 0.837987 0.924717 0.109856
H47   H     H_    0.697071 0.665914 0.849417 0.101674
H48   H     H_    0.534986 0.667093 0.854436 0.107652
H49   H     H_    0.539944 0.840163 0.930652 0.129999
H50   H     H_    0.700008 0.011742 0.988801 0.104896
H51   H     H_    0.669103 0.852353 0.526047 0.103512
H52   H     H_    0.826769 0.192651 0.462884 0.121587
H53   H     H_    0.176637 0.127303 0.868795 0.120509
H54   H     H_    0.698541 0.624530 0.297654 0.108379
N1    N     N_R   0.941940 0.944580 0.650780 -0.042425
N2    N     N_R   0.206190 0.054080 0.497260 -0.048097
N3    N     N_R   0.056380 0.847410 0.553580 -0.040779
N4    N     N_R   0.944890 0.999100 0.292900 -0.042474
N5    N     N_R   0.058060 0.055420 0.349220 -0.043419
N6    N     N_R   0.943200 0.791100 0.497260 -0.037767
N7    N     N_R   0.795540 0.849750 0.292910 -0.044033
N8    N     N_R   0.205730 0.996760 0.553580 -0.037277
N9    N     N_R   0.056800 0.208900 0.502740 -0.042409
N10   N     N_R   0.204460 0.150250 0.707090 -0.041437
N11   N     N_R   0.794270 0.003240 0.446420 -0.040085
N12   N     N_R   0.204920 0.207570 0.650770 -0.044513
N13   N     N_R   0.793810 0.945920 0.502740 -0.039300
N14   N     N_R   0.943620 0.152590 0.446420 -0.043238
N15   N     N_R   0.055110 0.000900 0.707100 -0.042891
N16   N     N_R   0.795080 0.792430 0.349230 -0.039730
Ni1   Ni    Ni4+2 0.869690 0.869690 0.500000 0.214786
Ni2   Ni    Ni4+2 0.130310 0.130310 0.500000 0.211440
Ni3   Ni    Ni4+2 0.129250 0.998840 0.629170 0.217338
Ni4   Ni    Ni4+2 0.870750 0.001160 0.370830 0.214808
C83   C     C_2   0.423649 0.169983 0.353325 0.916326
O1    O     O_2   0.422431 0.225785 0.309680 -0.664041
O2    O     O_R   0.368727 0.057414 0.288104 -0.826521
H55   H     H_    0.329911 0.031849 0.207144 0.329274
C84   C     C_3   0.500647 0.337543 0.140955 -0.484376
C85   C     C_3   0.595639 0.321566 0.140200 -0.265890
C86   C     C_3   0.700760 0.427694 0.190795 -0.909990
H56   H     H_    0.688370 0.469439 0.143062 0.271567
H57   H     H_    0.727970 0.480538 0.276986 0.253242
H58   H     H_    0.766480 0.410718 0.190135 0.253865
H59   H     H_    0.614606 0.283065 0.189670 0.241778
H60   H     H_    0.571663 0.268738 0.054953 0.185716
H61   H     H_    0.481660 0.376852 0.091999 0.169916
H62   H     H_    0.527461 0.392676 0.226499 0.208033

loop_
_geom_bond_atom_site_label_1
_geom_bond_atom_site_label_2
_ccdc_geom_bond_type
C5    H54   S    
C66   C68   A    
C83   O1    D    
C80   H50   S    
C13   H8    S    
C39   H24   S    
C45   N12   A    
C41   C42   A    
C48   H28   S    
C86   H56   S    
C2    C12   A    
C56   H51   S    
C20   C30   S    
C53   C54   A    
C10   H6    S    
C26   C27   A    
C62   C63   A    
C5    N16   A    
C18   C24   A    
C36   C37   A    
N11   N13   A    
C18   C19   A    
C10   N6    A    
C38   C39   A    
N3    N6    A    
N5    Ni2   S    
C13   N8    A    
C55   H34   S    
C52   H30   S    
C58   C60   S    
C85   H59   S    
C60   H37   S    
C36   H20   S    
C75   H46   S    
C73   C74   A    
C65   H42   S    
N13   Ni1   S    
C33   C35   A    
C6    C15   A    
C54   C55   A    
C3    C23   A    
N10   Ni3   S    
O2    H55   S    
C44   C46   A    
C70   C71   A    
C51   C57   A    
N15   Ni3   S    
C78   H53   S    
C8    H4    S    
C4    C29   S    
C19   H11   S    
C72   C73   A    
C84   H61   S    
C44   H27   S    
N2    Ni2   S    
C17   C70   S    
C83   O2    S    
N14   Ni4   S    
C21   C22   A    
C4    C56   A    
C67   N14   A    
C12   H12   S    
N12   Ni2   S    
C53   H31   S    
C78   N15   A    
C84   C85   S    
N10   N12   A    
C77   C79   A    
C23   N10   A    
C4    C34   A    
C6    H2    S    
C72   H45   S    
C51   C52   A    
C47   C48   A    
C67   H52   S    
C76   C77   A    
C2    C67   A    
C16   C46   S    
C39   C40   A    
C9    N5    A    
C75   C81   A    
C15   C26   S    
C21   H13   S    
C25   C26   A    
C14   C61   S    
C3    C45   A    
C58   H35   S    
C31   C37   A    
C66   C84   S    
C60   C61   D    
C35   C36   A    
C12   N9    A    
C6    N2    A    
C75   C76   A    
N8    Ni3   S    
C29   C30   A    
C2    C49   S    
C28   H16   S    
C47   C57   S    
C34   N11   A    
C78   C82   A    
C23   H22   S    
N3    Ni3   S    
C48   C49   A    
C79   H49   S    
C11   H7    S    
C86   H58   S    
C76   H47   S    
N1    Ni1   S    
C69   C74   A    
N4    N5    A    
N11   Ni4   S    
C5    C14   A    
C31   C83   S    
N4    Ni4   S    
C85   H60   S    
N9    Ni2   S    
C25   H15   S    
N7    N16   A    
C69   H44   S    
C49   C50   A    
C59   H36   S    
C13   C15   A    
C22   C24   A    
C79   C80   A    
C58   C59   D    
C42   C43   A    
C84   H62   S    
C28   C29   A    
C24   H9    S    
C73   C82   S    
C62   H40   S    
C1    N1    A    
C52   C53   A    
C85   C86   S    
C44   C50   A    
C25   C30   A    
C46   C47   A    
C40   C41   A    
C51   H29   S    
C41   H25   S    
C86   H57   S    
C22   H14   S    
C31   C32   A    
C7    C16   A    
N9    N14   A    
C80   C81   A    
C35   H19   S    
C68   H39   S    
C63   H41   S    
C1    H1    S    
C8    C17   A    
C32   H17   S    
C62   C68   A    
C8    N4    A    
C33   H18   S    
C18   H10   S    
C64   C65   A    
C19   C20   A    
C55   C57   A    
C34   H33   S    
C38   C43   A    
C38   H23   S    
N2    N8    A    
C32   C33   A    
C7    N3    A    
C1    C82   A    
N7    Ni4   S    
C7    H3    S    
C11   N7    A    
C27   C37   S    
C40   C50   S    
C54   H32   S    
C11   C14   A    
C9    C17   A    
C77   H48   S    
N6    Ni1   S    
C69   C70   A    
C43   H21   S    
C63   C64   A    
C71   C72   A    
C20   C21   A    
C65   C66   A    
C45   H43   S    
C27   C28   A    
C64   C74   S    
N1    N15   A    
C10   C16   A    
N16   Ni1   S    
C71   C81   S    
C56   N13   A    
C42   H26   S    
C9    H5    S    
C61   H38   S    
C3    C59   S    
