data_mof_unit_18150.cif
_audit_creation_date              2012-12-11T16:58:13-0500
_audit_creation_method            fapswitch 2.2
_symmetry_space_group_name_H-M    P1
_symmetry_Int_Tables_number       1
_space_group_crystal_system       triclinic
_cell_length_a                    16.864458
_cell_length_b                    7.269248
_cell_length_c                    16.781994
_cell_angle_alpha                 89.999448
_cell_angle_beta                  100.216092
_cell_angle_gamma                 89.999091
_cell_volume                      2024.7196294

loop_
_atom_site_label
_atom_site_type_symbol
_atom_type_description
_atom_site_fract_x
_atom_site_fract_y
_atom_site_fract_z
_atom_type_partial_charge
O1    O     O_R   0.413450 0.494370 0.415710 -0.537757
O2    O     O_R   0.586550 0.994370 0.584290 -0.537754
O3    O     O_R   0.578420 0.819350 0.429360 -0.541221
O4    O     O_R   0.421580 0.319350 0.570640 -0.541230
C1    C     C_R   0.603571 0.655293 0.412703 0.684286
C2    C     C_R   0.396430 0.155290 0.587298 0.684333
O5    O     O_R   0.413570 0.823780 0.406240 -0.522769
O6    O     O_R   0.586430 0.323780 0.593760 -0.522768
O7    O     O_R   0.420530 0.998740 0.561000 -0.535387
O8    O     O_R   0.579470 0.498740 0.439000 -0.535411
C3    C     C_R   0.385975 0.655512 0.383913 0.676785
C4    C     C_R   0.614024 0.155511 0.616087 0.676798
O9    O     O_3   0.502480 0.662320 0.550800 -0.366839
O10   O     O_3   0.497520 0.162320 0.449200 -0.366842
V1    V     V_3+5 0.499540 0.935370 0.490580 1.446256
V2    V     V_3+5 0.500460 0.435370 0.509420 1.446234
C5    C     C_R   0.694114 0.991775 0.735992 0.000286
C6    C     C_R   0.305888 0.491763 0.264012 0.000297
C7    C     C_R   0.681195 0.147307 0.686270 -0.134423
C8    C     C_R   0.318802 0.647298 0.313732 -0.134400
C9    C     C_R   0.733334 0.297878 0.707114 -0.109358
C10   C     C_R   0.266655 0.797860 0.292892 -0.109397
H1    H     H_    0.726276 0.420997 0.670477 0.154177
H2    H     H_    0.273703 0.920970 0.329533 0.154204
C11   C     C_R   0.798871 0.286443 0.771980 -0.186207
C12   C     C_R   0.201123 0.786429 0.228022 -0.186224
H3    H     H_    0.839080 0.403075 0.783972 0.131269
H4    H     H_    0.160909 0.903056 0.216031 0.131271
C13   C     C_R   0.815264 0.122652 0.817222 -0.081118
C14   C     C_R   0.184739 0.622645 0.182775 -0.081097
C15   C     C_R   0.759265 0.979179 0.799832 0.050108
C16   C     C_R   0.240740 0.479172 0.200166 0.050038
C17   C     C_3   0.772099 0.779521 0.785060 -0.466583
C18   C     C_3   0.227897 0.279520 0.214940 -0.466549
C19   C     C_3   0.702420 0.793285 0.713787 0.286786
C20   C     C_3   0.297555 0.293285 0.286230 0.286793
H5    H     H_    0.759089 0.692199 0.835591 0.188063
H6    H     H_    0.240926 0.192192 0.164417 0.188038
H7    H     H_    0.831019 0.752174 0.766346 0.139650
H8    H     H_    0.168966 0.252173 0.233632 0.139669
H9    H     H_    0.722630 0.778146 0.654525 0.073437
H10   H     H_    0.277322 0.278189 0.345485 0.073438
C21   C     C_R   0.333495 0.146597 0.638252 -0.069359
C22   C     C_R   0.666504 0.646642 0.361748 -0.069345
C23   C     C_R   0.168333 0.122017 0.864751 -0.092037
C24   C     C_R   0.831663 0.622018 0.135245 -0.092061
C25   C     C_R   0.312084 0.129204 0.858217 0.419460
C26   C     C_R   0.687907 0.628706 0.141787 0.419444
C27   C     C_R   0.249104 0.123640 0.903102 -0.251688
C28   C     C_R   0.750888 0.623170 0.096900 -0.251811
C29   C     C_R   0.149764 0.125363 0.780090 -0.233719
C30   C     C_R   0.850237 0.625864 0.219900 -0.233679
C31   C     C_R   0.211468 0.131898 0.733573 0.107271
C32   C     C_R   0.788532 0.632292 0.266419 0.107267
C33   C     C_R   0.293627 0.134852 0.772159 0.028292
C34   C     C_R   0.706366 0.634661 0.227840 0.028310
C35   C     C_R   0.354082 0.143209 0.723200 -0.170145
C36   C     C_R   0.645909 0.642767 0.276805 -0.170125
C37   C     C_R   0.252284 0.142069 0.601578 -0.164206
C38   C     C_R   0.747725 0.642805 0.398414 -0.164196
C39   C     C_R   0.191835 0.135260 0.648680 -0.141498
C40   C     C_R   0.808174 0.636129 0.351308 -0.141498
H11   H     H_    0.417293 0.147262 0.749870 0.168627
H12   H     H_    0.582689 0.646260 0.250142 0.168590
H13   H     H_    0.235649 0.144569 0.536189 0.095750
H14   H     H_    0.764365 0.645723 0.463799 0.095735
H15   H     H_    0.129438 0.132600 0.618577 0.107651
H16   H     H_    0.870576 0.633965 0.381401 0.107653
H17   H     H_    0.262673 0.119559 0.968603 0.143284
H18   H     H_    0.737317 0.618770 0.031403 0.143483
H19   H     H_    0.087138 0.123083 0.750511 0.105996
H20   H     H_    0.912868 0.624008 0.249473 0.105984
O11   O     O_R   0.920630 0.775410 0.061150 -0.531211
O12   O     O_R   0.079370 0.275410 0.938850 -0.531222
O13   O     O_R   0.086500 0.441450 0.093690 -0.538539
O14   O     O_R   0.913500 0.941450 0.906310 -0.538536
C41   C     C_R   0.114107 0.610105 0.116061 0.689628
C42   C     C_R   0.885894 0.110108 0.883938 0.689631
O15   O     O_R   0.921670 0.445960 0.070740 -0.533690
O16   O     O_R   0.078330 0.945960 0.929260 -0.533689
O17   O     O_R   0.913380 0.271130 0.915780 -0.538256
O18   O     O_R   0.086620 0.771130 0.084220 -0.538255
C43   C     C_R   0.896223 0.614179 0.086184 0.711226
C44   C     C_R   0.103775 0.114177 0.913814 0.711232
O19   O     O_3   0.997500 0.603030 0.949220 -0.378078
O20   O     O_3   0.002500 0.103030 0.050780 -0.378076
V3    V     V_3+5 0.000470 0.329940 0.009420 1.420004
V4    V     V_3+5 0.999530 0.829940 0.990580 1.420015
O21   O     O_3   0.637835 0.670185 0.719730 -0.547100
C45   C     C_3   0.582148 0.736285 0.766687 0.142781
H21   H     H_    0.548013 0.855450 0.736251 0.128809
H22   H     H_    0.613090 0.776428 0.828335 0.134704
C46   C     C_3   0.522418 0.583947 0.774999 -0.547147
H23   H     H_    0.554995 0.461993 0.804296 0.247472
H24   H     H_    0.478571 0.632205 0.812527 0.239714
H25   H     H_    0.489097 0.543677 0.714392 0.197093
O22   O     O_3   0.362132 0.170132 0.280323 -0.547106
C47   C     C_3   0.417845 0.236145 0.233379 0.142690
H26   H     H_    0.452047 0.355162 0.263862 0.128805
H27   H     H_    0.386919 0.276486 0.171750 0.134597
C48   C     C_3   0.477474 0.083634 0.224994 -0.547205
H28   H     H_    0.444818 0.961907 0.195577 0.247471
H29   H     H_    0.521393 0.131862 0.187541 0.239699
H30   H     H_    0.510722 0.043022 0.285584 0.197215
S1    S     S_3+6 0.412477 0.126810 0.912239 0.044719
O23   O     O_2   0.456708 0.965483 0.885236 -0.326873
O24   O     O_2   0.454515 0.300767 0.895097 -0.319714
O25   O     O_3   0.414593 0.109592 0.012550 -0.454382
H31   H     H_    0.404232 0.235923 0.030276 0.355789
S2    S     S_3+6 0.587514 0.625961 0.087768 0.044686
O26   O     O_2   0.543484 0.464140 0.114622 -0.326630
O27   O     O_2   0.545265 0.799493 0.105084 -0.320005
O28   O     O_3   0.585410 0.609384 0.987438 -0.454393
H32   H     H_    0.595680 0.735879 0.969846 0.355815

loop_
_geom_bond_atom_site_label_1
_geom_bond_atom_site_label_2
_ccdc_geom_bond_type
C26   S2    S    
C46   H23   S    
C20   H10   S    
O1    C3    A    
O16   C44   A    
O2    C4    A    
C2    O7    A    
O15   V3    S    
O22   C47   S    
C25   C27   A    
O5    C3    A    
S1    O24   D    
C48   H28   S    
C18   H8    S    
C46   H25   S    
C7    C9    A    
O14   C42   A    
C23   C29   A    
C24   C30   A    
O25   H31   S    
C38   C40   A    
O6    V2    S    
S2    O26   D    
C17   C19   S    
C14   C41   S    
C31   C39   A    
C13   C42   S    
C22   C36   A    
C25   S1    S    
C15   C17   S    
C20   O22   S    
O12   V3    S    
O14   V4    S    
C18   C20   S    
C21   C37   A    
C26   C28   A    
C38   H14   S    
C46   H24   S    
C27   H17   S    
C11   C13   A    
C29   H19   S    
C13   C15   A    
C30   C32   A    
C35   H11   S    
C31   C33   A    
C36   H12   S    
S1    O25   S    
C32   C34   A    
C3    C8    S    
C37   C39   A    
O4    C2    A    
O20   V3    S    
C32   C40   A    
C17   H5    S    
C29   C31   A    
C16   C18   S    
O4    V2    S    
O11   V4    S    
C30   H20   S    
C39   H15   S    
C45   H22   S    
C23   C27   A    
O6    C4    A    
O1    V2    S    
C17   H7    S    
O2    V1    S    
O13   C41   A    
S2    O28   S    
O17   V3    S    
C19   O21   S    
O13   V3    S    
C1    C22   S    
C8    C10   A    
C12   C14   A    
C48   H30   S    
C47   H27   S    
C2    C21   S    
C33   C35   A    
C5    C15   A    
C10   H2    S    
C23   C44   S    
C6    C16   A    
O3    V1    S    
C45   C46   S    
C25   C33   A    
O28   H32   S    
O19   V4    S    
C26   C34   A    
C9    C11   A    
C18   H6    S    
O12   C44   A    
O3    C1    A    
C11   H3    S    
C47   C48   S    
S1    O23   D    
C24   C28   A    
C12   H4    S    
C40   H16   S    
C9    H1    S    
C28   H18   S    
C1    O8    A    
O16   V4    S    
O8    V2    S    
C37   H13   S    
C14   C16   A    
C42   O17   A    
C45   H21   S    
C41   O18   A    
C22   C38   A    
O18   V4    S    
C4    C7    S    
O5    V1    S    
C5    C7    A    
C34   C36   A    
C6    C8    A    
O7    V1    S    
C19   H9    S    
S2    O27   D    
C21   C35   A    
C24   C43   S    
O15   C43   A    
C48   H29   S    
C47   H26   S    
C10   C12   A    
O9    V2    S    
O10   V1    S    
C5    C19   S    
O21   C45   S    
C6    C20   S    
O11   C43   A    
