data_mof_unit_13790.cif
_audit_creation_date              2012-12-11T14:06:39-0500
_audit_creation_method            fapswitch 2.2
_symmetry_space_group_name_H-M    P1
_symmetry_Int_Tables_number       1
_space_group_crystal_system       triclinic
_cell_length_a                    11.867893
_cell_length_b                    11.916241
_cell_length_c                    19.460093
_cell_angle_alpha                 89.834948
_cell_angle_beta                  90.127005
_cell_angle_gamma                 119.665811
_cell_volume                      2391.32786479

loop_
_atom_site_label
_atom_site_type_symbol
_atom_type_description
_atom_site_fract_x
_atom_site_fract_y
_atom_site_fract_z
_atom_type_partial_charge
C1    C     C_R   0.553562 0.475159 0.597774 0.541276
C2    C     C_R   0.404630 0.843502 0.133382 0.529552
C3    C     C_R   0.154812 0.559821 0.133115 0.537758
C4    C     C_R   0.477536 0.544643 0.118579 0.602073
C5    C     C_R   0.553982 0.475238 0.402206 0.550526
C6    C     C_R   0.519475 0.070815 0.404766 0.542214
C7    C     C_R   0.922430 0.446948 0.403110 0.553326
C8    C     C_1   0.034736 0.515347 0.858811 0.004032
C9    C     C_1   0.485679 0.520557 0.858821 0.008457
C10   C     C_1   0.479795 0.965430 0.858892 0.004385
C11   C     C_1   0.992492 0.493811 0.726859 -0.028334
C12   C     C_R   0.524718 0.077892 0.597767 0.540883
C13   C     C_1   0.505976 0.498232 0.726893 -0.028677
C14   C     C_1   0.501964 0.007409 0.726915 -0.028831
C15   C     C_1   0.013000 0.506454 0.798188 -0.031105
C16   C     C_1   0.494196 0.507153 0.798237 -0.029953
C17   C     C_1   0.493133 0.987034 0.798272 -0.030578
C18   C     C_1   0.968460 0.476979 0.666565 0.008839
C19   C     C_1   0.522311 0.490497 0.666579 0.009426
C20   C     C_1   0.509588 0.031335 0.666574 0.008810
C21   C     C_2   0.980472 0.488704 0.336618 -0.111828
C22   C     C_2   0.528344 0.485913 0.330647 -0.113612
C23   C     C_R   0.921746 0.446114 0.597789 0.542213
C24   C     C_2   0.473559 0.977335 0.347680 -0.116656
C25   C     C_2   0.106687 0.536770 0.201784 -0.104714
C26   C     C_2   0.497217 0.503610 0.184737 -0.084230
C27   C     C_2   0.425053 0.878331 0.205922 -0.132566
C28   C     C_2   0.979523 0.465227 0.215960 0.002448
C29   C     C_2   0.612274 0.568422 0.216882 -0.029315
C30   C     C_2   0.328947 0.874312 0.245806 -0.026483
C31   C     C_2   0.868916 0.434989 0.168527 0.276787
C32   C     C_2   0.738665 0.630627 0.179490 0.254945
C33   C     C_2   0.195495 0.827418 0.217626 0.236643
C34   C     C_2   0.948080 0.406488 0.283510 -0.077793
C35   C     C_3   0.884261 0.259884 0.290931 -0.239524
C36   C     C_3   0.874352 0.187479 0.223763 -0.307076
C37   C     C_3   0.833639 0.047017 0.238155 -0.456135
C38   C     C_3   0.683183 0.724505 0.319398 -0.221874
C39   C     C_3   0.827122 0.772534 0.336489 -0.273375
C40   C     C_3   0.869561 0.854731 0.401674 -0.423211
C41   C     C_3   0.247419 0.957889 0.344539 -0.190722
C42   C     C_3   0.265864 0.087752 0.316986 -0.249087
C43   C     C_3   0.189011 0.136202 0.357771 -0.440028
C44   C     C_2   0.611156 0.587167 0.291492 -0.060332
C45   C     C_2   0.354531 0.932643 0.316085 -0.031966
C46   C     C_R   0.451444 0.924132 0.928647 0.567229
C47   C     C_R   0.076206 0.527931 0.928564 0.594979
C48   C     C_R   0.472508 0.549069 0.928516 0.569723
Cr1   Cr    Cr6+3 0.468420 0.238090 0.499960 1.005291
Cr2   Cr    Cr6+3 0.761910 0.230330 0.499960 1.014225
Cr3   Cr    Cr6+3 0.769670 0.531580 0.499960 1.003703
Cr4   Cr    Cr6+3 0.515700 0.760130 0.026360 1.055231
Cr5   Cr    Cr6+3 0.239870 0.755570 0.026360 1.115274
Cr6   Cr    Cr6+3 0.244430 0.484300 0.026360 1.039870
H1    H     H_    0.178378 0.554180 0.241401 0.030413
H2    H     H_    0.911335 0.040948 0.266789 0.151635
H3    H     H_    0.743548 0.002291 0.269102 0.138681
H4    H     H_    0.815759 0.993480 0.189064 0.170228
H5    H     H_    0.800604 0.189316 0.189335 0.174719
H6    H     H_    0.969560 0.232961 0.197020 0.195282
H7    H     H_    0.943978 0.238703 0.327161 0.178275
H8    H     H_    0.785215 0.221610 0.312426 0.170559
H9    H     H_    0.862535 0.943478 0.393987 0.134333
H10   H     H_    0.808209 0.800474 0.446135 0.187927
H11   H     H_    0.971202 0.882087 0.414250 0.123886
H12   H     H_    0.407806 0.448509 0.213424 0.063860
H13   H     H_    0.845797 0.690493 0.343019 0.192772
H14   H     H_    0.889477 0.832621 0.293602 0.130391
H15   H     H_    0.677229 0.789283 0.280442 0.114495
H16   H     H_    0.630456 0.732054 0.364794 0.158642
H17   H     H_    0.084058 0.073079 0.348476 0.135098
H18   H     H_    0.210091 0.139076 0.413569 0.173288
H19   H     H_    0.215851 0.235225 0.340461 0.135901
H20   H     H_    0.369785 0.163026 0.318077 0.185319
H21   H     H_    0.234821 0.077085 0.262462 0.195368
H22   H     H_    0.148637 0.880626 0.330749 0.099671
H23   H     H_    0.522620 0.913846 0.224491 0.080558
H24   H     H_    0.238988 0.948369 0.401228 0.166023
H25   H     H_    0.027415 0.592071 0.327022 0.061704
H26   H     H_    0.463509 0.393733 0.306929 0.078277
H27   H     H_    0.543299 0.951183 0.329450 0.061683
H28   H     H_    0.770795 0.382071 0.188546 0.093278
H29   H     H_    0.828268 0.689225 0.206852 0.104288
H30   H     H_    0.114211 0.743485 0.239845 0.073459
O1    O     O_R   0.434830 0.101190 0.575190 -0.509956
O2    O     O_R   0.664850 0.560590 0.424150 -0.514631
O3    O     O_R   0.484380 0.363570 0.430280 -0.507922
O4    O     O_R   0.636430 0.120810 0.430280 -0.508752
O5    O     O_R   0.879190 0.515620 0.430280 -0.510300
O6    O     O_3   0.666667 0.333333 0.499980 -0.268527
O7    O     O_R   0.548200 0.655360 0.951320 -0.489499
O8    O     O_R   0.344640 0.892840 0.951320 -0.499471
O9    O     O_R   0.107160 0.451800 0.951320 -0.496440
O10   O     O_R   0.505020 0.871000 0.955840 -0.490662
O11   O     O_R   0.129000 0.634020 0.955840 -0.480074
O12   O     O_R   0.898810 0.333640 0.575190 -0.505278
O13   O     O_R   0.365980 0.494980 0.955840 -0.498741
O14   O     O_R   0.543640 0.655270 0.102360 -0.483130
O15   O     O_R   0.344730 0.888370 0.102360 -0.428413
O16   O     O_R   0.111630 0.456360 0.102360 -0.473397
O17   O     O_R   0.500790 0.870920 0.095850 -0.494059
O18   O     O_R   0.129080 0.629870 0.095850 -0.426429
O19   O     O_R   0.370130 0.499210 0.095850 -0.540194
O20   O     O_2   0.883512 0.466735 0.108169 -0.408381
O21   O     O_2   0.745088 0.611865 0.118328 -0.442761
O22   O     O_2   0.173133 0.891787 0.176684 -0.479187
O23   O     O_R   0.666360 0.565170 0.575190 -0.510805
O24   O     O_3   0.333333 0.666667 0.026340 -0.305868
O25   O     O_R   0.480130 0.360720 0.570290 -0.496275
O26   O     O_R   0.639280 0.119410 0.570290 -0.496849
O27   O     O_R   0.880590 0.519870 0.570290 -0.497032
O28   O     O_R   0.439410 0.104260 0.424150 -0.524156
O29   O     O_R   0.895740 0.335150 0.424150 -0.524933

loop_
_geom_bond_atom_site_label_1
_geom_bond_atom_site_label_2
_ccdc_geom_bond_type
C43   H19   S    
C38   H16   S    
C11   C18   T    
C43   H18   S    
C4    O14   A    
Cr5   O11   S    
C39   H14   S    
Cr1   O3    S    
C30   C45   S    
C35   C36   S    
Cr1   O6    S    
C36   H5    S    
C12   O26   A    
Cr5   O15   S    
C25   C28   D    
C48   O13   A    
C42   H21   S    
C31   H28   S    
C12   O1    A    
C24   C45   D    
C36   C37   S    
C9    C16   T    
C29   C32   S    
Cr3   O6    S    
C38   C39   S    
C46   O8    A    
C10   C17   T    
C7    O5    A    
C4    O19   A    
C47   O11   A    
Cr2   O26   S    
C6    O4    A    
C23   O12   A    
C34   C35   S    
C41   C42   S    
Cr6   O9    S    
C1    O25   A    
C37   H2    S    
C11   C15   S    
C3    O16   A    
Cr2   O6    S    
C22   C44   D    
C5    C22   S    
C48   O7    A    
C10   C46   S    
Cr3   O27   S    
Cr6   O13   S    
Cr4   O10   S    
C2    C27   S    
C37   H4    S    
Cr2   O4    S    
C38   H15   S    
C28   C34   S    
C27   C30   D    
C14   C17   S    
Cr6   O16   S    
C39   H13   S    
Cr3   O2    S    
Cr4   O17   S    
C1    C19   S    
C42   H20   S    
C13   C19   T    
C18   C23   S    
C26   H12   S    
Cr1   O1    S    
Cr6   O19   S    
C3    C25   S    
C41   H24   S    
C21   C34   D    
C2    O17   A    
C27   H23   S    
C7    C21   S    
C24   H27   S    
C38   C44   S    
C14   C20   T    
C46   O10   A    
Cr5   O18   S    
C6    C24   S    
C12   C20   S    
Cr5   O8    S    
C47   O9    A    
C35   H7    S    
C40   H9    S    
C1    O23   A    
Cr1   O28   S    
C5    O2    A    
C3    O18   A    
C2    O15   A    
C8    C15   T    
C40   H11   S    
C29   C44   S    
C42   C43   S    
C9    C48   S    
C39   C40   S    
Cr1   O25   S    
C32   H29   S    
C43   H17   S    
C30   C33   S    
C6    O28   A    
C28   C31   S    
C33   O22   D    
C25   H1    S    
C36   H6    S    
C4    C26   S    
C23   O27   A    
C40   H10   S    
Cr6   O24   S    
C32   O21   D    
Cr2   O29   S    
C31   O20   D    
C7    O29   A    
C8    C47   S    
C22   H26   S    
Cr3   O5    S    
C41   H22   S    
Cr5   O24   S    
Cr2   O12   S    
C21   H25   S    
Cr4   O14   S    
C35   H8    S    
C33   H30   S    
C5    O3    A    
Cr4   O24   S    
C26   C29   D    
Cr3   O23   S    
C13   C16   S    
C41   C45   S    
Cr4   O7    S    
C37   H3    S    
