data_mof_unit_38190.cif
_audit_creation_date              2013-03-05T15:49:09-0500
_audit_creation_method            fapswitch 2.2
_symmetry_space_group_name_H-M    P1
_symmetry_Int_Tables_number       1
_space_group_crystal_system       triclinic
_cell_length_a                    22.446948
_cell_length_b                    13.005782
_cell_length_c                    26.989801
_cell_angle_alpha                 90.00928
_cell_angle_beta                  90.61771
_cell_angle_gamma                 90.001625
_cell_volume                      7878.94751343

loop_
_atom_site_label
_atom_site_type_symbol
_atom_site_description
_atom_site_fract_x
_atom_site_fract_y
_atom_site_fract_z
_atom_type_partial_charge
O1    O     O_R   0.769900 0.064540 0.196060 -0.521830
O2    O     O_R   0.230100 0.064540 0.803940 -0.521838
O3    O     O_R   0.269900 0.564540 0.196060 -0.521826
O4    O     O_R   0.730100 0.564540 0.803940 -0.521833
O5    O     O_R   0.750800 0.274080 0.199250 -0.505541
O6    O     O_R   0.249200 0.274080 0.800750 -0.505529
O7    O     O_R   0.250800 0.774080 0.199250 -0.505534
O8    O     O_R   0.749200 0.774080 0.800750 -0.505525
C1    C     C_R   0.720652 0.344838 0.178191 0.543382
C2    C     C_R   0.279346 0.344857 0.821805 0.543430
C3    C     C_R   0.220652 0.844838 0.178191 0.543383
C4    C     C_R   0.779345 0.844858 0.821805 0.543423
O9    O     O_R   0.669990 0.371670 0.194150 -0.515117
O10   O     O_R   0.330010 0.371670 0.805850 -0.515175
O11   O     O_R   0.169990 0.871670 0.194150 -0.515130
O12   O     O_R   0.830010 0.871670 0.805850 -0.515184
O13   O     O_R   0.574600 0.238480 0.197800 -0.501762
O14   O     O_R   0.425400 0.238480 0.802200 -0.501878
O15   O     O_R   0.074600 0.738480 0.197800 -0.501775
O16   O     O_R   0.925400 0.738480 0.802200 -0.501872
C5    C     C_R   0.553801 0.157180 0.177471 0.542334
C6    C     C_R   0.446226 0.157206 0.822512 0.542347
C7    C     C_R   0.053799 0.657181 0.177473 0.542332
C8    C     C_R   0.946224 0.657205 0.822513 0.542343
O17   O     O_R   0.566130 0.068680 0.194240 -0.524382
O18   O     O_R   0.433870 0.068680 0.805760 -0.524283
O19   O     O_R   0.066130 0.568680 0.194240 -0.524382
O20   O     O_R   0.933870 0.568680 0.805760 -0.524305
O21   O     O_R   0.680610 0.992490 0.199570 -0.500909
O22   O     O_R   0.319390 0.992490 0.800430 -0.500709
O23   O     O_R   0.180610 0.492490 0.199570 -0.500924
O24   O     O_R   0.819390 0.492490 0.800430 -0.500772
C9    C     C_R   0.731153 0.002049 0.179304 0.542582
C10   C     C_R   0.268844 0.002057 0.820695 0.542746
C11   C     C_R   0.231154 0.502048 0.179304 0.542572
C12   C     C_R   0.768845 0.502058 0.820696 0.542699
O25   O     O_R   0.770060 0.065440 0.307230 -0.524278
O26   O     O_R   0.229940 0.065440 0.692770 -0.524673
O27   O     O_R   0.270060 0.565440 0.307230 -0.524291
O28   O     O_R   0.729940 0.565440 0.692770 -0.524646
O29   O     O_R   0.750960 0.274920 0.302300 -0.497023
O30   O     O_R   0.249040 0.274920 0.697700 -0.497259
O31   O     O_R   0.250960 0.774920 0.302300 -0.497048
O32   O     O_R   0.749040 0.774920 0.697700 -0.497242
C13   C     C_R   0.721023 0.346578 0.321832 0.536813
C14   C     C_R   0.278972 0.346578 0.678172 0.537112
C15   C     C_R   0.221022 0.846572 0.321836 0.536832
C16   C     C_R   0.778972 0.846575 0.678171 0.537084
O33   O     O_R   0.670160 0.372580 0.305320 -0.497852
O34   O     O_R   0.329840 0.372580 0.694680 -0.497689
O35   O     O_R   0.170160 0.872580 0.305320 -0.497843
O36   O     O_R   0.829840 0.872580 0.694680 -0.497753
O37   O     O_R   0.574760 0.239320 0.300850 -0.507084
O38   O     O_R   0.425240 0.239320 0.699150 -0.506826
O39   O     O_R   0.074760 0.739320 0.300850 -0.507087
O40   O     O_R   0.925240 0.739320 0.699150 -0.506888
C17   C     C_R   0.554370 0.158796 0.321616 0.537225
C18   C     C_R   0.445654 0.158767 0.678394 0.537362
C19   C     C_R   0.054366 0.658796 0.321615 0.537261
C20   C     C_R   0.945657 0.658772 0.678395 0.537401
O41   O     O_R   0.566290 0.069580 0.305400 -0.479453
O42   O     O_R   0.433710 0.069580 0.694600 -0.480604
O43   O     O_R   0.066290 0.569580 0.305400 -0.479430
O44   O     O_R   0.933710 0.569580 0.694600 -0.480271
O45   O     O_R   0.680760 0.993330 0.302620 -0.438326
O46   O     O_R   0.319240 0.993330 0.697380 -0.438269
O47   O     O_R   0.180760 0.493330 0.302620 -0.438317
O48   O     O_R   0.819240 0.493330 0.697380 -0.438234
C21   C     C_R   0.732194 0.000522 0.322539 0.558594
C22   C     C_R   0.267783 0.000484 0.677475 0.559031
C23   C     C_R   0.232194 0.500525 0.322540 0.558566
C24   C     C_R   0.767790 0.500500 0.677469 0.558922
Cr1   Cr    Cr6+3 0.756570 0.170940 0.251190 1.037707
Cr2   Cr    Cr6+3 0.243430 0.170940 0.748810 1.037639
Cr3   Cr    Cr6+3 0.256570 0.670940 0.251190 1.037697
Cr4   Cr    Cr6+3 0.743430 0.670940 0.748810 1.037638
Cr5   Cr    Cr6+3 0.623740 0.299110 0.249580 1.041041
Cr6   Cr    Cr6+3 0.376260 0.299110 0.750420 1.041089
Cr7   Cr    Cr6+3 0.123740 0.799110 0.249580 1.041007
Cr8   Cr    Cr6+3 0.876260 0.799110 0.750420 1.041037
Cr9   Cr    Cr6+3 0.625990 0.036240 0.250480 1.093794
Cr10  Cr    Cr6+3 0.374010 0.036240 0.749520 1.093734
Cr11  Cr    Cr6+3 0.125990 0.536240 0.250480 1.093777
Cr12  Cr    Cr6+3 0.874010 0.536240 0.749520 1.093778
O49   O     O_3   0.668770 0.168760 0.250420 -0.263550
O50   O     O_3   0.331230 0.168760 0.749580 -0.263434
O51   O     O_3   0.168770 0.668760 0.250420 -0.263530
O52   O     O_3   0.831230 0.668760 0.749580 -0.263433
C25   C     C_R   0.516203 0.070027 0.102356 -0.131118
C26   C     C_R   0.484363 0.070187 0.897470 -0.131166
C27   C     C_R   0.016154 0.570039 0.102370 -0.131124
C28   C     C_R   0.984315 0.570175 0.897484 -0.131154
C29   C     C_R   0.507023 0.070069 0.051423 0.011808
C30   C     C_R   0.493629 0.070164 0.948396 0.011851
C31   C     C_R   0.006967 0.570076 0.051438 0.011813
C32   C     C_R   0.993573 0.570157 0.948410 0.011847
C33   C     C_R   0.497453 0.976945 0.974208 -0.139363
C34   C     C_R   0.503609 0.976894 0.025521 -0.139475
C35   C     C_R   0.997361 0.476941 0.974229 -0.139371
C36   C     C_R   0.003516 0.476898 0.025542 -0.139465
H1    H     H_    0.480637 0.996994 0.878431 0.131239
H2    H     H_    0.520183 0.996802 0.121321 0.131186
H3    H     H_    0.980566 0.496979 0.878450 0.131235
H4    H     H_    0.020112 0.496817 0.121340 0.131185
H5    H     H_    0.494877 0.904122 0.954774 0.101347
H6    H     H_    0.506483 0.904036 0.044887 0.101187
H7    H     H_    0.994758 0.404115 0.954800 0.101330
H8    H     H_    0.006364 0.404043 0.044913 0.101198
C37   C     C_R   0.474037 0.162688 0.871939 -0.003727
C38   C     C_R   0.526108 0.162559 0.127995 -0.003661
C39   C     C_R   0.974025 0.662679 0.871945 -0.003713
C40   C     C_R   0.026096 0.662569 0.128001 -0.003665
C41   C     C_R   0.520341 0.256861 0.102901 -0.133110
C42   C     C_R   0.479505 0.256970 0.897113 -0.133119
C43   C     C_R   0.020354 0.756869 0.102901 -0.133109
C44   C     C_R   0.979519 0.756963 0.897113 -0.133115
C45   C     C_R   0.508791 0.258285 0.051757 0.013936
C46   C     C_R   0.491108 0.258357 0.948246 0.013876
C47   C     C_R   0.008800 0.758291 0.051758 0.013931
C48   C     C_R   0.991118 0.758352 0.948248 0.013883
C49   C     C_R   0.503859 0.164374 0.025805 0.064514
C50   C     C_R   0.496434 0.164418 0.974105 0.064503
C51   C     C_R   0.003834 0.664378 0.025812 0.064514
C52   C     C_R   0.996409 0.664415 0.974113 0.064504
C53   C     C_R   0.504454 0.351462 0.025720 -0.137750
C54   C     C_R   0.495080 0.351494 0.974370 -0.137759
C55   C     C_R   0.004495 0.851465 0.025715 -0.137750
C56   C     C_R   0.995122 0.851492 0.974365 -0.137758
H9    H     H_    0.471652 0.328616 0.877586 0.126783
H10   H     H_    0.527881 0.328523 0.122508 0.126638
H11   H     H_    0.971692 0.828610 0.877581 0.126767
H12   H     H_    0.027922 0.828530 0.122502 0.126650
H13   H     H_    0.491011 0.424269 0.955095 0.103218
H14   H     H_    0.508216 0.424217 0.045065 0.103213
H15   H     H_    0.991080 0.924266 0.955085 0.103213
H16   H     H_    0.008285 0.924222 0.045055 0.103212
C57   C     C_R   0.739063 0.957534 0.129846 0.025645
C58   C     C_R   0.260916 0.957525 0.870144 0.025644
C59   C     C_R   0.239064 0.457530 0.129847 0.025640
C60   C     C_R   0.760917 0.457529 0.870145 0.025637
C61   C     C_R   0.794111 0.964667 0.106001 -0.128289
C62   C     C_R   0.205872 0.964726 0.893995 -0.128238
C63   C     C_R   0.294113 0.464664 0.106002 -0.128289
C64   C     C_R   0.705874 0.464730 0.893996 -0.128240
C65   C     C_R   0.797797 0.945699 0.055315 -0.119692
C66   C     C_R   0.202177 0.945720 0.944674 -0.119665
C67   C     C_R   0.297800 0.445693 0.055317 -0.119692
C68   C     C_R   0.702180 0.445727 0.944677 -0.119665
C69   C     C_R   0.746333 0.920777 0.027692 0.036024
C70   C     C_R   0.253626 0.920683 0.972289 0.035992
C71   C     C_R   0.246337 0.420767 0.027694 0.036024
C72   C     C_R   0.753629 0.420693 0.972290 0.035995
C73   C     C_R   0.692063 0.907816 0.052174 -0.121269
C74   C     C_R   0.307885 0.907649 0.947798 -0.121263
C75   C     C_R   0.192068 0.407803 0.052176 -0.121269
C76   C     C_R   0.807889 0.407660 0.947799 -0.121261
C77   C     C_R   0.688584 0.924989 0.102850 -0.123471
C78   C     C_R   0.311375 0.924870 0.897127 -0.123423
C79   C     C_R   0.188587 0.424979 0.102852 -0.123476
C80   C     C_R   0.811377 0.424877 0.897128 -0.123435
C81   C     C_R   0.715755 0.833605 0.949135 -0.118395
C82   C     C_R   0.284159 0.833429 0.050826 -0.118374
C83   C     C_R   0.215760 0.333594 0.949137 -0.118395
C84   C     C_R   0.784164 0.333438 0.050828 -0.118376
C85   C     C_R   0.721515 0.818798 0.898421 -0.124202
C86   C     C_R   0.278412 0.818639 0.101542 -0.124171
C87   C     C_R   0.221519 0.318790 0.898422 -0.124201
C88   C     C_R   0.778415 0.318645 0.101544 -0.124175
C89   C     C_R   0.791843 0.960040 0.894816 -0.122138
C90   C     C_R   0.208176 0.960005 0.105187 -0.122113
C91   C     C_R   0.291844 0.460035 0.894818 -0.122133
C92   C     C_R   0.708178 0.460009 0.105188 -0.122105
C93   C     C_R   0.785359 0.975877 0.945507 -0.116097
C94   C     C_R   0.214646 0.975823 0.054495 -0.116070
C95   C     C_R   0.285362 0.475870 0.945509 -0.116100
C96   C     C_R   0.714649 0.475830 0.054497 -0.116067
C97   C     C_R   0.748932 0.910338 0.973386 0.038017
C98   C     C_R   0.251024 0.910223 0.026595 0.037980
C99   C     C_R   0.248937 0.410328 0.973388 0.038016
C100  C     C_R   0.751028 0.410233 0.026597 0.037981
C101  C     C_R   0.761410 0.879233 0.871209 0.024907
C102  C     C_R   0.238575 0.879157 0.128777 0.024894
C103  C     C_R   0.261411 0.379229 0.871210 0.024911
C104  C     C_R   0.738576 0.379161 0.128778 0.024894
H17   H     H_    0.833672 0.989365 0.126017 0.126500
H18   H     H_    0.166325 0.989506 0.873989 0.126541
H19   H     H_    0.333674 0.489366 0.126019 0.126500
H20   H     H_    0.666326 0.489507 0.873991 0.126541
H21   H     H_    0.687580 0.781569 0.969658 0.100220
H22   H     H_    0.312293 0.781341 0.030287 0.100265
H23   H     H_    0.187587 0.281555 0.969660 0.100221
H24   H     H_    0.812298 0.281353 0.030289 0.100260
H25   H     H_    0.697903 0.755138 0.881338 0.134598
H26   H     H_    0.301991 0.754939 0.118610 0.134635
H27   H     H_    0.197907 0.255130 0.881339 0.134599
H28   H     H_    0.801995 0.254945 0.118611 0.134632
H29   H     H_    0.840605 0.953085 0.037532 0.107023
H30   H     H_    0.159374 0.953166 0.962462 0.107058
H31   H     H_    0.340608 0.453081 0.037534 0.107018
H32   H     H_    0.659378 0.453173 0.962465 0.107062
H33   H     H_    0.810007 0.037737 0.963089 0.101521
H34   H     H_    0.190031 0.037726 0.036929 0.101555
H35   H     H_    0.310009 0.537730 0.963091 0.101523
H36   H     H_    0.690034 0.537733 0.036931 0.101559
H37   H     H_    0.822703 0.007880 0.874588 0.130030
H38   H     H_    0.177356 0.007904 0.125432 0.130015
H39   H     H_    0.322703 0.507878 0.874589 0.130048
H40   H     H_    0.677357 0.507907 0.125433 0.130026
H41   H     H_    0.651585 0.889376 0.031865 0.106223
H42   H     H_    0.348353 0.889118 0.968099 0.106255
H43   H     H_    0.151589 0.389359 0.031867 0.106227
H44   H     H_    0.848357 0.389131 0.968100 0.106250
H45   H     H_    0.645314 0.919781 0.120065 0.132253
H46   H     H_    0.354641 0.919604 0.879909 0.132432
H47   H     H_    0.145317 0.419769 0.120066 0.132264
H48   H     H_    0.854643 0.419612 0.879910 0.132410
C105  C     C_R   0.527683 0.168253 0.370891 0.005918
C106  C     C_R   0.472527 0.168069 0.629176 0.005140
C107  C     C_R   0.027659 0.668251 0.370885 0.005820
C108  C     C_R   0.972530 0.668102 0.629177 0.005203
C109  C     C_R   0.537254 0.258284 0.398541 -0.097672
C110  C     C_R   0.463825 0.258565 0.601711 -0.097648
C111  C     C_R   0.037147 0.758336 0.398513 -0.097724
C112  C     C_R   0.963752 0.758561 0.601697 -0.097635
C113  C     C_R   0.525905 0.259693 0.449065 -0.061901
C114  C     C_R   0.475292 0.260062 0.551199 -0.061095
C115  C     C_R   0.025794 0.759763 0.449038 -0.062001
C116  C     C_R   0.975220 0.760061 0.551186 -0.061212
C117  C     C_R   0.504134 0.171814 0.472911 0.017403
C118  C     C_R   0.496257 0.171757 0.527187 0.016298
C119  C     C_R   0.004116 0.671839 0.472907 0.017224
C120  C     C_R   0.996257 0.671795 0.527186 0.016306
C121  C     C_R   0.490574 0.084033 0.444602 -0.085702
C122  C     C_R   0.509004 0.083437 0.555330 -0.086557
C123  C     C_R   0.990624 0.584004 0.444617 -0.085606
C124  C     C_R   0.009086 0.583527 0.555344 -0.086333
C125  C     C_R   0.502365 0.082212 0.393979 -0.084309
C126  C     C_R   0.497148 0.081566 0.605934 -0.085479
C127  C     C_R   0.002405 0.582175 0.393992 -0.084242
C128  C     C_R   0.997236 0.581658 0.605950 -0.085161
H49   H     H_    0.557213 0.325661 0.381953 0.165236
H50   H     H_    0.444464 0.326337 0.618426 0.165143
H51   H     H_    0.057045 0.825750 0.381909 0.165246
H52   H     H_    0.944330 0.826293 0.618402 0.165156
H53   H     H_    0.526999 0.015159 0.538076 0.177138
H54   H     H_    0.471975 0.016123 0.461736 0.175523
H55   H     H_    0.027141 0.515288 0.538099 0.177227
H56   H     H_    0.972088 0.516059 0.461766 0.175764
H57   H     H_    0.504762 0.011063 0.626381 0.181910
H58   H     H_    0.494106 0.012092 0.373381 0.180896
H59   H     H_    0.004926 0.511198 0.626413 0.181940
H60   H     H_    0.994192 0.512022 0.373408 0.181088
H61   H     H_    0.536532 0.328316 0.469842 0.198152
H62   H     H_    0.465368 0.329150 0.530554 0.199017
H63   H     H_    0.036353 0.828439 0.469799 0.198237
H64   H     H_    0.965238 0.829110 0.530531 0.199012
C129  C     C_R   0.743726 0.948845 0.370074 -0.084166
C130  C     C_R   0.256127 0.948688 0.629978 -0.083920
C131  C     C_R   0.243725 0.448869 0.370080 -0.084179
C132  C     C_R   0.756163 0.448762 0.629955 -0.083993
C133  C     C_R   0.698714 0.893050 0.394448 0.183264
C134  C     C_R   0.300871 0.892020 0.605730 0.183447
C135  C     C_R   0.198693 0.393179 0.394481 0.183253
C136  C     C_R   0.800962 0.392295 0.605670 0.183415
C137  C     C_R   0.703406 0.877376 0.445757 0.145173
C138  C     C_R   0.296115 0.875961 0.554443 0.145277
C139  C     C_R   0.203396 0.377564 0.445793 0.145185
C140  C     C_R   0.796207 0.376299 0.554377 0.145183
C141  C     C_R   0.754581 0.912378 0.471715 -0.068831
C142  C     C_R   0.245222 0.911792 0.528370 -0.068868
C143  C     C_R   0.254613 0.412467 0.471724 -0.068854
C144  C     C_R   0.745252 0.411985 0.528339 -0.068902
C145  C     C_R   0.803081 0.954417 0.445732 0.211868
C146  C     C_R   0.196927 0.954809 0.554244 0.211400
C147  C     C_R   0.303128 0.454385 0.445715 0.212043
C148  C     C_R   0.696939 0.454871 0.554238 0.211419
C149  C     C_R   0.796740 0.972546 0.395319 -0.149658
C150  C     C_R   0.203267 0.973015 0.604648 -0.150132
C151  C     C_R   0.296766 0.472495 0.395301 -0.149629
C152  C     C_R   0.703277 0.473000 0.604646 -0.150099
C153  C     C_R   0.760868 0.798465 0.543865 -0.037628
C154  C     C_R   0.238277 0.798023 0.456173 -0.038485
C155  C     C_R   0.260875 0.298528 0.543863 -0.037721
C156  C     C_R   0.738225 0.298143 0.456180 -0.038524
C157  C     C_R   0.764095 0.783304 0.594441 -0.086541
C158  C     C_R   0.235033 0.782971 0.405584 -0.086955
C159  C     C_R   0.264072 0.283345 0.594439 -0.086589
C160  C     C_R   0.734983 0.283036 0.405594 -0.086937
C161  C     C_R   0.762135 0.968175 0.608212 -0.096421
C162  C     C_R   0.238448 0.967785 0.391880 -0.096340
C163  C     C_R   0.262187 0.468214 0.608222 -0.096269
C164  C     C_R   0.738480 0.467835 0.391844 -0.096211
C165  C     C_R   0.756541 0.983360 0.557211 -0.014228
C166  C     C_R   0.244027 0.982813 0.442896 -0.014101
C167  C     C_R   0.256618 0.483424 0.557221 -0.013996
C168  C     C_R   0.744049 0.482914 0.442856 -0.013731
C169  C     C_R   0.757771 0.898303 0.525133 0.115738
C170  C     C_R   0.242094 0.897771 0.474943 0.115711
C171  C     C_R   0.257826 0.398376 0.525139 0.115685
C172  C     C_R   0.742078 0.397909 0.474922 0.115901
C173  C     C_R   0.765769 0.867888 0.626668 0.034104
C174  C     C_R   0.234095 0.867604 0.373386 0.034580
C175  C     C_R   0.265769 0.367916 0.626673 0.034038
C176  C     C_R   0.734095 0.367637 0.373377 0.034601
H65   H     H_    0.761385 0.732622 0.519242 0.124044
H66   H     H_    0.237206 0.732188 0.480773 0.123350
H67   H     H_    0.261367 0.232692 0.519235 0.124061
H68   H     H_    0.737134 0.232339 0.480798 0.123216
H69   H     H_    0.768100 0.705394 0.608374 0.123630
H70   H     H_    0.230490 0.705170 0.391604 0.122985
H71   H     H_    0.268040 0.205425 0.608367 0.123651
H72   H     H_    0.730408 0.205228 0.391631 0.122922
H73   H     H_    0.753599 0.060781 0.542573 0.136754
H74   H     H_    0.247511 0.060154 0.457566 0.135357
H75   H     H_    0.253705 0.560852 0.542589 0.137021
H76   H     H_    0.747569 0.560267 0.457506 0.135355
H77   H     H_    0.764264 0.033662 0.632961 0.136694
H78   H     H_    0.236901 0.033323 0.367149 0.135552
H79   H     H_    0.264338 0.533693 0.632976 0.136880
H80   H     H_    0.736968 0.533346 0.367093 0.135530
H81   H     H_    0.832749 0.010725 0.376212 0.199747
H82   H     H_    0.167414 0.011841 0.623664 0.199942
H83   H     H_    0.332793 0.510568 0.376169 0.199693
H84   H     H_    0.667398 0.511703 0.623683 0.199935
N1    N     N_R   0.647233 0.856113 0.367901 0.127938
O53   O     O_R   0.653599 0.794424 0.330369 -0.320758
O54   O     O_R   0.593961 0.881624 0.381911 -0.281094
N2    N     N_R   0.352117 0.854457 0.632384 0.127383
O55   O     O_R   0.345357 0.793679 0.670199 -0.321550
O56   O     O_R   0.405556 0.878400 0.618178 -0.280396
N3    N     N_R   0.147189 0.356273 0.367955 0.127956
O57   O     O_R   0.153519 0.294512 0.330445 -0.320732
O58   O     O_R   0.093931 0.381858 0.381969 -0.281232
N4    N     N_R   0.852286 0.354950 0.632288 0.127622
O59   O     O_R   0.845659 0.293849 0.670000 -0.321357
O60   O     O_R   0.905667 0.379494 0.618170 -0.280869
N5    N     N_R   0.656111 0.825952 0.471359 0.108867
O61   O     O_R   0.631247 0.868681 0.509519 -0.316158
O62   O     O_R   0.635871 0.738377 0.455064 -0.227825
N6    N     N_R   0.343033 0.823227 0.528990 0.108927
O63   O     O_R   0.368475 0.865252 0.490920 -0.314086
O64   O     O_R   0.362267 0.734990 0.545275 -0.231494
N7    N     N_R   0.156072 0.326288 0.471425 0.108868
O65   O     O_R   0.131259 0.369134 0.509580 -0.316471
O66   O     O_R   0.135749 0.238746 0.455163 -0.227640
N8    N     N_R   0.843192 0.323801 0.528883 0.108895
O67   O     O_R   0.868364 0.365770 0.490675 -0.314551
O68   O     O_R   0.862819 0.235928 0.545302 -0.230527
S1    S     S_3+6 0.873007 0.987002 0.472789 0.017636
O69   O     O_2   0.920698 0.929359 0.445754 -0.297937
O70   O     O_2   0.882915 0.100154 0.465251 -0.195244
O71   O     O_3   0.878622 0.959459 0.533506 -0.546310
H85   H     H_    0.912726 0.000829 0.545860 0.393807
S2    S     S_3+6 0.127251 0.988563 0.527086 0.017021
O72   O     O_2   0.079215 0.931405 0.553927 -0.298995
O73   O     O_2   0.117863 0.101791 0.534818 -0.195863
O74   O     O_3   0.121673 0.961567 0.466308 -0.545979
H86   H     H_    0.087090 0.002015 0.454179 0.394108
S3    S     S_3+6 0.373125 0.486702 0.472722 0.017762
O75   O     O_2   0.420671 0.428472 0.445799 -0.298374
O76   O     O_2   0.383319 0.599717 0.464970 -0.195173
O77   O     O_3   0.378676 0.459634 0.533492 -0.545848
H87   H     H_    0.412901 0.500819 0.545758 0.393854
S4    S     S_3+6 0.627247 0.488602 0.527100 0.016991
O78   O     O_2   0.579243 0.431266 0.553894 -0.299430
O79   O     O_2   0.617794 0.601788 0.534921 -0.195694
O80   O     O_3   0.621684 0.461822 0.466298 -0.545824
H88   H     H_    0.586997 0.502083 0.454228 0.394168

loop_
_geom_bond_atom_site_label_1
_geom_bond_atom_site_label_2
_geom_bond_distance
_ccdc_geom_bond_type
O4    C12   1.270013 A    
O7    Cr3   1.943724 S    
O74   H86   0.990516 S    
O25   C21   1.270311 A    
C62   C66   1.393378 A    
C132  C136  1.412195 A    
Cr7   O51   1.973796 S    
C5    C38   1.468543 S    
C110  H50   1.083256 S    
C135  C139  1.402611 A    
C7    C40   1.468538 S    
C129  C133  1.412316 A    
C91   C103  1.402675 A    
C29   C49   1.409501 A    
C166  C170  1.405149 A    
O39   C19   1.275200 A    
C89   H37   1.083192 S    
C32   C35   1.400571 A    
C109  C113  1.390056 A    
C162  H78   1.083037 S    
C93   H33   1.082941 S    
C13   C176  1.444846 S    
C107  C127  1.404054 A    
C69   C73   1.402280 A    
O44   Cr12  2.055237 S    
C11   C59   1.467448 S    
C66   C70   1.405972 A    
C3    O11   1.269280 A    
C72   C76   1.402297 A    
C9    C57   1.467450 S    
C73   C77   1.388843 A    
C71   C75   1.402280 A    
C61   C65   1.393354 A    
C142  C170  1.454384 S    
C33   H5    1.083831 S    
O2    C10   1.270012 A    
C59   C79   1.405693 A    
C74   H42   1.082948 S    
O17   Cr9   2.060040 S    
C112  C116  1.390257 A    
N5    O61   1.301293 A    
O9    Cr5   2.059224 S    
O31   Cr3   1.936677 S    
O16   Cr8   1.938755 S    
C84   C88   1.389675 A    
N6    O63   1.301321 A    
C56   H15   1.083505 S    
C68   H32   1.083013 S    
C135  N3    1.435809 S    
C30   C33   1.400569 A    
O13   C5    1.277223 A    
O28   Cr4   2.061914 S    
O12   Cr8   2.059033 S    
C72   C100  1.473817 S    
O15   C7    1.277210 A    
C86   H26   1.083319 S    
C117  C118  1.477416 S    
O46   Cr10  1.940534 S    
C71   C99   1.473738 S    
C4    C101  1.466746 S    
C76   C80   1.388893 A    
O48   C24   1.271981 A    
C6    C37   1.468495 S    
O71   H85   0.990534 S    
C30   C50   1.409584 A    
N2    O56   1.301074 A    
C106  C126  1.404251 A    
C81   C97   1.402931 A    
C82   H22   1.082806 S    
C90   C94   1.392726 A    
C87   H27   1.083320 S    
Cr12  O52   1.973021 S    
C95   C99   1.405259 A    
C28   C39   1.404540 A    
C17   O41   1.269592 A    
C47   C51   1.411628 A    
C19   O43   1.269603 A    
C34   H6    1.083833 S    
C20   O44   1.269451 A    
C20   C108  1.469859 S    
Cr8   O52   1.973742 S    
C1    C104  1.466804 S    
O46   C22   1.272027 A    
C157  H69   1.084264 S    
C118  C122  1.404953 A    
C153  H65   1.084014 S    
C152  H84   1.083912 S    
C95   H35   1.082940 S    
C155  C171  1.394949 A    
C16   O36   1.267152 A    
C128  H59   1.082908 S    
C113  H61   1.079281 S    
C22   C130  1.469033 S    
S3    O75   1.502388 D    
C74   C78   1.388893 A    
O27   C23   1.270298 A    
C108  C128  1.404219 A    
O31   C15   1.267106 A    
C81   C85   1.389630 A    
O32   C16   1.267073 A    
C131  C135  1.412282 A    
C115  C119  1.402282 A    
O47   Cr11  1.940687 S    
S1    O69   1.502392 D    
O21   C9    1.270917 A    
C131  C151  1.399204 A    
C86   C102  1.404817 A    
C33   C34   1.390310 A    
C51   C52   1.403484 A    
C109  H49   1.083272 S    
O24   C12   1.270954 A    
C122  H53   1.082819 S    
C122  C126  1.394509 A    
C111  C115  1.390085 A    
O77   H87   0.990544 S    
C23   C131  1.468952 S    
O8    Cr4   1.943405 S    
S4    O78   1.502352 D    
C46   C50   1.411574 A    
N1    O54   1.301037 A    
C14   C175  1.445032 S    
C1    O9    1.269281 A    
C59   C63   1.402447 A    
C150  H82   1.083941 S    
C140  C144  1.414333 A    
O27   Cr3   2.062252 S    
O3    Cr3   2.056069 S    
Cr5   O49   1.973796 S    
C116  H64   1.079328 S    
C90   C102  1.402681 A    
C136  N4    1.435815 S    
C130  C134  1.412199 A    
C117  C121  1.405170 A    
C134  N2    1.435866 S    
C43   H12   1.084092 S    
C28   C32   1.387900 A    
C36   H8    1.083834 S    
C79   H47   1.083317 S    
C41   H10   1.084091 S    
O22   C10   1.270955 A    
C75   C79   1.388846 A    
C4    O12   1.269245 A    
C164  C168  1.394950 A    
C16   C173  1.445045 S    
C2    O10   1.269244 A    
C111  H51   1.083268 S    
N4    O59   1.301222 A    
C114  C118  1.402436 A    
C25   C38   1.404632 A    
C10   C58   1.467529 S    
C44   C48   1.401800 A    
C157  C173  1.402548 A    
C27   C40   1.404618 A    
C66   H30   1.083014 S    
C67   C71   1.405971 A    
O5    C1    1.272714 A    
N3    O58   1.301030 A    
C58   C78   1.405697 A    
N8    O68   1.300989 A    
O3    C11   1.269994 A    
O8    C4    1.272662 A    
Cr1   O49   1.970928 S    
C37   C42   1.406490 A    
C41   C45   1.401867 A    
Cr3   O51   1.970928 S    
S1    O71   1.680900 S    
C43   C47   1.401857 A    
N7    O66   1.300976 A    
C83   C99   1.402929 A    
C125  H58   1.082924 S    
C91   H39   1.083190 S    
C105  C125  1.404042 A    
C123  H56   1.082826 S    
C21   C129  1.468968 S    
O26   Cr2   2.061914 S    
C31   C51   1.409514 A    
C94   C98   1.405273 A    
O29   C13   1.267102 A    
O28   C24   1.270129 A    
C127  H60   1.082920 S    
O14   C6    1.277141 A    
C68   C72   1.405972 A    
N2    O55   1.301213 A    
C24   C132  1.468971 S    
C78   H46   1.083319 S    
O40   Cr8   1.939275 S    
S4    O80   1.680842 S    
C57   C77   1.405695 A    
C145  C149  1.386765 A    
C148  C152  1.386551 A    
C164  H80   1.083054 S    
C60   C80   1.405698 A    
C156  H68   1.083998 S    
C138  N6    1.437696 S    
O33   Cr5   2.056140 S    
S3    O77   1.680898 S    
C25   C29   1.387833 A    
O35   Cr7   2.056140 S    
C82   C98   1.402944 A    
O29   Cr1   1.936677 S    
C96   C100  1.405271 A    
C145  S1    1.775326 S    
S2    O72   1.502338 D    
C89   C93   1.392697 A    
C119  C123  1.405155 A    
C146  S2    1.775274 S    
C26   C37   1.404533 A    
C84   H24   1.082804 S    
C45   C53   1.403809 A    
C165  H73   1.083462 S    
C92   C96   1.392726 A    
C137  N5    1.437963 S    
C148  S4    1.775285 S    
C47   C55   1.403813 A    
C53   H14   1.083502 S    
C18   O42   1.269394 A    
Cr11  O51   1.972973 S    
O26   C22   1.270114 A    
C168  H76   1.083462 S    
O20   Cr12  2.059925 S    
C161  C173  1.398338 A    
C96   H36   1.082941 S    
C67   H31   1.083015 S    
C163  C175  1.398356 A    
C129  C149  1.399198 A    
C158  H70   1.084286 S    
C140  N8    1.437877 S    
N6    O64   1.301032 A    
C90   H38   1.083192 S    
C154  H66   1.084011 S    
O38   C18   1.275445 A    
C80   H48   1.083320 S    
C94   H34   1.082939 S    
O30   C14   1.267086 A    
C151  H83   1.083917 S    
C137  C141  1.414271 A    
C5    O17   1.266388 A    
C82   C86   1.389674 A    
C139  C143  1.414265 A    
O41   Cr9   2.055152 S    
C130  C150  1.399284 A    
C26   C30   1.387906 A    
C39   C44   1.406485 A    
C144  C172  1.454257 S    
C84   C100  1.402944 A    
O42   Cr10  2.055237 S    
O18   Cr10  2.059925 S    
C162  C166  1.394984 A    
C105  C109  1.403702 A    
C2    C103  1.466746 S    
C3    C102  1.466803 S    
O34   Cr6   2.056397 S    
N5    O62   1.300999 A    
O6    Cr2   1.943405 S    
C153  C157  1.380377 A    
O24   Cr12  1.936883 S    
O30   Cr2   1.936982 S    
C155  C159  1.380369 A    
O48   Cr12  1.940534 S    
C8    O20   1.266503 A    
C156  C160  1.380482 A    
C58   C62   1.402469 A    
C153  C169  1.394951 A    
O37   C17   1.275180 A    
C31   C36   1.400591 A    
C15   O35   1.267162 A    
Cr10  O50   1.973021 S    
C156  C172  1.394915 A    
C113  C117  1.402254 A    
O40   C20   1.275407 A    
O43   Cr11  2.055152 S    
O7    C3    1.272716 A    
N3    O57   1.301219 A    
O21   Cr9   1.936776 S    
O39   Cr7   1.939432 S    
O45   Cr9   1.940687 S    
C13   O33   1.267131 A    
C144  C148  1.411403 A    
O13   Cr5   1.938543 S    
C55   H16   1.083504 S    
O15   Cr7   1.938543 S    
C89   C101  1.402674 A    
C49   C50   1.403489 A    
C142  C146  1.411425 A    
C53   C54   1.399571 A    
C42   H9    1.084092 S    
O23   C11   1.270919 A    
C15   C174  1.444921 S    
C55   C56   1.399568 A    
C116  C120  1.402407 A    
C57   C61   1.402447 A    
C123  C127  1.394695 A    
C158  C174  1.402536 A    
C60   C64   1.402465 A    
O6    C2    1.272662 A    
C167  C171  1.405063 A    
C48   C56   1.403825 A    
C35   H7    1.083832 S    
C141  C145  1.411563 A    
O1    Cr1   2.056069 S    
O19   Cr11  2.060040 S    
C143  C171  1.454320 S    
C73   H41   1.082950 S    
C17   C105  1.469640 S    
O45   C21   1.271743 A    
S4    O79   1.502487 D    
O47   C23   1.271755 A    
C165  C169  1.405091 A    
N1    O53   1.301223 A    
C161  C165  1.394970 A    
C107  C111  1.403703 A    
C168  C172  1.405109 A    
C161  H77   1.083058 S    
C6    O18   1.266516 A    
C163  H79   1.083064 S    
O36   Cr8   2.056397 S    
C65   C69   1.405972 A    
O38   Cr6   1.939275 S    
N7    O65   1.301317 A    
O22   Cr10  1.936883 S    
C25   H2    1.084489 S    
C76   H44   1.082949 S    
C18   C106  1.469828 S    
C163  C167  1.394954 A    
O80   H88   0.990530 S    
C120  C124  1.404979 A    
C27   H4    1.084490 S    
C64   C68   1.393380 A    
C141  C169  1.454344 S    
O1    C9    1.269996 A    
C63   C67   1.393355 A    
C143  C147  1.411551 A    
C132  C152  1.399224 A    
N4    O60   1.301058 A    
C121  H54   1.082826 S    
C110  C114  1.390260 A    
O23   Cr11  1.936776 S    
O32   Cr4   1.936982 S    
C45   C49   1.411637 A    
C133  N1    1.435804 S    
C28   H3    1.084495 S    
C166  H74   1.083464 S    
C87   C103  1.404806 A    
O16   C8    1.277153 A    
C54   H13   1.083503 S    
C139  N7    1.437943 S    
C88   C104  1.404816 A    
C147  C151  1.386790 A    
C162  C174  1.398239 A    
C7    O19   1.266402 A    
Cr4   O52   1.970932 S    
O2    Cr2   2.056384 S    
O14   Cr6   1.938755 S    
C70   C98   1.473817 S    
Cr6   O50   1.973742 S    
S1    O70   1.502534 D    
C159  C175  1.402546 A    
O5    Cr1   1.943724 S    
C160  C176  1.402533 A    
C124  H55   1.082817 S    
C8    C39   1.468503 S    
C147  S3    1.775359 S    
C155  H67   1.084014 S    
C106  C110  1.403612 A    
C62   H18   1.083144 S    
O11   Cr7   2.059224 S    
C32   C52   1.409575 A    
C92   H40   1.083192 S    
C81   H21   1.082804 S    
C138  C142  1.414288 A    
C112  H52   1.083257 S    
C115  H63   1.079292 S    
C91   C95   1.392698 A    
C124  C128  1.394555 A    
C83   C87   1.389631 A    
C26   H1    1.084497 S    
C65   H29   1.083013 S    
C92   C104  1.402680 A    
C35   C36   1.390307 A    
C93   C97   1.405257 A    
C136  C140  1.402838 A    
C167  H75   1.083460 S    
C69   C97   1.473737 S    
S3    O76   1.502573 D    
Cr2   O50   1.970932 S    
C133  C137  1.402612 A    
C12   C60   1.467531 S    
C38   C41   1.406441 A    
C42   C46   1.401793 A    
C154  C158  1.380466 A    
S2    O73   1.502473 D    
C126  H57   1.082917 S    
C88   H28   1.083320 S    
O37   Cr5   1.939432 S    
C61   H17   1.083145 S    
C108  C112  1.403633 A    
C154  C170  1.394922 A    
C64   H20   1.083145 S    
O25   Cr1   2.062252 S    
C149  H81   1.083911 S    
C146  C150  1.386599 A    
C63   H19   1.083144 S    
C85   H25   1.083320 S    
C134  C138  1.402802 A    
C83   H23   1.082805 S    
S2    O74   1.680830 S    
C14   O34   1.267130 A    
C77   H45   1.083317 S    
C121  C125  1.394698 A    
C85   C101  1.404807 A    
C75   H43   1.082950 S    
C19   C107  1.469696 S    
N8    O67   1.301302 A    
C44   H11   1.084095 S    
C164  C176  1.398225 A    
O10   Cr6   2.059033 S    
Cr9   O49   1.972973 S    
O4    Cr4   2.056384 S    
C114  H62   1.079333 S    
C27   C31   1.387838 A    
C70   C74   1.402297 A    
C119  C120  1.477446 S    
C46   C54   1.403828 A    
C159  H71   1.084265 S    
C29   C34   1.400594 A    
C160  H72   1.084286 S    
C40   C43   1.406447 A    
C48   C52   1.411581 A    
