data_mof_unit_35230.cif
_audit_creation_date              2013-03-05T16:49:58-0500
_audit_creation_method            fapswitch 2.2
_symmetry_space_group_name_H-M    P1
_symmetry_Int_Tables_number       1
_space_group_crystal_system       triclinic
_cell_length_a                    27.796061
_cell_length_b                    10.891358
_cell_length_c                    26.490406
_cell_angle_alpha                 91.383599
_cell_angle_beta                  90.442245
_cell_angle_gamma                 90.059912
_cell_volume                      8017.03901153

loop_
_atom_site_label
_atom_site_type_symbol
_atom_site_description
_atom_site_fract_x
_atom_site_fract_y
_atom_site_fract_z
_atom_type_partial_charge
O1    O     O_R   0.500000 0.319660 0.542350 -0.584899
O2    O     O_R   0.500000 0.680340 0.457650 -0.592284
O3    O     O_R   0.500000 0.319630 0.457650 -0.568576
O4    O     O_R   0.500000 0.680370 0.542350 -0.567914
C1    C     C_R   0.500725 0.261877 0.499311 0.842699
C2    C     C_R   0.500685 0.738106 0.500690 0.814078
O5    O     O_R   0.430260 0.500030 0.542340 -0.589920
O6    O     O_R   0.569740 0.499970 0.457660 -0.594822
O7    O     O_R   0.430270 0.500010 0.457650 -0.572934
O8    O     O_R   0.569730 0.499990 0.542350 -0.570761
C3    C     C_R   0.407485 0.497339 0.499802 0.871887
C4    C     C_R   0.592857 0.502797 0.500124 0.866982
Cu1   Cu    Cu3+1 0.500000 0.500020 0.550150 0.985833
Cu2   Cu    Cu3+1 0.500000 0.499980 0.449850 0.975855
O9    O     O_2   0.460237 0.688780 0.787945 -0.550997
O10   O     O_2   0.570259 0.378764 0.215472 -0.535113
C5    C     C_R   0.431565 0.629463 0.056257 -0.155330
C6    C     C_R   0.545391 0.308468 0.943290 -0.152625
H1    H     H_    0.426665 0.554481 0.630512 0.153924
H2    H     H_    0.565433 0.600150 0.371931 0.141712
C7    C     C_R   0.177630 0.394398 0.517717 0.591616
C8    C     C_R   0.823509 0.608513 0.483525 0.602294
O11   O     O_2   0.202001 0.304490 0.540975 -0.533332
O12   O     O_2   0.799171 0.714055 0.476707 -0.521220
N1    N     N_R   0.202232 0.487418 0.495503 -0.439636
N2    N     N_R   0.798797 0.501706 0.490549 -0.441983
C9    C     C_R   0.178544 0.579445 0.471361 0.586270
C10   C     C_R   0.822204 0.393015 0.497486 0.568153
C11   C     C_R   0.278184 0.580009 0.526334 0.510328
C12   C     C_R   0.719755 0.462746 0.451129 0.500544
C13   C     C_R   0.328846 0.579419 0.527818 -0.365835
C14   C     C_R   0.669311 0.465381 0.454339 -0.332046
C15   C     C_R   0.329965 0.400751 0.471077 0.123086
C16   C     C_R   0.674821 0.547036 0.540408 0.135685
C17   C     C_R   0.279825 0.400006 0.470299 -0.190693
C18   C     C_R   0.724859 0.545697 0.536725 -0.194822
C19   C     C_R   0.253882 0.488885 0.497591 0.247057
C20   C     C_R   0.747282 0.504180 0.492585 0.253333
C21   C     C_R   0.102064 0.488931 0.493862 -0.048393
C22   C     C_R   0.898875 0.498159 0.490999 -0.051390
C23   C     C_R   0.127081 0.392734 0.516809 -0.100207
C24   C     C_R   0.874097 0.608636 0.483352 -0.084372
C25   C     C_R   0.101264 0.299099 0.539550 -0.210697
C26   C     C_R   0.900061 0.717479 0.477818 -0.255282
C27   C     C_R   0.128104 0.582967 0.470739 -0.011238
C28   C     C_R   0.872635 0.389273 0.498136 -0.005396
C29   C     C_R   0.354792 0.492265 0.499298 -0.116510
C30   C     C_R   0.646195 0.504458 0.499134 -0.124243
H3    H     H_    0.260761 0.329492 0.448649 0.183887
H4    H     H_    0.746753 0.578339 0.568288 0.181091
H5    H     H_    0.119888 0.226574 0.559020 0.204784
H6    H     H_    0.880669 0.803315 0.476237 0.181971
C31   C     C_R   0.974268 0.387237 0.505332 0.069253
C32   C     C_R   0.026528 0.594312 0.474597 0.086025
C33   C     C_R   0.975913 0.604152 0.480583 -0.042564
C34   C     C_R   0.025015 0.390263 0.512737 -0.077410
C35   C     C_R   0.949805 0.496582 0.492201 0.010030
C36   C     C_R   0.051056 0.491092 0.493811 0.011307
C37   C     C_R   0.947097 0.278312 0.509287 -0.178838
C38   C     C_R   0.053355 0.681817 0.448248 -0.129943
C39   C     C_R   0.897219 0.279396 0.505822 -0.186990
C40   C     C_R   0.103275 0.676953 0.446755 -0.179764
H7    H     H_    0.401879 0.674796 0.037994 0.206883
H8    H     H_    0.560820 0.228396 0.959261 0.180181
H9    H     H_    0.423070 0.543400 0.722322 0.180722
H10   H     H_    0.567719 0.602377 0.278843 0.160666
O13   O     O_2   0.796711 0.289343 0.504465 -0.542157
O14   O     O_2   0.203766 0.667059 0.447928 -0.553614
C41   C     C_R   0.051017 0.298143 0.538879 0.400765
C42   C     C_R   0.950774 0.717527 0.476200 0.425251
H11   H     H_    0.648151 0.437504 0.421559 0.182261
H12   H     H_    0.348074 0.646823 0.550923 0.174132
H13   H     H_    0.877992 0.193563 0.509610 0.187083
H14   H     H_    0.122303 0.747385 0.426699 0.186864
H15   H     H_    0.963612 0.189736 0.513166 0.206615
H16   H     H_    0.036162 0.751807 0.426458 0.180474
H17   H     H_    0.525562 0.209117 0.263577 0.187206
H18   H     H_    0.526880 0.788715 0.736059 0.187713
C43   C     C_R   0.476510 0.138377 0.317921 -0.165299
C44   C     C_R   0.561483 0.836983 0.667243 -0.122220
H19   H     H_    0.446675 0.132352 0.291481 0.154793
H20   H     H_    0.597358 0.825411 0.682526 0.171840
C45   C     C_R   0.470556 0.101496 0.367581 -0.150559
C46   C     C_R   0.555142 0.873967 0.617530 -0.128016
H21   H     H_    0.436179 0.064892 0.378935 0.173590
H22   H     H_    0.586408 0.891771 0.594654 0.167151
C47   C     C_R   0.509110 0.108634 0.402073 0.094917
C48   C     C_R   0.508711 0.890928 0.597793 0.080459
C49   C     C_R   0.554241 0.151243 0.385886 0.164523
C50   C     C_R   0.468481 0.870891 0.628528 0.158165
C51   C     C_R   0.559738 0.189215 0.336142 -0.120730
C52   C     C_R   0.475196 0.833352 0.678242 -0.114172
H23   H     H_    0.594274 0.221931 0.323450 0.167963
H24   H     H_    0.444408 0.818208 0.702050 0.202904
C53   C     C_R   0.521052 0.181927 0.302210 -0.124048
C54   C     C_R   0.521607 0.816558 0.697526 -0.107890
C55   C     C_R   0.501888 0.930319 0.455250 -0.203617
C56   C     C_R   0.502468 0.069562 0.544692 -0.180181
H25   H     H_    0.502249 0.877117 0.420104 0.169966
H26   H     H_    0.502980 0.122604 0.579885 0.176769
C57   C     C_R   0.501777 0.871859 0.501700 -0.070295
C58   C     C_R   0.502015 0.128077 0.498249 -0.058706
C59   C     C_R   0.503407 0.942750 0.547065 0.028568
C60   C     C_R   0.503339 0.057143 0.452825 0.035705
C61   C     C_R   0.466487 0.563494 0.188409 0.546284
C62   C     C_R   0.517222 0.399955 0.812217 0.554552
O15   O     O_2   0.432217 0.625795 0.214128 -0.536823
O16   O     O_2   0.534072 0.301328 0.786124 -0.540178
N3    N     N_R   0.501675 0.502833 0.214201 -0.455414
N4    N     N_R   0.497600 0.496500 0.786946 -0.449101
C63   C     C_R   0.537440 0.441206 0.188735 0.575134
C64   C     C_R   0.477592 0.593508 0.813611 0.580383
C65   C     C_R   0.538119 0.557874 0.297461 -0.217436
C66   C     C_R   0.456807 0.524211 0.703611 -0.224232
C67   C     C_R   0.536854 0.556075 0.350313 0.044639
C68   C     C_R   0.458727 0.528567 0.650826 0.053847
C69   C     C_R   0.463346 0.446223 0.347565 0.082900
C70   C     C_R   0.540198 0.467651 0.651816 0.077407
C71   C     C_R   0.462926 0.447326 0.294630 -0.232085
C72   C     C_R   0.540582 0.469176 0.704813 -0.218359
C73   C     C_R   0.500853 0.502897 0.268961 0.338423
C74   C     C_R   0.498319 0.496541 0.731750 0.317880
C75   C     C_R   0.501757 0.497282 0.108222 -0.087467
C76   C     C_R   0.498519 0.498716 0.893379 -0.088597
C77   C     C_R   0.466008 0.562470 0.135244 0.008933
C78   C     C_R   0.519558 0.401516 0.865353 0.014281
C79   C     C_R   0.430276 0.624769 0.108638 -0.182060
C80   C     C_R   0.541753 0.305830 0.890903 -0.166229
C81   C     C_R   0.538742 0.438291 0.135014 -0.143108
C82   C     C_R   0.475966 0.595440 0.867443 -0.147856
N5    N     N_R   0.500000 0.499970 0.374520 -0.177499
N6    N     N_R   0.500000 0.500030 0.625480 -0.174164
H27   H     H_    0.434415 0.401738 0.366981 0.162145
H28   H     H_    0.572266 0.439825 0.631996 0.164185
H29   H     H_    0.433739 0.403422 0.273760 0.152704
H30   H     H_    0.573670 0.448192 0.724585 0.175768
H31   H     H_    0.401299 0.671630 0.128243 0.190974
H32   H     H_    0.556843 0.227836 0.870414 0.188131
C83   C     C_R   0.473559 0.586527 0.975341 -0.115215
C84   C     C_R   0.532584 0.415654 0.026943 -0.092254
C85   C     C_R   0.526571 0.406216 0.972941 0.113508
C86   C     C_R   0.468674 0.571938 0.028384 0.090263
C87   C     C_R   0.499647 0.497485 0.947329 0.012540
C88   C     C_R   0.501195 0.495017 0.054377 0.005391
C89   C     C_R   0.454283 0.688622 0.949515 0.360766
C90   C     C_R   0.569461 0.354112 0.054690 0.371683
C91   C     C_R   0.453914 0.691388 0.896387 0.158387
C92   C     C_R   0.575573 0.379207 0.107096 0.122199
O17   O     O_3   0.028378 0.208694 0.566162 -0.596697
C93   C     C_3   0.017884 0.257455 0.614690 0.061480
H33   H     H_    0.995310 0.341732 0.612481 0.153740
H34   H     H_    0.051687 0.279543 0.635903 0.156550
C94   C     C_3   0.989986 0.162450 0.643773 -0.731620
H35   H     H_    0.011723 0.077549 0.647355 0.256973
H36   H     H_    0.981581 0.199479 0.682118 0.202850
H37   H     H_    0.955783 0.139721 0.623665 0.250621
O18   O     O_3   0.976586 0.827356 0.479720 -0.575875
C95   C     C_3   0.957422 0.919319 0.448536 0.039717
H38   H     H_    0.928890 0.970808 0.469202 0.160224
H39   H     H_    0.942602 0.880703 0.412250 0.143229
C96   C     C_3   0.997095 0.009910 0.435963 -0.772488
H40   H     H_    0.023965 0.965282 0.410791 0.232784
H41   H     H_    0.981435 0.089751 0.416393 0.207411
H42   H     H_    0.015564 0.043037 0.471036 0.277211
I1    I     I_    0.615736 0.150587 0.433727 -0.447166
I2    I     I_    0.397409 0.899340 0.602198 -0.420745
I3    I     I_    0.416927 0.846108 0.865333 -0.221410
I4    I     I_    0.646275 0.351182 0.138380 -0.253777
O19   O     O_3   0.436368 0.789691 0.975804 -0.570879
C97   C     C_3   0.475033 0.866594 0.991101 0.073599
H43   H     H_    0.495175 0.899397 0.957798 0.154046
H44   H     H_    0.500288 0.818184 0.016676 0.144317
C98   C     C_3   0.455034 0.977788 0.019683 -0.739158
H45   H     H_    0.434833 0.947686 0.053231 0.249127
H46   H     H_    0.484835 0.038968 0.032494 0.177805
H47   H     H_    0.430525 0.029870 0.994761 0.265770
O20   O     O_3   0.604492 0.285739 0.030050 -0.557830
C99   C     C_3   0.599466 0.160457 0.042700 0.048933
H48   H     H_    0.563150 0.124947 0.032123 0.108114
H49   H     H_    0.604790 0.145835 0.083691 0.178625
C100  C     C_3   0.636861 0.084462 0.014337 -0.731988
H50   H     H_    0.673581 0.115909 0.025309 0.269886
H51   H     H_    0.632958 0.986129 0.023704 0.199424
H52   H     H_    0.631980 0.094033 0.972977 0.236619
I5    I     I_    0.365264 0.253574 0.433010 -0.405041
I6    I     I_    0.647976 0.626673 0.608158 -0.419427
O21   O     O_3   0.743098 0.430232 0.406721 -0.575166
C101  C     C_3   0.730238 0.309780 0.390869 0.083326
H53   H     H_    0.695310 0.310814 0.370160 0.162258
H54   H     H_    0.727881 0.246222 0.423182 0.196738
C102  C     C_3   0.768432 0.259864 0.355114 -0.712105
H55   H     H_    0.803815 0.257070 0.374847 0.248783
H56   H     H_    0.758611 0.165428 0.342031 0.211757
H57   H     H_    0.771312 0.319373 0.321805 0.255138
O22   O     O_3   0.251257 0.661917 0.555395 -0.573739
C103  C     C_3   0.264908 0.784426 0.546367 0.082490
H58   H     H_    0.274390 0.798980 0.506073 0.175321
H59   H     H_    0.295925 0.810418 0.570964 0.181761
C104  C     C_3   0.223154 0.869197 0.559513 -0.679038
H60   H     H_    0.213371 0.859670 0.599803 0.250342
H61   H     H_    0.233549 0.966020 0.553068 0.224243
H62   H     H_    0.191432 0.845591 0.535409 0.254381

loop_
_geom_bond_atom_site_label_1
_geom_bond_atom_site_label_2
_geom_bond_distance
_ccdc_geom_bond_type
C45   C47   1.403770 A    
O18   C95   1.415508 S    
C66   C68   1.401665 A    
H10   C65   1.082627 S    
C104  H61   1.110630 S    
C14   C30   1.410680 A    
H9    C66   1.082281 S    
C3    C29   1.465568 S    
C4    C30   1.483131 S    
C69   H27   1.078692 S    
C96   H42   1.110415 S    
C70   C72   1.403586 A    
C96   H40   1.109743 S    
C31   C37   1.412143 A    
C21   C23   1.405895 A    
C32   C38   1.410750 A    
C98   H45   1.110831 S    
C40   H14   1.083337 S    
C22   C28   1.408989 A    
C61   O15   1.349470 S    
C10   C28   1.402428 A    
C97   H44   1.113767 S    
C101  C102  1.520400 S    
O1    C1    1.289213 A    
C101  H54   1.116065 S    
C17   C19   1.398370 A    
C46   H22   1.083292 S    
C69   C71   1.402583 A    
C62   N4    1.371430 A    
C83   C86   1.425385 A    
C75   C77   1.411291 A    
C97   H43   1.114355 S    
C56   C59   1.384370 A    
C27   C40   1.397826 A    
C52   C54   1.397654 A    
C12   C20   1.399101 A    
C38   C40   1.389491 A    
O19   C97   1.412720 S    
C2    C57   1.456625 S    
O4    Cu1   1.980049 S    
C16   I6    2.115892 S    
C80   H32   1.083553 S    
C81   C92   1.413912 A    
C61   N3    1.368482 A    
C9    O14   1.349560 S    
C95   C96   1.523054 S    
N1    C19   1.436373 S    
C1    C58   1.457347 S    
C83   C87   1.411390 A    
C63   C81   1.423430 A    
H18   C54   1.080775 S    
C43   C45   1.395735 A    
C93   C94   1.520392 S    
C75   C88   1.425977 A    
C17   H3    1.082935 S    
C104  H62   1.110932 S    
O6    Cu2   1.947918 S    
C76   C87   1.429636 A    
C26   C42   1.410618 A    
C34   C36   1.418384 A    
C44   C54   1.394057 A    
C16   C18   1.395090 A    
C70   H28   1.078027 S    
C44   C46   1.396349 A    
C21   C27   1.408416 A    
C6    C80   1.390252 A    
C9    C27   1.402593 A    
C100  H51   1.110551 S    
C104  H60   1.110668 S    
C57   C59   1.413021 A    
C13   C29   1.402548 A    
Cu1   Cu2   2.656980 S    
C75   C81   1.409093 A    
C95   H39   1.115592 S    
C23   C25   1.397390 A    
O2    C2    1.288853 A    
C24   C26   1.398514 A    
C103  C104  1.521077 S    
C69   N5    1.363041 A    
C96   H41   1.110616 S    
C72   C74   1.407641 A    
C99   H48   1.112047 S    
C14   H11   1.082207 S    
C90   C92   1.417322 A    
Cu2   N5    1.995520 S    
C71   C73   1.403456 A    
C89   O19   1.383518 S    
C37   C39   1.388816 A    
C89   C91   1.408403 A    
C28   C39   1.397081 A    
C102  H55   1.111027 S    
C55   C60   1.384887 A    
C46   C48   1.402818 A    
C10   O13   1.349691 S    
C84   C85   1.440165 A    
C103  H59   1.109031 S    
C55   H25   1.084806 S    
C84   C90   1.433131 A    
C43   H19   1.082271 S    
C31   C35   1.421157 A    
N2    C20   1.433617 S    
C67   N5    1.364453 A    
C39   H13   1.083479 S    
C100  H50   1.110618 S    
C21   C36   1.418027 A    
H17   C53   1.080427 S    
C71   H29   1.082582 S    
C47   C60   1.478971 S    
C90   O20   1.384414 S    
C5    C86   1.411537 A    
C72   H30   1.082235 S    
C85   C87   1.426461 A    
C49   C51   1.400047 A    
N4    C74   1.462469 S    
O5    C3    1.287921 A    
O7    Cu2   1.950789 S    
C102  H56   1.110521 S    
C43   C53   1.395469 A    
C91   I3    2.151930 S    
C51   H23   1.082397 S    
C11   O22   1.387734 S    
C50   C52   1.399535 A    
C68   N6    1.366048 A    
O6    C4    1.290854 A    
C55   C57   1.399060 A    
C52   H24   1.081857 S    
C76   C82   1.415814 A    
C94   H37   1.110945 S    
C58   C60   1.414914 A    
C6    H8    1.067373 S    
O7    C3    1.288913 A    
C49   I1    2.120132 S    
C98   H46   1.108572 S    
O8    C4    1.295428 A    
C86   C88   1.418769 A    
C7    C23   1.405177 A    
C44   H20   1.081978 S    
C13   H12   1.082419 S    
C45   H21   1.082541 S    
C48   C50   1.408220 A    
O20   C99   1.419887 S    
C56   H26   1.084825 S    
C33   C35   1.418809 A    
C95   H38   1.111753 S    
C15   C29   1.408253 A    
C93   H34   1.114155 S    
O4    C2    1.283549 A    
C94   H36   1.110436 S    
C37   H15   1.075623 S    
C48   C59   1.476451 S    
C18   H4    1.083134 S    
C76   C78   1.408520 A    
C32   C36   1.418302 A    
C31   C34   1.422874 A    
C7    N1    1.368882 A    
C32   C33   1.420913 A    
C83   C89   1.422640 A    
C78   C80   1.397775 A    
C22   C35   1.415909 A    
C100  H52   1.110403 S    
C82   C91   1.423212 A    
O9    C64   1.342293 S    
C6    C85   1.411065 A    
C5    C79   1.390513 A    
C84   C88   1.420406 A    
C103  H58   1.116412 S    
O3    C1    1.283444 A    
O8    Cu1   1.950787 S    
C26   H6    1.081142 S    
H2    C67   1.080889 S    
C99   H49   1.110089 S    
C98   H47   1.110723 S    
C33   C42   1.426167 A    
O3    Cu2   1.980051 S    
N1    C9    1.368555 A    
C65   C73   1.402228 A    
C62   C78   1.408282 A    
C16   C30   1.415959 A    
N2    C10   1.367004 A    
C61   C77   1.408092 A    
C42   O18   1.395017 S    
C41   O17   1.381010 S    
C12   O21   1.386506 S    
C7    O11   1.349612 S    
C102  H57   1.110698 S    
O21   C101  1.412549 S    
C11   C13   1.408467 A    
C56   C58   1.399123 A    
O17   C93   1.411686 S    
C5    H7    1.079326 S    
C12   C14   1.405666 A    
C25   H5    1.083686 S    
C8    C24   1.406200 A    
C62   O16   1.349529 S    
H1    C68   1.078882 S    
C92   I4    2.151846 S    
N3    C63   1.372517 A    
C18   C20   1.395139 A    
C15   C17   1.393703 A    
Cu1   N6    1.995520 S    
C38   H16   1.077228 S    
C8    O12   1.349579 S    
O2    Cu2   1.970235 S    
N4    C64   1.376872 A    
C99   C100  1.521119 S    
C70   N6    1.363894 A    
C51   C53   1.397138 A    
O22   C103  1.413245 S    
C66   C74   1.405763 A    
O5    Cu1   1.947918 S    
O1    Cu1   1.970235 S    
C25   C41   1.396669 A    
C34   C41   1.426844 A    
C8    N2    1.367621 A    
C11   C19   1.405421 A    
C77   C79   1.399045 A    
C47   C49   1.410544 A    
C22   C24   1.405177 A    
C93   H33   1.114854 S    
C101  H53   1.111632 S    
C15   I5    2.118865 S    
N3    C73   1.450967 S    
C79   H31   1.083263 S    
C64   C82   1.426734 A    
C94   H35   1.110689 S    
C50   I2    2.115566 S    
O10   C63   1.345708 S    
C65   C67   1.401411 A    
C97   C98   1.520711 S    
