data_mof_unit_7731.cif
_audit_creation_date              2012-12-11T16:51:31-0500
_audit_creation_method            fapswitch 2.2
_symmetry_space_group_name_H-M    P1
_symmetry_Int_Tables_number       1
_space_group_crystal_system       triclinic
_cell_length_a                    24.516693
_cell_length_b                    17.243883
_cell_length_c                    15.537538
_cell_angle_alpha                 89.607148
_cell_angle_beta                  128.984246
_cell_angle_gamma                 90.580896
_cell_volume                      5105.70858355

loop_
_atom_site_label
_atom_site_type_symbol
_atom_type_description
_atom_site_fract_x
_atom_site_fract_y
_atom_site_fract_z
_atom_type_partial_charge
C1    C     C_R   0.834536 0.887631 0.201318 -0.167525
C2    C     C_R   0.165048 0.885854 0.795948 -0.149411
C3    C     C_R   0.334542 0.387615 0.201327 -0.167264
C4    C     C_R   0.665047 0.385852 0.795948 -0.149400
C5    C     C_R   0.899260 0.133202 0.590470 0.487417
C6    C     C_R   0.116778 0.103704 0.410526 0.523218
C7    C     C_R   0.399259 0.633199 0.590472 0.487420
C8    C     C_R   0.616779 0.603702 0.410527 0.523213
C9    C     C_R   0.847818 0.175687 0.497775 -0.024798
C10   C     C_R   0.185544 0.118298 0.502738 -0.044448
C11   C     C_R   0.347816 0.675684 0.497777 -0.024781
C12   C     C_R   0.685546 0.618296 0.502740 -0.044434
C13   C     C_R   0.875989 0.172969 0.189594 0.134824
C14   C     C_R   0.121321 0.180020 0.796342 0.145799
C15   C     C_R   0.375990 0.672971 0.189597 0.134822
C16   C     C_R   0.621320 0.680023 0.796339 0.145790
C17   C     C_R   0.853248 0.713278 0.610385 0.140698
C18   C     C_R   0.215792 0.829383 0.390965 0.148462
C19   C     C_R   0.353241 0.213290 0.610389 0.140711
C20   C     C_R   0.715786 0.329377 0.390958 0.148494
C21   C     C_R   0.837027 0.738017 0.510533 0.044072
C22   C     C_R   0.233266 0.854102 0.491174 0.030411
C23   C     C_R   0.337027 0.238021 0.510538 0.044069
C24   C     C_R   0.733264 0.354101 0.491168 0.030407
C25   C     C_R   0.786376 0.695753 0.414174 -0.225356
C26   C     C_R   0.302722 0.844564 0.588664 -0.225628
C27   C     C_R   0.286379 0.195752 0.414181 -0.225348
C28   C     C_R   0.802721 0.344569 0.588657 -0.225641
C29   C     C_R   0.240757 0.145774 0.413351 -0.164330
C30   C     C_R   0.845450 0.291417 0.589426 -0.150274
C31   C     C_R   0.740756 0.645773 0.413346 -0.164339
C32   C     C_R   0.345449 0.791410 0.589434 -0.150274
C33   C     C_R   0.245716 0.139432 0.508581 0.054900
C34   C     C_R   0.817720 0.248852 0.492918 0.053823
C35   C     C_R   0.745720 0.639425 0.508581 0.054896
C36   C     C_R   0.317720 0.748849 0.492924 0.053825
C37   C     C_R   0.308085 0.164353 0.609205 0.140365
C38   C     C_R   0.757909 0.277034 0.391966 0.156588
C39   C     C_R   0.808096 0.664336 0.609207 0.140377
C40   C     C_R   0.257914 0.777038 0.391972 0.156603
C41   C     C_3   0.820960 0.703687 0.706053 -0.469936
C42   C     C_3   0.196593 0.735898 0.291540 -0.517280
C43   C     C_3   0.320931 0.203716 0.706028 -0.469885
C44   C     C_3   0.696588 0.235886 0.291541 -0.517236
C45   C     C_R   0.110644 0.891704 0.406179 -0.202785
C46   C     C_R   0.914027 0.856141 0.594160 -0.179156
C47   C     C_R   0.610643 0.391704 0.406178 -0.202825
C48   C     C_R   0.414027 0.356142 0.594162 -0.179158
C49   C     C_3   0.869990 0.757814 0.707161 -0.505281
C50   C     C_3   0.150262 0.792838 0.290610 -0.498936
C51   C     C_3   0.369971 0.257836 0.707151 -0.505356
C52   C     C_3   0.650255 0.292825 0.290612 -0.498997
C53   C     C_2   0.188802 0.830915 0.968970 0.520875
C54   C     C_2   0.812626 0.831915 0.030331 0.518476
C55   C     C_2   0.688801 0.330912 0.968969 0.520886
C56   C     C_2   0.312635 0.331899 0.030332 0.518536
C57   C     C_2   0.258607 0.839627 0.031786 -0.284552
C58   C     C_2   0.743089 0.843569 0.963264 -0.284270
C59   C     C_2   0.758606 0.339626 0.031785 -0.284567
C60   C     C_2   0.243098 0.343551 0.963284 -0.283944
C61   C     C_2   0.849087 0.243861 0.124171 -0.251044
C62   C     C_2   0.148356 0.251670 0.860624 -0.259976
C63   C     C_2   0.349088 0.743862 0.124174 -0.251046
C64   C     C_2   0.648353 0.751677 0.860616 -0.260034
C65   C     C_2   0.803888 0.287015 0.123604 -0.044147
C66   C     C_2   0.197236 0.293455 0.867716 -0.042055
C67   C     C_2   0.303889 0.787016 0.123606 -0.044158
C68   C     C_2   0.697233 0.793461 0.867708 -0.042122
C69   C     C_R   0.186514 0.893621 0.590405 -0.113655
C70   C     C_R   0.837238 0.855953 0.409641 -0.115101
C71   C     C_R   0.686514 0.393620 0.590404 -0.113660
C72   C     C_R   0.337237 0.355954 0.409643 -0.115111
C73   C     C_R   0.075643 0.889742 0.800486 -0.135493
C74   C     C_R   0.926398 0.887426 0.202602 -0.115942
C75   C     C_R   0.575642 0.389742 0.800486 -0.135521
C76   C     C_R   0.426400 0.387435 0.202601 -0.116253
C77   C     C_R   0.856917 0.864887 0.142532 -0.062986
C78   C     C_R   0.144002 0.864954 0.857476 -0.059617
C79   C     C_R   0.356926 0.364870 0.142542 -0.063230
C80   C     C_R   0.644001 0.364952 0.857475 -0.059637
C81   C     C_R   0.178623 0.875293 0.496556 0.093140
C82   C     C_R   0.862388 0.812704 0.503956 0.083134
C83   C     C_R   0.678622 0.375292 0.496554 0.093152
C84   C     C_R   0.362388 0.312706 0.503958 0.083145
C85   C     C_R   0.830284 0.136034 0.406986 -0.243626
C86   C     C_R   0.189283 0.100371 0.592671 -0.262764
C87   C     C_R   0.330283 0.636033 0.406987 -0.243619
C88   C     C_R   0.689284 0.600370 0.592672 -0.262761
C89   C     C_R   0.937677 0.135756 0.230964 -0.155446
C90   C     C_R   0.063024 0.138123 0.765910 -0.185421
C91   C     C_R   0.437677 0.635757 0.230966 -0.155424
C92   C     C_R   0.563021 0.638126 0.765905 -0.185441
C93   C     C_R   0.151553 0.139310 0.759830 -0.106313
C94   C     C_R   0.844075 0.131579 0.223485 -0.114233
C95   C     C_R   0.651553 0.639311 0.759829 -0.106329
C96   C     C_R   0.344076 0.631580 0.223487 -0.114237
H1    H     H_    0.781345 0.887498 0.172527 0.093041
H2    H     H_    0.217070 0.882852 0.820204 0.092619
H3    H     H_    0.281352 0.387473 0.172540 0.092988
H4    H     H_    0.717070 0.382850 0.820203 0.092618
H5    H     H_    0.198205 0.119994 0.335544 0.177273
H6    H     H_    0.895988 0.277907 0.667338 0.171680
H7    H     H_    0.698199 0.619998 0.335538 0.177280
H8    H     H_    0.395985 0.777895 0.667346 0.171672
H9    H     H_    0.848627 0.665323 0.779841 0.191697
H10   H     H_    0.189161 0.675577 0.308520 0.201765
H11   H     H_    0.348581 0.165356 0.779817 0.191698
H12   H     H_    0.689162 0.175565 0.308532 0.201758
H13   H     H_    0.850482 0.818450 0.686337 0.201487
H14   H     H_    0.122138 0.831964 0.217386 0.200722
H15   H     H_    0.350465 0.318472 0.686315 0.201507
H16   H     H_    0.622125 0.331946 0.217380 0.200712
H17   H     H_    0.925658 0.751193 0.782502 0.192594
H18   H     H_    0.116857 0.764364 0.307343 0.202289
H19   H     H_    0.425634 0.251215 0.782503 0.192582
H20   H     H_    0.616856 0.264350 0.307355 0.202249
H21   H     H_    0.282156 0.873969 0.003826 0.112190
H22   H     H_    0.719202 0.878940 0.988906 0.112791
H23   H     H_    0.782155 0.373969 0.003826 0.112179
H24   H     H_    0.219213 0.378899 0.988950 0.112690
H25   H     H_    0.862032 0.257516 0.070448 0.143694
H26   H     H_    0.133686 0.265588 0.911773 0.142958
H27   H     H_    0.362035 0.757518 0.070452 0.143698
H28   H     H_    0.633678 0.765600 0.911756 0.142976
H29   H     H_    0.088107 0.893050 0.320399 0.092024
H30   H     H_    0.946224 0.839875 0.679904 0.110705
H31   H     H_    0.588106 0.393049 0.320398 0.092019
H32   H     H_    0.446222 0.339877 0.679906 0.110705
H33   H     H_    0.234727 0.897286 0.674634 0.084178
H34   H     H_    0.796133 0.839715 0.324655 0.093609
H35   H     H_    0.734728 0.397285 0.674632 0.084179
H36   H     H_    0.296130 0.339716 0.324657 0.093608
H37   H     H_    0.047638 0.892419 0.833147 0.107905
H38   H     H_    0.956913 0.887170 0.174201 0.107955
H39   H     H_    0.547638 0.392420 0.833147 0.107888
H40   H     H_    0.456911 0.387201 0.174193 0.107844
H41   H     H_    0.788595 0.148325 0.322096 0.133604
H42   H     H_    0.236498 0.091512 0.676678 0.134437
H43   H     H_    0.288594 0.648324 0.322097 0.133597
H44   H     H_    0.736498 0.591513 0.676680 0.134418
H45   H     H_    0.972977 0.151729 0.214994 0.175429
H46   H     H_    0.031450 0.152185 0.789309 0.164488
H47   H     H_    0.472979 0.651731 0.214997 0.175426
H48   H     H_    0.531443 0.652192 0.789294 0.164463
H49   H     H_    0.776214 0.708017 0.336845 0.131094
H50   H     H_    0.321049 0.869262 0.666616 0.130333
H51   H     H_    0.276222 0.208012 0.336856 0.131110
H52   H     H_    0.821050 0.369270 0.666608 0.130334
N1    N     N_R   0.888400 0.921830 0.294620 -0.026384
N2    N     N_R   0.111600 0.921830 0.705380 -0.026356
N3    N     N_R   0.388400 0.421830 0.294620 -0.026388
N4    N     N_R   0.611600 0.421830 0.705380 -0.026356
N5    N     N_R   0.079940 0.922160 0.443410 -0.047644
N6    N     N_R   0.920060 0.922160 0.556590 -0.053423
N7    N     N_R   0.579940 0.422160 0.443410 -0.047637
N8    N     N_R   0.420060 0.422160 0.556590 -0.053423
N9    N     N_R   0.125650 0.922400 0.556620 -0.036791
N10   N     N_R   0.874350 0.922400 0.443380 -0.038949
N11   N     N_R   0.625650 0.422400 0.556620 -0.036791
N12   N     N_R   0.374350 0.422400 0.443380 -0.038955
N13   N     N_R   0.054230 0.922730 0.705400 -0.038096
N14   N     N_R   0.945770 0.922730 0.294600 -0.041005
N15   N     N_R   0.554230 0.422730 0.705400 -0.038091
N16   N     N_R   0.445770 0.422730 0.294600 -0.040938
N17   N     N_R   0.873790 0.077030 0.443380 -0.059323
N18   N     N_R   0.126210 0.077030 0.556620 -0.058843
N19   N     N_R   0.373790 0.577030 0.443380 -0.059324
N20   N     N_R   0.626210 0.577030 0.556620 -0.058839
N21   N     N_R   0.945200 0.076700 0.294600 -0.048467
N22   N     N_R   0.054800 0.076700 0.705400 -0.050586
N23   N     N_R   0.445200 0.576700 0.294600 -0.048462
N24   N     N_R   0.554800 0.576700 0.705400 -0.050588
N25   N     N_R   0.111030 0.077600 0.705380 -0.038907
N26   N     N_R   0.888970 0.077600 0.294620 -0.037041
N27   N     N_R   0.611030 0.577600 0.705380 -0.038898
N28   N     N_R   0.388970 0.577600 0.294620 -0.037045
N29   N     N_R   0.919490 0.077280 0.556590 -0.109985
N30   N     N_R   0.080510 0.077280 0.443410 -0.098138
N31   N     N_R   0.419490 0.577280 0.556590 -0.109986
N32   N     N_R   0.580510 0.577280 0.443410 -0.098137
Ni1   Ni    Ni4+2 0.882160 0.999430 0.370180 0.207402
Ni2   Ni    Ni4+2 0.117840 0.999430 0.629820 0.201337
Ni3   Ni    Ni4+2 0.382160 0.499430 0.370180 0.207406
Ni4   Ni    Ni4+2 0.617840 0.499430 0.629820 0.201334
Ni5   Ni    Ni4+2 0.012460 0.999430 0.370180 0.207805
Ni6   Ni    Ni4+2 0.987540 0.999430 0.629820 0.196281
Ni7   Ni    Ni4+2 0.512460 0.499430 0.370180 0.207814
Ni8   Ni    Ni4+2 0.487540 0.499430 0.629820 0.196270
H53   H     H_    0.773973 0.733532 0.685231 0.207721
H54   H     H_    0.195672 0.742946 0.219519 0.230249
H55   H     H_    0.273938 0.233565 0.685177 0.207743
H56   H     H_    0.695661 0.242931 0.219513 0.230249
H57   H     H_    0.790892 0.273042 0.177184 0.160209
H58   H     H_    0.212721 0.279406 0.817814 0.164086
H59   H     H_    0.290892 0.773043 0.177184 0.160206
H60   H     H_    0.712726 0.779405 0.817817 0.164065
O1    O     O_3   0.160145 0.788416 0.008589 -0.639749
C97   C     C_3   0.122160 0.724034 0.938904 0.272041
H61   H     H_    0.153395 0.691401 0.921620 0.093735
H62   H     H_    0.071909 0.742832 0.859473 0.097743
C98   C     C_3   0.104659 0.669043 0.995542 -0.943154
H63   H     H_    0.074581 0.699985 0.015985 0.266998
H64   H     H_    0.072423 0.619823 0.939563 0.219013
H65   H     H_    0.153673 0.645802 0.072738 0.245545
O2    O     O_3   0.841695 0.787247 0.994315 -0.629243
C99   C     C_3   0.872847 0.720491 0.061604 0.289352
H66   H     H_    0.837616 0.691784 0.074838 0.085252
H67   H     H_    0.923669 0.735630 0.143104 0.098319
C100  C     C_3   0.887209 0.662439 0.004953 -0.931542
H68   H     H_    0.922100 0.688935 0.990029 0.263498
H69   H     H_    0.913228 0.610465 0.058286 0.215581
H70   H     H_    0.837027 0.644239 0.924755 0.243264
O3    O     O_3   0.660145 0.288411 0.008589 -0.639752
C101  C     C_3   0.622143 0.224042 0.938889 0.272023
H71   H     H_    0.653353 0.191421 0.921557 0.093765
H72   H     H_    0.571888 0.242853 0.859491 0.097782
C102  C     C_3   0.604661 0.169033 0.995531 -0.943353
H73   H     H_    0.574614 0.199965 0.016031 0.267035
H74   H     H_    0.572406 0.119828 0.939538 0.219048
H75   H     H_    0.653678 0.145775 0.072688 0.245582
O4    O     O_3   0.341689 0.287297 0.994228 -0.629309
C103  C     C_3   0.373193 0.220711 0.061769 0.289532
H76   H     H_    0.338301 0.191971 0.075651 0.085185
H77   H     H_    0.424113 0.236079 0.142941 0.098381
C104  C     C_3   0.387380 0.162590 0.004966 -0.931940
H78   H     H_    0.422002 0.189108 0.989520 0.263500
H79   H     H_    0.413629 0.110731 0.058449 0.215658
H80   H     H_    0.337120 0.144204 0.925038 0.243396
H81   H     H_    0.199307 0.152732 0.772641 0.096169
H82   H     H_    0.790626 0.137733 0.191554 0.089055
H83   H     H_    0.699305 0.652733 0.772638 0.096131
H84   H     H_    0.290627 0.637735 0.191557 0.089052
O5    O     O_3   0.911362 0.135124 0.690432 -0.665135
C105  C     C_3   0.916942 0.059080 0.729632 0.259218
H85   H     H_    0.964859 0.030103 0.752815 0.095636
H86   H     H_    0.869778 0.023571 0.666220 0.103133
C106  C     C_3   0.922275 0.063125 0.832313 -0.913419
H87   H     H_    0.874380 0.090063 0.811735 0.264290
H88   H     H_    0.927775 0.003799 0.865091 0.217884
H89   H     H_    0.968817 0.098470 0.896699 0.261968
O6    O     O_3   0.089337 0.115845 0.302133 -0.660736
C107  C     C_3   0.071484 0.044199 0.247328 0.190943
H90   H     H_    0.030581 0.013588 0.245164 0.112001
H91   H     H_    0.119119 0.007806 0.287676 0.099649
C108  C     C_3   0.041789 0.058126 0.128407 -0.917535
H92   H     H_    0.081066 0.088858 0.126534 0.257691
H93   H     H_    0.028410 0.001712 0.084976 0.220332
H94   H     H_    0.993576 0.093681 0.084704 0.260343
O7    O     O_3   0.411352 0.635109 0.690427 -0.665122
C109  C     C_3   0.416940 0.559062 0.729624 0.259175
H95   H     H_    0.464892 0.530124 0.752901 0.095662
H96   H     H_    0.369814 0.523525 0.666180 0.103134
C110  C     C_3   0.422178 0.563087 0.832214 -0.913415
H97   H     H_    0.374238 0.589973 0.811527 0.264288
H98   H     H_    0.427698 0.503760 0.865001 0.217880
H99   H     H_    0.468672 0.598471 0.896629 0.261998
O8    O     O_3   0.589338 0.615846 0.302134 -0.660740
C111  C     C_3   0.571481 0.544201 0.247324 0.190933
H100  H     H_    0.530579 0.513591 0.245164 0.112018
H101  H     H_    0.619114 0.507806 0.287664 0.099649
C112  C     C_3   0.541779 0.558132 0.128399 -0.917523
H102  H     H_    0.581055 0.588861 0.126522 0.257688
H103  H     H_    0.528394 0.501720 0.084963 0.220327
H104  H     H_    0.493569 0.593690 0.084706 0.260324

loop_
_geom_bond_atom_site_label_1
_geom_bond_atom_site_label_2
_ccdc_geom_bond_type
C2    N2    A    
N28   Ni3   S    
C49   H17   S    
C25   C31   A    
C55   C59   D    
C27   C29   A    
C15   C91   A    
N17   N29   A    
C98   H63   S    
N19   N31   A    
N18   Ni2   S    
C76   C79   A    
C50   H14   S    
N16   Ni7   S    
C3    C79   A    
C104  H80   S    
C85   N17   A    
C76   H40   S    
C39   C41   S    
O2    C99   S    
C102  H75   S    
C26   C32   A    
N6    Ni6   S    
N7    N11   A    
C94   H82   S    
O7    C109  S    
N13   Ni6   S    
C56   C79   S    
C41   H9    S    
C7    O7    S    
C32   C36   A    
C57   H21   S    
C11   C36   S    
C24   C83   S    
C95   H83   S    
O6    C107  S    
C64   C68   D    
C110  H97   S    
C75   H39   S    
C8    N32   A    
C52   H16   S    
C109  H96   S    
C14   C62   S    
C3    H3    S    
C29   C33   A    
C58   H22   S    
C100  H70   S    
C1    C77   A    
C75   N15   A    
O8    C111  S    
C17   C39   A    
N8    Ni8   S    
C93   N25   A    
C8    O8    S    
C26   H50   S    
C95   N27   A    
C14   C90   A    
C73   N13   A    
C19   C37   A    
C9    C85   A    
C46   C82   A    
N30   Ni5   S    
C44   H56   S    
N19   Ni3   S    
C72   N12   A    
C20   C24   A    
C11   C87   A    
C88   N20   A    
C74   C77   A    
C86   N18   A    
C15   C63   S    
C69   N9    A    
N21   N26   A    
C32   H8    S    
C6    O6    S    
C1    N1    A    
C97   H61   S    
N18   N30   A    
C47   C83   A    
N11   Ni4   S    
N4    Ni4   S    
N20   N32   A    
C96   N28   A    
C75   C80   A    
C14   C93   A    
C91   H47   S    
N24   N27   A    
C8    C12   A    
C54   C77   S    
C44   C52   S    
C109  C110  S    
C52   H20   S    
C48   N8    A    
C69   H33   S    
C43   H55   S    
C5    O5    S    
C106  H87   S    
C6    N30   A    
N1    Ni1   S    
C98   H64   S    
C74   N14   A    
N22   Ni6   S    
C103  H76   S    
C105  H86   S    
C57   C67   S    
C67   H59   S    
C110  H99   S    
N26   Ni1   S    
C41   C49   S    
C66   H58   S    
C38   C44   S    
C72   H36   S    
C71   C83   A    
C44   H12   S    
C46   N6    A    
C87   N19   A    
C28   H52   S    
C107  C108  S    
C23   C84   S    
C30   C34   A    
C92   H48   S    
C59   H23   S    
C22   C81   S    
N8    N12   A    
N2    Ni2   S    
C106  H89   S    
C1    H1    S    
C15   C96   A    
C112  H103  S    
C62   C66   D    
C99   H66   S    
C34   C38   A    
N31   Ni8   S    
C103  C104  S    
N20   Ni4   S    
C109  H95   S    
O3    C101  S    
C71   H35   S    
C33   C37   A    
N29   Ni6   S    
C48   C84   A    
N15   Ni8   S    
C70   N10   A    
C105  C106  S    
C31   H7    S    
C37   C43   S    
C7    C11   A    
C63   C67   D    
C5    C9    A    
O4    C103  S    
C2    C78   A    
N32   Ni7   S    
C61   C65   D    
C48   H32   S    
C20   C38   A    
C42   H54   S    
C107  H91   S    
C100  H68   S    
C36   C40   A    
C73   C78   A    
C54   O2    S    
C90   N22   A    
C97   C98   S    
C107  H90   S    
C29   H5    S    
C68   H60   S    
C43   H11   S    
C4    N4    A    
C103  H77   S    
C42   H10   S    
C5    N29   A    
C72   C84   A    
C56   O4    S    
C30   H6    S    
C42   C50   S    
C60   C66   S    
C18   C40   A    
C58   C68   S    
C73   H37   S    
N25   Ni2   S    
C16   C92   A    
C23   C27   A    
C25   H49   S    
C108  H93   S    
C22   C26   A    
C9    C34   S    
C98   H65   S    
C64   H28   S    
C76   N16   A    
C111  C112  S    
C45   N5    A    
C105  H85   S    
C17   C49   S    
C70   H34   S    
C85   H41   S    
C111  H101  S    
C62   H26   S    
C18   C50   S    
C49   H13   S    
C54   C58   D    
C93   H81   S    
C88   H44   S    
C21   C25   A    
C10   C86   A    
C16   C95   A    
C51   H15   S    
N12   Ni3   S    
C13   C89   A    
N9    Ni2   S    
C18   C22   A    
C46   H30   S    
C4    C80   A    
C45   C81   A    
C24   C28   A    
C61   H25   S    
C87   H43   S    
C101  C102  S    
C53   C57   D    
C6    C10   A    
C112  H104  S    
C63   H27   S    
N2    N13   A    
N3    Ni3   S    
C41   H53   S    
C90   H46   S    
C71   N11   A    
N23   N28   A    
C3    N3    A    
N5    Ni5   S    
C102  H74   S    
C4    H4    S    
C91   N23   A    
C13   C94   A    
C7    N31   A    
C53   O1    S    
N21   Ni5   S    
N14   Ni5   S    
C106  H88   S    
C111  H100  S    
C102  H73   S    
C74   H38   S    
N17   Ni1   S    
C28   C30   A    
C20   C52   S    
N7    Ni7   S    
C59   C65   S    
C55   C80   S    
C99   C100  S    
C43   C51   S    
C112  H102  S    
C47   N7    A    
C47   H31   S    
C92   N24   A    
C19   C51   S    
C89   H45   S    
C35   C39   A    
C101  H71   S    
C31   C35   A    
C40   C42   S    
C104  H79   S    
C55   O3    S    
C53   C78   S    
C10   C33   S    
C101  H72   S    
C45   H29   S    
C96   H84   S    
C65   H57   S    
N5    N9    A    
O1    C97   S    
C70   C82   A    
N10   Ni1   S    
C51   H19   S    
N4    N15   A    
C69   C81   A    
C86   H42   S    
C60   H24   S    
C89   N21   A    
C56   C60   D    
C19   C23   A    
C13   C61   S    
C21   C82   S    
C2    H2    S    
C27   H51   S    
N3    N16   A    
C110  H98   S    
C108  H94   S    
C94   N26   A    
N6    N10   A    
C100  H69   S    
C97   H62   S    
N1    N14   A    
C16   C64   S    
C50   H18   S    
C108  H92   S    
C99   H67   S    
N23   Ni7   S    
C12   C35   S    
C12   C88   A    
N24   Ni8   S    
O5    C105  S    
N27   Ni4   S    
C104  H78   S    
N22   N25   A    
C17   C21   A    
