data_mof_unit_26167.cif
_audit_creation_date              2012-12-10T19:22:02-0500
_audit_creation_method            fapswitch 2.2
_symmetry_space_group_name_H-M    P1
_symmetry_Int_Tables_number       1
_space_group_crystal_system       triclinic
_cell_length_a                    8.803224
_cell_length_b                    17.737836
_cell_length_c                    16.507858
_cell_angle_alpha                 90.165702
_cell_angle_beta                  98.581228
_cell_angle_gamma                 91.412994
_cell_volume                      2548.01647207

loop_
_atom_site_label
_atom_site_type_symbol
_atom_type_description
_atom_site_fract_x
_atom_site_fract_y
_atom_site_fract_z
_atom_type_partial_charge
C1    C     C_R   0.507197 0.355331 0.500907 0.819691
C2    C     C_R   0.614120 0.537069 0.266212 -0.113037
C3    C     C_R   0.445080 0.434198 0.822963 0.292459
C4    C     C_R   0.619787 0.535934 0.181045 0.291631
C5    C     C_R   0.493481 0.497781 0.873056 -0.220581
C6    C     C_R   0.498348 0.500835 0.126858 -0.222339
C7    C     C_1   0.495996 0.496659 0.962833 0.276499
C8    C     C_1   0.498619 0.498376 0.037312 0.277675
C9    C     C_R   0.203802 0.495924 0.478932 0.826106
C10   C     C_R   0.796479 0.496840 0.520962 0.784249
C11   C     C_2   0.038057 0.492045 0.466370 0.182765
C12   C     C_R   0.501766 0.644790 0.499910 0.846201
C13   C     C_2   0.961813 0.487137 0.532017 0.158287
C14   C     C_R   0.483953 0.846602 0.569521 -0.231750
C15   C     C_R   0.534614 0.153496 0.432513 -0.212639
C16   C     C_R   0.477978 0.768099 0.568474 -0.231855
C17   C     C_R   0.527853 0.231752 0.431529 -0.288333
C18   C     C_R   0.507058 0.727997 0.499157 -0.211327
C19   C     C_R   0.526327 0.272607 0.504268 -0.214943
C20   C     C_R   0.541562 0.768211 0.429694 0.371441
C21   C     C_R   0.546819 0.233595 0.580093 0.408444
C22   C     C_R   0.555747 0.847348 0.433029 0.418837
C23   C     C_1   0.528644 0.966647 0.503952 0.034016
C24   C     C_R   0.554648 0.154614 0.581022 0.441463
C25   C     C_R   0.522114 0.886075 0.502058 -0.043855
C26   C     C_R   0.543351 0.114790 0.506447 -0.054661
C27   C     C_3   0.938960 0.429740 0.349264 -0.141192
C28   C     C_3   0.041399 0.513451 0.668947 -0.207760
C29   C     C_3   0.444448 0.730390 0.300308 -0.165120
C30   C     C_3   0.704174 0.292173 0.684205 -0.149853
C31   C     C_3   0.756688 0.892860 0.375150 -0.237508
C32   C     C_3   0.705306 0.084872 0.677054 -0.262974
C33   C     C_3   0.763630 0.633033 0.729779 -0.176040
C34   C     C_1   0.535279 0.034209 0.504861 0.029690
C35   C     C_3   0.296050 0.343841 0.272413 -0.222647
C36   C     C_R   0.538793 0.563727 0.834437 0.144281
C37   C     C_R   0.374842 0.467836 0.161035 0.122819
C38   C     C_R   0.550889 0.561911 0.749320 0.553353
C39   C     C_R   0.384851 0.462721 0.247840 0.587042
C40   C     C_R   0.445297 0.437856 0.737373 -0.116736
Cu1   Cu    Cu3+1 0.499990 0.499980 0.580420 0.989503
Cu2   Cu    Cu3+1 0.500010 0.500020 0.419580 1.001806
H1    H     H_    0.459587 0.876589 0.623225 0.190836
H2    H     H_    0.941559 0.504860 0.701819 0.174890
H3    H     H_    0.049604 0.572605 0.647019 0.115149
H4    H     H_    0.145636 0.504250 0.714122 0.192193
H5    H     H_    0.418805 0.788255 0.277388 0.191399
H6    H     H_    0.341973 0.704566 0.322720 0.140259
H7    H     H_    0.468288 0.695881 0.247685 0.192988
H8    H     H_    0.759248 0.325846 0.639155 0.136149
H9    H     H_    0.773062 0.241875 0.702924 0.157359
H10   H     H_    0.705271 0.327905 0.739558 0.202522
H11   H     H_    0.808701 0.836398 0.373757 0.191653
H12   H     H_    0.529863 0.122968 0.375180 0.185499
H13   H     H_    0.805788 0.923821 0.432223 0.136895
H14   H     H_    0.788523 0.925414 0.322655 0.198137
H15   H     H_    0.800991 0.115612 0.652877 0.122935
H16   H     H_    0.700670 0.025116 0.656643 0.170308
H17   H     H_    0.733433 0.085245 0.744832 0.211509
H18   H     H_    0.356640 0.654057 0.933030 0.339343
H19   H     H_    0.152991 0.544218 0.040787 0.353265
H20   H     H_    0.820241 0.593828 0.777069 0.127775
H21   H     H_    0.795705 0.691384 0.751255 0.209508
H22   H     H_    0.810097 0.625047 0.671702 0.141197
H23   H     H_    0.449136 0.738802 0.621800 0.230888
H24   H     H_    0.271875 0.314747 0.328637 0.154860
H25   H     H_    0.414001 0.328910 0.261940 0.121575
H26   H     H_    0.211407 0.320976 0.221309 0.222306
H27   H     H_    0.320901 0.236101 0.823078 0.386803
H28   H     H_    0.013393 0.609352 0.193970 0.373110
H29   H     H_    0.521992 0.260043 0.373457 0.178571
H30   H     H_    0.400024 0.390463 0.699470 0.254012
H31   H     H_    0.702910 0.567147 0.306905 0.253336
H32   H     H_    0.044955 0.396196 0.355761 0.165266
H33   H     H_    0.899445 0.437383 0.282873 0.230884
H34   H     H_    0.847932 0.397081 0.374844 0.124070
N1    N     N_R   0.499960 0.499970 0.701210 -0.260938
N2    N     N_R   0.500040 0.500030 0.298790 -0.263240
O1    O     O_R   0.499990 0.391240 0.567930 -0.552996
O2    O     O_3   0.035546 0.459163 0.605943 -0.583083
O3    O     O_3   0.575133 0.730440 0.361299 -0.561929
O4    O     O_3   0.550349 0.271476 0.653710 -0.528575
O5    O     O_3   0.595086 0.886952 0.366812 -0.573067
O6    O     O_3   0.560158 0.117600 0.655218 -0.540454
O7    O     O_2   0.741720 0.650623 0.931952 -0.193681
O8    O     O_2   0.553043 0.717012 0.836025 -0.255366
O9    O     O_3   0.462548 0.656972 0.963411 -0.487373
O10   O     O_2   0.231691 0.358552 0.064626 -0.200461
O11   O     O_2   0.069975 0.432218 0.141952 -0.231796
O12   O     O_R   0.500010 0.608760 0.432070 -0.546139
O13   O     O_3   0.164045 0.494062 0.016078 -0.475600
O14   O     O_3   0.601772 0.626036 0.713573 -0.542646
O15   O     O_3   0.275387 0.422007 0.282225 -0.535891
O16   O     O_2   0.480059 0.329371 0.940597 -0.250883
O17   O     O_2   0.217615 0.364766 0.885025 -0.213175
O18   O     O_3   0.363563 0.279703 0.795745 -0.495746
O19   O     O_2   0.824825 0.538120 0.075531 -0.231508
O20   O     O_2   0.728080 0.659158 0.115109 -0.202197
O21   O     O_3   0.926082 0.591405 0.220947 -0.507069
O22   O     O_R   0.500000 0.391270 0.432120 -0.584152
O23   O     O_R   0.500000 0.608730 0.567880 -0.538046
O24   O     O_R   0.274830 0.499990 0.552240 -0.563775
O25   O     O_R   0.725170 0.500010 0.447760 -0.563953
O26   O     O_R   0.274840 0.500020 0.416420 -0.514395
O27   O     O_R   0.725160 0.499980 0.583580 -0.587516
O28   O     O_3   0.964220 0.501555 0.386898 -0.555572
S1    S     S_3+6 0.577361 0.649668 0.891096 0.059080
S2    S     S_3+6 0.205346 0.435905 0.096218 0.067093
S3    S     S_3+6 0.375005 0.350751 0.864255 0.048362
S4    S     S_3+6 0.776583 0.582211 0.144886 0.056132

loop_
_geom_bond_atom_site_label_1
_geom_bond_atom_site_label_2
_ccdc_geom_bond_type
C30   H9    S    
O20   S4    D    
Cu1   Cu2   S    
O8    S1    D    
C32   H16   S    
H27   O18   S    
Cu2   O25   S    
C7    C8    T    
C29   H7    S    
C28   H4    S    
Cu1   O27   S    
C29   H5    S    
C12   O12   A    
C10   O25   A    
C19   C21   A    
C24   C26   A    
C33   H22   S    
Cu1   N1    S    
O10   S2    D    
C5    C36   A    
C38   O14   S    
C31   O5    S    
Cu1   O24   S    
C39   O15   S    
C4    S4    S    
C26   C34   S    
C33   H20   S    
C22   C25   A    
C31   H14   S    
C27   H32   S    
C30   H8    S    
C13   O2    S    
C20   O3    S    
C36   S1    S    
C32   H15   S    
C27   H33   S    
C1    O22   A    
H18   O9    S    
C35   O15   S    
C32   O6    S    
C28   H3    S    
C1    C19   S    
C29   H6    S    
C15   H12   S    
C37   S2    S    
C4    C6    A    
O17   S3    D    
C33   O14   S    
C5    C7    S    
C9    O24   A    
C15   C26   A    
C6    C8    S    
C35   H24   S    
O21   S4    S    
C28   H2    S    
Cu2   O12   S    
C30   O4    S    
C2    C4    A    
C39   N2    A    
C29   O3    S    
C2    N2    A    
Cu2   O22   S    
C35   H25   S    
C33   H21   S    
C23   C34   T    
C11   O28   S    
C6    C37   A    
C31   H11   S    
C9    C11   S    
C2    H31   S    
C20   C22   A    
C3    C40   A    
C17   H29   S    
C1    O1    A    
C14   C16   A    
C27   H34   S    
H28   O21   S    
C15   C17   A    
C30   H10   S    
C40   H30   S    
O13   S2    S    
C3    C5    A    
C10   C13   S    
Cu2   O26   S    
Cu1   O1    S    
Cu2   N2    S    
C38   N1    A    
O18   S3    S    
O16   S3    D    
C27   O28   S    
C22   O5    S    
C36   C38   A    
C24   O6    S    
C12   O23   A    
C37   C39   A    
O19   S4    D    
C11   C13   D    
C35   H26   S    
C3    S3    S    
C9    O26   A    
O11   S2    D    
C17   C19   A    
Cu1   O23   S    
C18   C20   A    
C23   C25   S    
C14   C25   A    
C28   O2    S    
O9    S1    S    
C21   O4    S    
C16   C18   A    
C21   C24   A    
C12   C18   S    
C40   N1    A    
C10   O27   A    
C16   H23   S    
C32   H17   S    
C31   H13   S    
O7    S1    D    
H19   O13   S    
C14   H1    S    
