data_mof_unit_6752.cif
_audit_creation_date              2012-12-10T17:52:04-0500
_audit_creation_method            fapswitch 2.2
_symmetry_space_group_name_H-M    P1
_symmetry_Int_Tables_number       1
_space_group_crystal_system       triclinic
_cell_length_a                    14.633723
_cell_length_b                    14.82065
_cell_length_c                    19.289227
_cell_angle_alpha                 76.717417
_cell_angle_beta                  103.22274
_cell_angle_gamma                 114.959957
_cell_volume                      3649.8839965

loop_
_atom_site_label
_atom_site_type_symbol
_atom_type_description
_atom_site_fract_x
_atom_site_fract_y
_atom_site_fract_z
_atom_type_partial_charge
C1    C     C_R   0.879690 0.312405 0.510855 0.808190
C2    C     C_R   0.120609 0.687782 0.488918 0.818358
C3    C     C_R   0.811562 0.205983 0.526300 -0.162376
C4    C     C_R   0.189461 0.795048 0.488457 -0.142691
C5    C     C_R   0.783674 0.044133 0.603549 0.265532
C6    C     C_R   0.210203 0.970482 0.473557 0.263894
C7    C     C_R   0.848982 0.141485 0.577951 -0.269873
C8    C     C_R   0.147606 0.868076 0.475217 -0.313873
C9    C     C_R   0.707072 0.171181 0.497260 0.196435
C10   C     C_R   0.296832 0.825438 0.503864 0.183285
C11   C     C_R   0.638269 0.082411 0.532711 0.017675
C12   C     C_R   0.359202 0.926278 0.512220 -0.006484
C13   C     C_R   0.677424 0.015354 0.582269 0.040926
C14   C     C_R   0.316961 0.000162 0.488696 0.075800
C15   C     C_R   0.531092 0.056815 0.518400 0.074979
C16   C     C_R   0.465000 0.956519 0.538051 0.094765
C17   C     C_R   0.505254 0.890652 0.586294 -0.176727
C18   C     C_R   0.487846 0.129027 0.489017 -0.197105
C19   C     C_R   0.609326 0.920221 0.609091 -0.212631
C20   C     C_R   0.382825 0.101772 0.477992 -0.210017
C21   C     C_R   0.690229 0.623357 0.359679 -0.305025
C22   C     C_R   0.286809 0.337685 0.626028 -0.314754
C23   C     C_R   0.002299 0.503477 0.632160 0.810380
C24   C     C_R   0.999184 0.498888 0.367556 0.804959
C25   C     C_R   0.782846 0.614457 0.387299 0.075547
C26   C     C_R   0.205717 0.368509 0.605439 0.078715
C27   C     C_R   0.719799 0.518603 0.495189 0.020689
C28   C     C_R   0.281365 0.479935 0.505887 0.002350
C29   C     C_R   0.619795 0.515408 0.467400 -0.016818
C30   C     C_R   0.361879 0.445163 0.520418 -0.012830
C31   C     C_R   0.608148 0.572673 0.398728 0.118524
C32   C     C_R   0.365748 0.376875 0.584250 0.113165
C33   C     C_R   0.532277 0.460547 0.504725 0.013026
C34   C     C_R   0.440281 0.478709 0.476044 0.018077
C35   C     C_R   0.428950 0.525220 0.402901 0.149631
C36   C     C_R   0.528998 0.384805 0.566914 0.166871
C37   C     C_R   0.513707 0.575244 0.367245 -0.202825
C38   C     C_R   0.446768 0.346009 0.605427 -0.203564
C39   C     C_R   0.103697 0.559984 0.749786 0.167934
C40   C     C_R   0.904530 0.446859 0.247491 0.171184
C41   C     C_R   0.107805 0.555293 0.824711 0.190226
C42   C     C_R   0.903262 0.456346 0.172479 0.193678
C43   C     C_R   0.015599 0.510799 0.854376 0.020845
C44   C     C_R   0.996511 0.506820 0.144153 0.017341
C45   C     C_R   0.922560 0.467492 0.810738 -0.202175
C46   C     C_R   0.086922 0.554093 0.188970 -0.199994
C47   C     C_R   0.919213 0.467374 0.738336 -0.242771
C48   C     C_R   0.086635 0.550431 0.261491 -0.241715
C49   C     C_R   0.008752 0.511590 0.707657 -0.070697
C50   C     C_R   0.996659 0.497170 0.291298 -0.067045
C51   C     C_R   0.002449 0.508064 0.068826 0.408432
C52   C     C_R   0.012927 0.509685 0.930257 0.407263
Cu1   Cu    Cu3+1 0.081740 0.475680 0.518680 0.925078
Cu2   Cu    Cu3+1 0.918260 0.524320 0.481320 0.927101
H1    H     H_    0.504564 0.613221 0.312404 0.147988
H2    H     H_    0.445647 0.289771 0.652922 0.147754
H3    H     H_    0.279046 0.539952 0.462883 0.152335
H4    H     H_    0.739696 0.488348 0.549752 0.149310
H5    H     H_    0.143600 0.336360 0.636690 0.126606
H6    H     H_    0.844022 0.648138 0.355166 0.131175
H7    H     H_    0.681523 0.666134 0.306653 0.138006
H8    H     H_    0.287362 0.282868 0.674057 0.137450
H9    H     H_    0.851752 0.433362 0.832961 0.161437
H10   H     H_    0.158423 0.593785 0.167752 0.161537
H11   H     H_    0.846397 0.431186 0.706271 0.150491
H12   H     H_    0.156755 0.590375 0.294457 0.145227
H13   H     H_    0.635861 0.866979 0.647001 0.163649
H14   H     H_    0.353668 0.160502 0.457795 0.190288
H15   H     H_    0.065679 0.846009 0.464431 0.174573
H16   H     H_    0.929253 0.168288 0.599644 0.174452
H17   H     H_    0.456101 0.817368 0.610022 0.151155
H18   H     H_    0.534053 0.208051 0.477793 0.189240
N1    N     N_R   0.955465 0.424300 0.969634 -0.239901
N2    N     N_R   0.060378 0.593408 0.029559 -0.241681
N3    N     N_R   0.950835 0.423367 0.037839 -0.228717
N4    N     N_R   0.065102 0.594330 0.961303 -0.229722
N5    N     N_R   0.795420 0.560800 0.453240 -0.183748
N6    N     N_R   0.204580 0.439200 0.546760 -0.181100
O1    O     O_R   0.977910 0.338110 0.524620 -0.580578
O2    O     O_R   0.022090 0.661890 0.475380 -0.581665
O3    O     O_R   0.839850 0.379180 0.493080 -0.591892
O4    O     O_R   0.160150 0.620820 0.506920 -0.585782
O5    O     O_R   0.069040 0.479450 0.615630 -0.581526
O6    O     O_R   0.930960 0.520550 0.384370 -0.584906
O7    O     O_R   0.930990 0.520520 0.584090 -0.585478
O8    O     O_R   0.069010 0.479480 0.415910 -0.579725
C53   C     C_3   0.199022 0.617461 0.714337 -0.852183
H19   H     H_    0.181222 0.658332 0.660502 0.219777
H20   H     H_    0.258273 0.676106 0.745242 0.230666
H21   H     H_    0.231322 0.564474 0.708419 0.243544
C54   C     C_3   0.809992 0.380794 0.281826 -0.871630
H22   H     H_    0.775510 0.427953 0.294323 0.247557
H23   H     H_    0.751681 0.326162 0.247513 0.236686
H24   H     H_    0.830901 0.335003 0.332058 0.221388
C55   C     C_3   0.327205 0.509214 0.355703 -0.889024
H25   H     H_    0.328180 0.492986 0.302468 0.240191
H26   H     H_    0.264024 0.442997 0.378252 0.247775
H27   H     H_    0.312085 0.578598 0.346301 0.216207
C56   C     C_3   0.601303 0.330970 0.590055 -0.912013
H28   H     H_    0.560224 0.250231 0.610771 0.237791
H29   H     H_    0.635271 0.330413 0.544549 0.236397
H30   H     H_    0.661069 0.364855 0.634351 0.226440
C57   C     C_3   0.210059 0.591838 0.872563 -0.855312
H31   H     H_    0.241444 0.675143 0.867749 0.239760
H32   H     H_    0.205431 0.558695 0.929951 0.240423
H33   H     H_    0.264292 0.568361 0.856906 0.232479
C58   C     C_3   0.802549 0.418632 0.123104 -0.852768
H34   H     H_    0.807846 0.456667 0.066666 0.239421
H35   H     H_    0.775449 0.336143 0.124644 0.241610
H36   H     H_    0.744609 0.435814 0.139843 0.231836
N7    N     N_2   0.344925 0.761640 0.498713 -0.426521
H37   H     H_    0.334233 0.697190 0.535830 0.268697
C59   C     C_3   0.352075 0.755765 0.426480 -0.661539
H38   H     H_    0.402631 0.716104 0.429080 0.222032
H39   H     H_    0.385560 0.832574 0.396003 0.233727
H40   H     H_    0.275483 0.714073 0.397786 0.213688
N8    N     N_2   0.672786 0.215126 0.427555 -0.447275
H41   H     H_    0.712683 0.290013 0.410920 0.278160
C60   C     C_3   0.646058 0.154840 0.371038 -0.691445
H42   H     H_    0.614250 0.191615 0.320288 0.229165
H43   H     H_    0.587224 0.078741 0.384983 0.246105
H44   H     H_    0.714790 0.147475 0.362050 0.226159
N9    N     N_2   0.822705 0.977239 0.654356 -0.432511
H45   H     H_    0.803327 0.962273 0.705141 0.246226
C61   C     C_3   0.924230 0.984870 0.652888 -0.688325
H46   H     H_    0.933460 0.915260 0.683472 0.234100
H47   H     H_    0.982435 0.049832 0.678645 0.213197
H48   H     H_    0.936205 0.992817 0.596579 0.237777
N10   N     N_2   0.165118 0.042907 0.456244 -0.434792
H49   H     H_    0.095996 0.021102 0.422824 0.254420
C62   C     C_3   0.160782 0.080309 0.517964 -0.700732
H50   H     H_    0.129541 0.139755 0.499456 0.235783
H51   H     H_    0.238058 0.113709 0.548868 0.238818
H52   H     H_    0.110491 0.018235 0.553827 0.222952

loop_
_geom_bond_atom_site_label_1
_geom_bond_atom_site_label_2
_ccdc_geom_bond_type
C15   C18   A    
C53   H19   S    
C27   C29   A    
C55   H25   S    
N1    N3    A    
N7    H37   S    
C51   N2    A    
C39   C53   S    
C4    C8    A    
C62   H52   S    
C7    H16   S    
Cu2   O6    S    
C55   H27   S    
N9    H45   S    
C39   C41   A    
Cu1   Cu2   S    
C21   C31   A    
C8    H15   S    
C26   N6    A    
C22   C32   A    
C25   N5    A    
Cu1   O1    S    
C51   N3    A    
C59   H38   S    
C3    C7    A    
N8    C60   S    
C43   C52   S    
C23   C49   S    
C54   H23   S    
C1    O3    A    
C15   C16   A    
C29   C33   A    
C33   C36   A    
C9    N8    S    
C34   C35   A    
C27   N5    A    
N9    C61   S    
C11   C15   A    
N7    C59   S    
C12   C16   A    
C16   C17   A    
C61   H48   S    
C58   H34   S    
C19   H13   S    
Cu1   O8    S    
C25   H6    S    
C32   C38   A    
C57   H33   S    
C28   N6    A    
C42   C58   S    
C41   C43   A    
C21   H7    S    
Cu2   N5    S    
C40   C42   A    
C18   H18   S    
C58   H35   S    
C42   C44   A    
C6    N10   S    
C10   C12   A    
C44   C46   A    
Cu2   O2    S    
C45   C47   A    
C24   C50   S    
C46   C48   A    
C30   C34   A    
C14   C20   A    
C47   C49   A    
C52   N1    A    
C54   H22   S    
C5    C7    A    
C13   C19   A    
C6    C8    A    
C62   H51   S    
C28   H3    S    
C45   H9    S    
C41   C57   S    
C46   H10   S    
Cu1   O4    S    
C1    C3    S    
C2    C4    S    
C3    C9    A    
C22   H8    S    
C43   C45   A    
C56   H28   S    
C33   C34   A    
C10   N7    S    
C57   H32   S    
C48   C50   A    
C9    C11   A    
C60   H43   S    
C23   O5    A    
C44   C51   S    
C56   H29   S    
C12   C14   A    
C17   H17   S    
C53   H20   S    
C23   O7    A    
C61   H46   S    
C1    O1    A    
C58   H36   S    
C2    O4    A    
N2    N4    A    
C4    C10   A    
C62   H50   S    
C35   C37   A    
N10   H49   S    
C26   H5    S    
C60   H44   S    
C21   C25   A    
C39   C49   A    
C5    C13   A    
C20   H14   S    
C52   N4    A    
C27   H4    S    
Cu2   O7    S    
C60   H42   S    
C55   H26   S    
C35   C55   S    
C5    N9    S    
Cu1   O5    S    
C59   H40   S    
C36   C38   A    
Cu1   N6    S    
C24   O6    A    
C6    C14   A    
C29   C31   A    
N8    H41   S    
C54   H24   S    
C30   C32   A    
C11   C13   A    
C59   H39   S    
C40   C50   A    
C28   C30   A    
C17   C19   A    
C36   C56   S    
C18   C20   A    
C40   C54   S    
C2    O2    A    
C37   H1    S    
C31   C37   A    
C56   H30   S    
C38   H2    S    
C22   C26   A    
C53   H21   S    
C57   H31   S    
C61   H47   S    
C48   H12   S    
C24   O8    A    
C47   H11   S    
Cu2   O3    S    
N10   C62   S    
