data_mof_unit_25588.cif
_audit_creation_date              2012-12-11T16:04:46-0500
_audit_creation_method            fapswitch 2.2
_symmetry_space_group_name_H-M    P1
_symmetry_Int_Tables_number       1
_space_group_crystal_system       triclinic
_cell_length_a                    19.833821
_cell_length_b                    19.886969
_cell_length_c                    19.905569
_cell_angle_alpha                 107.180864
_cell_angle_beta                  110.432607
_cell_angle_gamma                 110.65808
_cell_volume                      6049.42962474

loop_
_atom_site_label
_atom_site_type_symbol
_atom_type_description
_atom_site_fract_x
_atom_site_fract_y
_atom_site_fract_z
_atom_type_partial_charge
C1    C     C_R   0.069770 0.333971 0.025507 -0.157547
C2    C     C_R   0.001711 0.466890 0.760237 0.088484
C3    C     C_R   0.722541 0.271443 0.773406 0.070691
C4    C     C_R   0.278334 0.551169 0.049043 0.067451
C5    C     C_R   0.194024 0.665472 0.235602 -0.147116
C6    C     C_R   0.796725 0.533929 0.966118 0.106766
C7    C     C_R   0.930110 0.431865 0.159373 -0.142854
C8    C     C_R   0.071488 0.727237 0.998327 -0.218017
C9    C     C_R   0.932781 0.654473 0.919438 0.543264
C10   C     C_R   0.069454 0.501540 0.228980 -0.148100
C11   C     C_R   0.193636 0.735710 0.165755 -0.123307
C12   C     C_R   0.931306 0.453875 0.765627 -0.116041
C13   C     C_R   0.804192 0.469030 0.040839 -0.176548
C14   C     C_R   0.215537 0.741984 0.242178 0.096847
C15   C     C_R   0.777162 0.519514 0.023099 0.080146
C16   C     C_R   0.999509 0.460659 0.232249 0.110587
C17   C     C_R   0.004178 0.728078 0.949157 -0.042940
C18   C     C_3   0.553722 0.558067 0.019252 -0.251263
C19   C     C_3   0.506453 0.520185 0.057190 0.173155
C20   C     C_1   0.363829 0.579909 0.074965 -0.045886
C21   C     C_1   0.735685 0.549400 0.057507 -0.052970
C22   C     C_3   0.558180 0.638935 0.062383 0.169462
C23   C     C_R   0.770524 0.272816 0.843305 -0.191951
C24   C     C_3   0.509960 0.600664 0.099295 0.106301
C25   C     C_3   0.641717 0.669680 0.138312 -0.179476
C26   C     C_3   0.635873 0.587896 0.095463 0.176213
C27   C     C_3   0.592033 0.630460 0.175590 -0.201498
C28   C     C_3   0.588371 0.548849 0.132801 -0.174071
C29   C     C_1   0.433110 0.595913 0.091086 -0.094110
C30   C     C_1   0.695526 0.570978 0.080796 -0.083660
C31   C     C_3   0.917882 0.416249 0.493957 0.011425
C32   C     C_3   0.003288 0.343677 0.499834 -0.047600
C33   C     C_3   0.986661 0.339170 0.415486 -0.470533
C34   C     C_R   0.230112 0.573133 0.002590 -0.193131
C35   C     C_1   0.998873 0.440425 0.294166 -0.051743
C36   C     C_3   0.998708 0.418067 0.549801 0.337539
C37   C     C_3   0.926047 0.432499 0.425208 -0.460210
C38   C     C_3   0.997978 0.422250 0.419388 0.378170
C39   C     C_3   0.081493 0.493556 0.496661 -0.413173
C40   C     C_3   0.078319 0.496039 0.573577 -0.458066
C41   C     C_1   0.998238 0.427969 0.348840 -0.100800
C42   C     C_1   0.001169 0.421899 0.624241 -0.123897
C43   C     C_1   0.002188 0.437507 0.687055 -0.051180
C44   C     C_3   0.341459 0.969353 0.523044 0.090383
C45   C     C_R   0.767757 0.343588 0.775207 0.128060
C46   C     C_3   0.398239 0.024581 0.438451 0.495687
C47   C     C_3   0.463341 0.103988 0.521697 -0.625733
C48   C     C_1   0.638517 0.210163 0.714983 -0.082014
C49   C     C_3   0.368659 0.950163 0.455773 0.109027
C50   C     C_3   0.426111 0.038702 0.606409 0.474587
C51   C     C_3   0.497806 0.081099 0.589415 0.138392
C52   C     C_3   0.525557 0.020790 0.555141 -0.089591
C53   C     C_3   0.446615 0.938654 0.487045 -0.628530
C54   C     C_1   0.571409 0.154181 0.660982 0.029693
C55   C     C_1   0.303792 0.876614 0.379399 0.010187
C56   C     C_R   0.232849 0.507647 0.075910 0.138447
C57   C     C_1   0.259660 0.815155 0.316059 -0.062720
C58   C     C_3   0.095127 0.072637 0.975359 -0.554028
C59   C     C_3   0.973247 0.987882 0.830639 -0.553590
C60   C     C_3   0.977592 0.910352 0.828248 0.538096
C61   C     C_1   0.010073 0.791362 0.928667 -0.013082
C62   C     C_3   0.004483 0.049063 0.918920 0.242455
C63   C     C_3   0.098985 0.995574 0.973509 0.375056
C64   C     C_3   0.009296 0.918916 0.915758 -0.056407
C65   C     C_3   0.950569 0.930925 0.947744 0.577661
C66   C     C_3   0.947406 0.007398 0.948120 -0.536086
C67   C     C_R   0.070953 0.524665 0.835693 -0.128574
C68   C     C_1   0.011691 0.847525 0.917894 0.025569
C69   C     C_1   0.001851 0.122362 0.925388 0.001340
C70   C     C_1   0.000259 0.184161 0.941678 -0.071420
C71   C     C_R   0.929898 0.264375 0.956645 -0.126072
C72   C     C_R   0.999759 0.257734 0.970419 0.101741
H1    H     H_    0.133547 0.348496 0.048561 0.124851
H2    H     H_    0.866642 0.386919 0.137797 0.092497
H3    H     H_    0.136123 0.768195 0.019263 0.127886
H4    H     H_    0.132911 0.520291 0.270812 0.095526
H5    H     H_    0.203185 0.784748 0.150436 0.106559
H6    H     H_    0.796269 0.444212 0.080760 0.113366
H7    H     H_    0.538071 0.527944 0.954906 0.116359
H8    H     H_    0.601681 0.511430 0.161432 0.112133
H9    H     H_    0.867882 0.412837 0.716554 0.115034
H10   H     H_    0.606420 0.660351 0.239462 0.128719
H11   H     H_    0.698788 0.730973 0.171542 0.114163
H12   H     H_    0.865935 0.388913 0.366288 0.139108
H13   H     H_    0.865517 0.352787 0.461601 0.097269
H14   H     H_    0.069683 0.359475 0.532517 0.124036
H15   H     H_    0.922433 0.288939 0.366112 0.167205
H16   H     H_    0.031043 0.325860 0.400309 0.153347
H17   H     H_    0.080927 0.553098 0.606912 0.166665
H18   H     H_    0.748806 0.231828 0.866319 0.111596
H19   H     H_    0.135833 0.500002 0.615727 0.157733
H20   H     H_    0.093753 0.553134 0.497741 0.164509
H21   H     H_    0.938630 0.495121 0.436811 0.171942
H22   H     H_    0.134140 0.485235 0.496658 0.163290
H23   H     H_    0.430736 0.013961 0.403843 0.040722
H24   H     H_    0.436960 0.142529 0.538860 0.223100
H25   H     H_    0.252041 0.618700 0.984293 0.109697
H26   H     H_    0.514848 0.141806 0.515015 0.142598
H27   H     H_    0.438819 0.893370 0.508672 0.201870
H28   H     H_    0.457778 0.915161 0.436136 0.176456
H29   H     H_    0.445449 0.006931 0.639883 0.008174
H30   H     H_    0.556670 0.045369 0.523718 0.135534
H31   H     H_    0.138384 0.986750 0.946895 0.027706
H32   H     H_    0.137066 0.103236 0.955316 0.146865
H33   H     H_    0.908013 0.970585 0.789833 0.208304
H34   H     H_    0.012475 0.017315 0.807784 0.138068
H35   H     H_    0.024982 0.907714 0.811074 -0.033584
H36   H     H_    0.967568 0.050720 0.011070 0.140729
H37   H     H_    0.882060 0.990469 0.907990 0.203592
H38   H     H_    0.978819 0.941802 0.012137 0.061305
H39   H     H_    0.118420 0.117429 0.038850 0.209834
H40   H     H_    0.135597 0.549620 0.851577 0.101820
H41   H     H_    0.865363 0.215702 0.917552 0.100101
H42   H     H_    0.204115 0.649897 0.284410 0.104246
N1    N     N_R   0.043550 0.386750 0.043430 -0.044466
N2    N     N_R   0.842970 0.499770 0.956570 -0.067083
N3    N     N_R   0.956860 0.456580 0.113260 -0.037581
N4    N     N_R   0.042910 0.656420 0.999750 -0.065516
N5    N     N_R   0.956450 0.613250 0.956570 -0.090361
N6    N     N_R   0.043310 0.499740 0.156440 -0.039884
N7    N     N_R   0.156680 0.656400 0.113260 -0.040485
N8    N     N_R   0.843080 0.456590 0.999750 -0.049402
N9    N     N_R   0.956690 0.500260 0.843560 -0.034534
N10   N     N_R   0.843320 0.343600 0.886740 -0.048134
N11   N     N_R   0.156920 0.543410 0.000250 -0.047585
N12   N     N_R   0.843210 0.386780 0.843560 -0.063514
N13   N     N_R   0.157030 0.500230 0.043430 -0.061330
N14   N     N_R   0.043140 0.543420 0.886740 -0.040305
N15   N     N_R   0.957090 0.343580 0.000250 -0.039501
N16   N     N_R   0.156790 0.613220 0.156440 -0.043972
Ni1   Ni    Ni4+2 0.099270 0.499990 0.099040 0.200116
Ni2   Ni    Ni4+2 0.900730 0.500010 0.900960 0.230962
Ni3   Ni    Ni4+2 0.900990 0.400990 0.000000 0.203203
Ni4   Ni    Ni4+2 0.099010 0.599010 0.000000 0.203534
C73   C     C_3   0.758501 0.564021 0.910940 -0.413681
C74   C     C_3   0.668318 0.541733 0.888492 -0.283196
C75   C     C_3   0.626980 0.554623 0.816629 -0.946526
H43   H     H_    0.663196 0.619413 0.831671 0.263058
H44   H     H_    0.623081 0.514137 0.761466 0.266146
H45   H     H_    0.562678 0.539734 0.803083 0.251753
H46   H     H_    0.630583 0.476739 0.872239 0.206185
H47   H     H_    0.668404 0.581744 0.940855 0.204305
H48   H     H_    0.798324 0.631408 0.940195 0.180597
H49   H     H_    0.755874 0.533340 0.853151 0.242517
O1    O     O_3   0.864775 0.611622 0.840498 -0.668506
C76   C     C_3   0.833184 0.660095 0.818920 -0.226556
H50   H     H_    0.864561 0.689516 0.790569 0.203514
H51   H     H_    0.837735 0.706036 0.871082 0.159374
H52   H     H_    0.765933 0.619387 0.771865 0.169941
C77   C     C_3   0.429158 0.434538 0.010297 -0.443364
C78   C     C_3   0.447987 0.368909 0.973565 -0.226886
C79   C     C_3   0.370867 0.283641 0.927422 -0.942973
H53   H     H_    0.349906 0.270123 0.969273 0.259320
H54   H     H_    0.319238 0.279070 0.876716 0.264645
H55   H     H_    0.386240 0.237402 0.901424 0.244794
H56   H     H_    0.468585 0.380150 0.930721 0.195314
H57   H     H_    0.499092 0.371384 0.022911 0.191497
H58   H     H_    0.408290 0.422806 0.052734 0.184342
H59   H     H_    0.378358 0.432279 0.960864 0.192785
C80   C     C_3   0.540194 0.690013 0.022285 -0.437196
C81   C     C_3   0.598713 0.715927 0.989362 -0.242673
C82   C     C_3   0.581912 0.768085 0.950437 -0.931651
H60   H     H_    0.516568 0.733091 0.898622 0.262612
H61   H     H_    0.592343 0.824588 0.996151 0.259955
H62   H     H_    0.625093 0.785721 0.927126 0.245955
H63   H     H_    0.664861 0.751709 0.039851 0.192980
H64   H     H_    0.589459 0.660799 0.942744 0.201924
H65   H     H_    0.474161 0.653098 0.971487 0.188911
H66   H     H_    0.548577 0.745015 0.068218 0.189535
C83   C     C_3   0.955621 0.259918 0.495381 -0.416324
C84   C     C_3   0.861218 0.222765 0.461699 -0.233508
C85   C     C_3   0.821608 0.136846 0.452188 -0.949516
H67   H     H_    0.829707 0.095642 0.408094 0.262133
H68   H     H_    0.850610 0.138468 0.511971 0.264015
H69   H     H_    0.753674 0.111893 0.428974 0.246053
H70   H     H_    0.830116 0.218662 0.401023 0.188538
H71   H     H_    0.849854 0.260897 0.504818 0.190985
H72   H     H_    0.966226 0.215713 0.457370 0.197720
H73   H     H_    0.984814 0.266648 0.557703 0.187800
C86   C     C_3   0.883842 0.464705 0.535048 -0.421278
C87   C     C_3   0.945158 0.556455 0.594167 -0.216853
C88   C     C_3   0.900936 0.598009 0.621684 -0.941433
H74   H     H_    0.851624 0.593207 0.568651 0.256015
H75   H     H_    0.872282 0.569451 0.652286 0.276718
H76   H     H_    0.947017 0.663699 0.665760 0.246323
H77   H     H_    0.994968 0.565338 0.649733 0.201546
H78   H     H_    0.973836 0.586837 0.564713 0.188948
H79   H     H_    0.828307 0.457027 0.485710 0.191725
H80   H     H_    0.860447 0.435679 0.568311 0.185294
O2    O     O_3   0.414784 0.099462 0.652215 -0.615996
C89   C     C_3   0.439092 0.109172 0.731669 -0.305990
H81   H     H_    0.506240 0.128395 0.765764 0.142122
H82   H     H_    0.399392 0.051832 0.729567 0.128096
H83   H     H_    0.430350 0.157829 0.765246 0.182604
C90   C     C_3   0.277859 0.001024 0.498657 -0.250052
C91   C     C_3   0.226781 0.001792 0.542414 -0.310329
C92   C     C_3   0.183129 0.049723 0.526087 -0.911062
H84   H     H_    0.230000 0.114869 0.551401 0.270082
H85   H     H_    0.141398 0.023165 0.459463 0.261737
H86   H     H_    0.144867 0.046880 0.555840 0.246510
H87   H     H_    0.177587 0.938388 0.519722 0.182709
H88   H     H_    0.266923 0.029322 0.609236 0.244842
H89   H     H_    0.310913 0.063986 0.508724 0.238617
H90   H     H_    0.231133 0.961652 0.432375 0.194479
O3    O     O_3   0.330077 0.030926 0.391892 -0.625026
C93   C     C_3   0.350415 0.072782 0.349321 -0.266734
H91   H     H_    0.357885 0.036073 0.301135 0.130169
H92   H     H_    0.407679 0.134262 0.391278 0.139030
H93   H     H_    0.298148 0.081731 0.318755 0.176440
C94   C     C_3   0.594504 0.013199 0.615370 -0.376038
C95   C     C_3   0.583032 0.998433 0.683043 -0.244590
C96   C     C_3   0.656294 0.994503 0.737872 -0.938122
H94   H     H_    0.661449 0.944004 0.701697 0.266749
H95   H     H_    0.715671 0.053285 0.767903 0.258628
H96   H     H_    0.646282 0.983186 0.785921 0.250034
H97   H     H_    0.580029 0.048939 0.722076 0.189051
H98   H     H_    0.525205 0.939746 0.655911 0.186293
H99   H     H_    0.600018 0.962948 0.579095 0.192349
H100  H     H_    0.655591 0.070156 0.644748 0.185380
C97   C     C_3   0.292394 0.891860 0.530451 -0.436592
C98   C     C_3   0.323387 0.831811 0.534766 -0.281397
C99   C     C_3   0.268944 0.766423 0.548014 -0.949550
H101  H     H_    0.271403 0.794948 0.606602 0.259932
H102  H     H_    0.203050 0.731184 0.497172 0.262540
H103  H     H_    0.292192 0.723384 0.550165 0.252659
H104  H     H_    0.319219 0.799233 0.476284 0.209523
H105  H     H_    0.387849 0.864431 0.586533 0.189252
H106  H     H_    0.287952 0.914074 0.586091 0.191690
H107  H     H_    0.227504 0.854037 0.477162 0.199418
C100  C     C_3   0.730535 0.381294 0.729172 -0.442236
C101  C     C_3   0.692830 0.332153 0.636766 -0.265301
C102  C     C_3   0.679447 0.382952 0.594643 -0.925613
H108  H     H_    0.637948 0.404081 0.606719 0.267062
H109  H     H_    0.740299 0.436869 0.617004 0.266181
H110  H     H_    0.649807 0.345176 0.527775 0.241773
H111  H     H_    0.733816 0.311178 0.623192 0.186505
H112  H     H_    0.631546 0.277160 0.610618 0.204772
H113  H     H_    0.680925 0.384685 0.741388 0.188375
H114  H     H_    0.779481 0.445078 0.752883 0.229587
O4    O     O_3   0.897676 0.838759 0.772671 -0.555216
C103  C     C_3   0.885308 0.808456 0.693141 -0.248293
H115  H     H_    0.892621 0.855399 0.672377 0.128599
H116  H     H_    0.820619 0.755712 0.650675 0.171620
H117  H     H_    0.928768 0.786179 0.689811 0.126209
O5    O     O_3   0.131208 0.004205 0.053452 -0.602274
C104  C     C_3   0.219107 0.041935 0.093838 -0.234637
H118  H     H_    0.248532 0.101623 0.094876 0.130770
H119  H     H_    0.238235 0.000770 0.065019 0.128355
H120  H     H_    0.242578 0.053902 0.157971 0.159076
O6    O     O_3   0.868847 0.860840 0.897564 -0.565578
C105  C     C_3   0.828647 0.850637 0.943012 -0.316798
H121  H     H_    0.826956 0.906310 0.973420 0.142921
H122  H     H_    0.859529 0.834234 0.988734 0.131904
H123  H     H_    0.763127 0.799398 0.900741 0.180144
C106  C     C_3   0.270164 0.500031 0.151531 -0.443564
C107  C     C_3   0.310311 0.447034 0.142002 -0.256518
C108  C     C_3   0.325003 0.419763 0.207202 -0.936050
H124  H     H_    0.365694 0.473812 0.269024 0.264825
H125  H     H_    0.264508 0.380819 0.200768 0.260634
H126  H     H_    0.356189 0.383635 0.200146 0.247536
H127  H     H_    0.270276 0.392023 0.080849 0.190603
H128  H     H_    0.371562 0.482909 0.148268 0.202569
H129  H     H_    0.318417 0.562126 0.203847 0.184171
H130  H     H_    0.220932 0.474430 0.166205 0.192336

loop_
_geom_bond_atom_site_label_1
_geom_bond_atom_site_label_2
_ccdc_geom_bond_type
N11   Ni4   S    
C58   C62   S    
C46   O3    S    
C84   C85   S    
C49   C53   S    
C35   C41   T    
O2    C89   S    
C31   H13   S    
C107  H128  S    
N9    Ni2   S    
N6    Ni1   S    
C7    N3    A    
C36   C42   S    
C18   C26   S    
C24   C27   S    
N7    N16   A    
C2    C12   A    
C19   C77   S    
C61   C68   T    
O1    C76   S    
C87   H78   S    
C31   C86   S    
C8    N4    A    
C73   C74   S    
N8    Ni3   S    
N1    Ni1   S    
O3    C93   S    
C53   H27   S    
C48   C54   T    
C75   H44   S    
C46   C49   S    
C52   H30   S    
C59   H33   S    
C47   H26   S    
N2    N8    A    
C97   H107  S    
C83   H72   S    
C78   H57   S    
C106  H130  S    
C33   H16   S    
C108  H124  S    
C86   H80   S    
C16   C35   S    
C73   H49   S    
C38   C39   S    
C5    H42   S    
C11   C14   A    
C93   H92   S    
C105  H122  S    
C90   H89   S    
C83   C84   S    
C92   H84   S    
C88   H75   S    
C82   H62   S    
C3    C48   S    
C34   H25   S    
C18   C19   S    
C97   H106  S    
C103  H115  S    
C56   N13   A    
C92   H85   S    
C98   C99   S    
C24   C29   S    
C102  H108  S    
C36   C40   S    
C74   H47   S    
C11   H5    S    
C17   C61   S    
C6    C15   A    
C46   C47   S    
C3    C23   A    
C46   H23   S    
C18   H7    S    
C59   C62   S    
C22   C25   S    
C44   C97   S    
C13   H6    S    
C80   H66   S    
C79   H55   S    
C37   H12   S    
C101  H111  S    
C60   O4    S    
N7    Ni4   S    
C4    C34   A    
C86   H79   S    
C45   N12   A    
C21   C30   T    
C82   H61   S    
C81   H63   S    
N4    Ni4   S    
C85   H69   S    
C75   H43   S    
C73   H48   S    
C95   H97   S    
C71   H41   S    
C78   C79   S    
N3    Ni3   S    
C59   C60   S    
C40   H19   S    
C107  H127  S    
N4    N5    A    
C52   C94   S    
C100  H114  S    
C11   N7    A    
C10   H4    S    
C95   H98   S    
C97   C98   S    
C8    H3    S    
C85   H68   S    
C81   C82   S    
C7    H2    S    
C76   H51   S    
C20   C29   T    
C53   H28   S    
C63   O5    S    
C75   H45   S    
C104  H119  S    
C1    C72   A    
C77   H59   S    
C62   C66   S    
C51   C52   S    
C59   H34   S    
C90   C91   S    
C105  H121  S    
C87   H77   S    
C38   C41   S    
C63   H31   S    
C2    C67   A    
N3    N6    A    
C39   C40   S    
C93   H91   S    
C74   C75   S    
C105  H123  S    
C47   C51   S    
C90   H90   S    
C99   H103  S    
C50   C51   S    
C25   C26   S    
C87   C88   S    
C98   H104  S    
C3    C45   A    
C44   C49   S    
C94   H100  S    
C89   H81   S    
C62   C69   S    
C103  H116  S    
C88   H76   S    
C92   H86   S    
C89   H82   S    
C39   H22   S    
C37   C38   S    
N14   Ni4   S    
C71   N15   A    
C76   H52   S    
C102  H110  S    
C95   C96   S    
N2    Ni2   S    
C96   H96   S    
N12   Ni2   S    
C2    C43   S    
C47   H24   S    
C32   H14   S    
C107  C108  S    
C102  H109  S    
N5    Ni2   S    
C23   H18   S    
C37   H21   S    
C78   H56   S    
C96   H94   S    
C99   H102  S    
C19   C28   S    
C6    N2    A    
C5    C14   A    
C81   H64   S    
C60   H35   S    
N15   Ni3   S    
N10   Ni3   S    
C9    C17   A    
C5    N16   A    
C79   H54   S    
C26   C30   S    
C13   C15   A    
C25   C27   S    
C40   H17   S    
C22   C24   S    
C15   C21   S    
C100  H113  S    
C6    C73   S    
C58   H32   S    
C45   C100  S    
C28   H8    S    
C91   H88   S    
C106  C107  S    
C64   C68   S    
C39   H20   S    
C101  C102  S    
C85   H67   S    
C65   O6    S    
N10   N12   A    
C76   H50   S    
N1    N15   A    
C44   C50   S    
C58   C63   S    
C14   C57   S    
C32   C83   S    
C104  H118  S    
C7    C16   A    
C44   C90   S    
C77   H58   S    
C103  H117  S    
C18   C22   S    
C27   H10   S    
C33   C38   S    
C66   H36   S    
C91   C92   S    
C49   C55   S    
C58   H39   S    
C32   C36   S    
C23   N10   A    
C82   H60   S    
C84   H70   S    
C98   H105  S    
C26   C28   S    
C8    C17   A    
C94   H99   S    
C60   C64   S    
C83   H73   S    
C101  H112  S    
C108  H126  S    
C1    H1    S    
C32   C33   S    
C51   C54   S    
C55   C57   T    
C19   C24   S    
C33   H15   S    
C89   H83   S    
C100  C101  S    
C65   C66   S    
C10   C16   A    
C67   N14   A    
C80   C81   S    
C25   H11   S    
C13   N8    A    
C93   H93   S    
N9    N14   A    
C106  H129  S    
C12   N9    A    
C22   C80   S    
C34   N11   A    
C9    N5    A    
C64   C65   S    
C9    O1    S    
O4    C103  S    
C74   H46   S    
C12   H9    S    
N16   Ni1   S    
C80   H65   S    
C66   H37   S    
C69   C70   T    
C50   O2    S    
N13   Ni1   S    
C65   H38   S    
O6    C105  S    
C10   N6    A    
C96   H95   S    
C63   C64   S    
C4    C20   S    
C31   C37   S    
C67   H40   S    
C71   C72   A    
C79   H53   S    
C50   H29   S    
C94   C95   S    
C42   C43   T    
C56   C106  S    
C27   C28   S    
N11   N13   A    
C31   C36   S    
C84   H71   S    
C70   C72   S    
C1    N1    A    
C108  H125  S    
C91   H87   S    
O5    C104  S    
C99   H101  S    
C4    C56   A    
C86   C87   S    
C88   H74   S    
C52   C53   S    
C77   C78   S    
C104  H120  S    
