data_mof_unit_58628.cif
_audit_creation_date              2012-12-10T17:02:02-0500
_audit_creation_method            fapswitch 2.2
_symmetry_space_group_name_H-M    P1
_symmetry_Int_Tables_number       1
_space_group_crystal_system       triclinic
_cell_length_a                    10.919233
_cell_length_b                    10.938796
_cell_length_c                    9.859203
_cell_angle_alpha                 109.46895
_cell_angle_beta                  100.673797
_cell_angle_gamma                 90.993379
_cell_volume                      1087.09101137

loop_
_atom_site_label
_atom_site_type_symbol
_atom_type_description
_atom_site_fract_x
_atom_site_fract_y
_atom_site_fract_z
_atom_type_partial_charge
C1    C     C_R   0.497889 0.254308 0.443239 0.852837
C2    C     C_R   0.085978 0.574294 0.634361 0.038183
C3    C     C_R   0.127400 0.522043 0.499629 -0.162077
C4    C     C_R   0.038598 0.462860 0.367886 -0.066878
C5    C     C_R   0.914375 0.436502 0.371903 -0.084760
C6    C     C_R   0.873582 0.481916 0.506139 -0.170492
C7    C     C_2   0.515472 0.116632 0.417598 -0.418387
C8    C     C_2   0.579875 0.075207 0.522911 0.436826
C9    C     C_2   0.533519 0.885805 0.584897 -0.318646
C10   C     C_2   0.580208 0.935457 0.495331 -0.082442
C11   C     C_2   0.497966 0.519399 0.080371 0.069107
C12   C     C_R   0.262427 0.509931 0.500356 0.811195
C13   C     C_2   0.487717 0.488690 0.915945 0.022727
C14   C     C_R   0.517348 0.745852 0.557296 0.872972
C15   C     C_R   0.737880 0.491377 0.500962 0.777919
C16   C     C_R   0.161169 0.666765 0.762511 -0.050723
C17   C     C_R   0.130183 0.691351 0.900916 -0.074107
C18   C     C_R   0.017282 0.635333 0.909699 -0.025313
C19   C     C_R   0.935851 0.558895 0.781446 -0.215899
C20   C     C_R   0.963446 0.537019 0.640572 0.067430
Cu1   Cu    Cu3+1 0.521920 0.521810 0.644910 0.966835
Cu2   Cu    Cu3+1 0.478080 0.478190 0.355090 1.007753
H1    H     H_    0.476855 0.046976 0.309068 0.150544
H2    H     H_    0.544229 0.611964 0.153072 0.128556
H3    H     H_    0.619061 0.627131 0.937122 0.205788
H4    H     H_    0.854254 0.513244 0.796929 0.168402
H5    H     H_    0.503498 0.951276 0.680436 0.197538
N1    N     N_2   0.445130 0.445430 0.137370 -0.026922
N2    N     N_2   0.554930 0.554500 0.862630 -0.337906
O1    O     O_R   0.511700 0.332330 0.577400 -0.543398
O2    O     O_R   0.474680 0.295500 0.332650 -0.562817
O3    O     O_R   0.338160 0.518420 0.622400 -0.582381
O4    O     O_R   0.301140 0.481590 0.377650 -0.600803
O5    O     O_R   0.525320 0.704500 0.667350 -0.556649
O6    O     O_R   0.488300 0.667670 0.422600 -0.581200
O7    O     O_R   0.698860 0.518410 0.622350 -0.609674
O8    O     O_R   0.661840 0.481580 0.377600 -0.555144
C21   C     C_1   0.067763 0.442429 0.225180 0.295856
N3    N     N_1   0.086446 0.427944 0.109578 -0.354441
C22   C     C_1   0.394264 0.388579 0.815322 0.483518
N4    N     N_1   0.319225 0.308261 0.734919 -0.322723
O9    O     O_3   0.431142 0.317683 0.055246 -0.505692
C23   C     C_3   0.307762 0.272396 0.046938 0.174497
H6    H     H_    0.242687 0.316272 0.979345 0.142777
H7    H     H_    0.285099 0.296463 0.157187 0.197589
C24   C     C_3   0.288311 0.125107 0.972350 -0.357048
H8    H     H_    0.295461 0.099935 0.855366 0.242537
H9    H     H_    0.361690 0.077996 0.026891 0.249311
C25   C     C_3   0.159543 0.074449 0.980909 -0.898991
H10   H     H_    0.157563 0.082079 0.095697 0.263686
H11   H     H_    0.138194 0.971274 0.909270 0.267556
H12   H     H_    0.085464 0.131291 0.944229 0.264037
C26   C     C_1   0.249558 0.759381 0.748697 0.263640
N5    N     N_1   0.317729 0.836580 0.739264 -0.319000
C27   C     C_1   0.213918 0.774468 0.033464 0.241660
N6    N     N_1   0.280836 0.840398 0.139215 -0.294890
C28   C     C_1   0.977129 0.665182 0.048169 0.270946
N7    N     N_1   0.944604 0.689750 0.158798 -0.257396
C29   C     C_1   0.830356 0.356855 0.236476 0.286084
N8    N     N_1   0.764047 0.293479 0.128702 -0.234158
C30   C     C_1   0.643895 0.860164 0.382525 0.216799
N9    N     N_1   0.697561 0.802622 0.293963 -0.287467
O10   O     O_3   0.631721 0.159188 0.663593 -0.576837
C31   C     C_3   0.748150 0.218857 0.664289 0.131037
H13   H     H_    0.766731 0.310049 0.760668 0.174172
H14   H     H_    0.747184 0.247013 0.565355 0.103822
C32   C     C_3   0.855229 0.132945 0.681431 -0.397321
H15   H     H_    0.859099 0.110024 0.783741 0.239586
H16   H     H_    0.839098 0.040307 0.586822 0.225890
C33   C     C_3   0.980461 0.201192 0.687513 -0.879049
H17   H     H_    0.977177 0.228289 0.587911 0.261663
H18   H     H_    0.055644 0.134826 0.692203 0.272769
H19   H     H_    0.003429 0.290314 0.786607 0.267584

loop_
_geom_bond_atom_site_label_1
_geom_bond_atom_site_label_2
_ccdc_geom_bond_type
C14   O5    A    
C9    C14   S    
C19   H4    S    
C26   N5    T    
C33   H17   S    
Cu1   O5    S    
C2    C16   A    
C23   H7    S    
Cu1   O1    S    
C17   C27   S    
C18   C28   S    
C19   C20   A    
C27   N6    T    
C32   C33   S    
C31   H13   S    
C25   H12   S    
C33   H19   S    
C30   N9    T    
C2    C3    A    
C12   O4    A    
C29   N8    T    
C15   O7    A    
Cu1   O7    S    
Cu2   N1    S    
Cu1   Cu2   S    
C12   O3    A    
C32   H16   S    
Cu2   O6    S    
C11   C13   S    
C24   C25   S    
C28   N7    T    
C5    C6    A    
C11   N1    D    
C7    H1    S    
C4    C5    A    
C9    C10   D    
C13   N2    D    
C22   N4    T    
Cu1   O3    S    
C4    C21   S    
C17   C18   A    
C23   H6    S    
H3    N2    S    
C21   N3    T    
C23   C24   S    
C24   H9    S    
C10   C30   S    
C7    C8    D    
Cu2   O2    S    
C5    C29   S    
C8    O10   S    
C2    C20   A    
C32   H15   S    
C31   C32   S    
C11   H2    S    
C1    O2    A    
C6    C20   A    
C9    H5    S    
C8    C10   S    
C25   H10   S    
O9    C23   S    
N1    O9    S    
C14   O6    A    
Cu2   O4    S    
C18   C19   A    
C24   H8    S    
C1    O1    A    
C13   C22   S    
C33   H18   S    
C3    C12   S    
C1    C7    S    
C6    C15   S    
C16   C26   S    
Cu2   O8    S    
Cu1   N2    S    
C15   O8    A    
C3    C4    A    
C31   H14   S    
C16   C17   A    
C25   H11   S    
O10   C31   S    
