data_mof_unit_6266.cif
_audit_creation_date              2012-12-10T18:02:10-0500
_audit_creation_method            fapswitch 2.2
_symmetry_space_group_name_H-M    P1
_symmetry_Int_Tables_number       1
_space_group_crystal_system       triclinic
_cell_length_a                    10.894513
_cell_length_b                    9.666784
_cell_length_c                    23.441526
_cell_angle_alpha                 91.302298
_cell_angle_beta                  94.287761
_cell_angle_gamma                 91.115995
_cell_volume                      2460.64120024

loop_
_atom_site_label
_atom_site_type_symbol
_atom_type_description
_atom_site_fract_x
_atom_site_fract_y
_atom_site_fract_z
_atom_type_partial_charge
C1    C     C_R   0.262376 0.498816 0.499576 0.934357
C2    C     C_R   0.737552 0.501204 0.501390 0.952231
C3    C     C_R   0.586037 0.562975 0.240468 0.283309
C4    C     C_R   0.364069 0.459097 0.751855 0.259728
C5    C     C_R   0.590719 0.563429 0.300620 0.136964
C6    C     C_R   0.373788 0.458883 0.692430 0.150006
C7    C     C_R   0.494810 0.499056 0.328318 -0.271249
C8    C     C_R   0.484896 0.502471 0.670563 -0.258894
C9    C     C_R   0.391218 0.442370 0.295536 0.391547
C10   C     C_R   0.586440 0.542291 0.708183 0.388097
C11   C     C_R   0.388552 0.439626 0.235808 0.201862
C12   C     C_R   0.574869 0.548194 0.767372 0.222540
C13   C     C_R   0.485308 0.500004 0.208274 0.087113
C14   C     C_R   0.464526 0.504270 0.789207 0.093922
C15   C     C_R   0.055409 0.389641 0.474094 0.301481
C16   C     C_R   0.944545 0.599049 0.535628 0.320973
C17   C     C_R   0.927037 0.400568 0.468948 0.328662
C18   C     C_R   0.072386 0.605572 0.529960 0.350244
C19   C     C_R   0.871665 0.502178 0.501567 -0.295017
C20   C     C_R   0.128194 0.497606 0.500937 -0.298978
C21   C     C_R   0.428015 0.069428 0.460281 0.275261
C22   C     C_R   0.572087 0.930513 0.539733 0.302028
C23   C     C_R   0.574657 0.077912 0.538813 0.294927
C24   C     C_R   0.426587 0.922115 0.460684 0.265203
C25   C     C_R   0.498754 0.499075 0.391156 0.904401
C26   C     C_R   0.496994 0.501011 0.608601 0.947194
C27   C     C_R   0.503579 0.385919 0.877995 0.661819
C28   C     C_R   0.422990 0.604294 0.118461 0.646787
C29   C     C_R   0.402219 0.602543 0.878049 0.672122
C30   C     C_R   0.521830 0.386162 0.118594 0.685803
C31   C     C_R   0.392066 0.597449 0.937629 -0.162007
C32   C     C_R   0.507414 0.375885 0.058313 -0.165900
C33   C     C_R   0.444296 0.484842 0.967662 -0.124836
C34   C     C_R   0.449834 0.485227 0.028133 -0.123802
C35   C     C_R   0.494917 0.374239 0.937383 -0.165865
C36   C     C_R   0.401632 0.597444 0.058422 -0.162756
C37   C     C_R   0.331093 0.700814 0.967910 0.379287
C38   C     C_R   0.546919 0.259099 0.027546 0.403506
C39   C     C_R   0.333706 0.699098 0.027857 0.388629
C40   C     C_R   0.537335 0.256747 0.967436 0.413587
Cu1   Cu    Cu3+1 0.500000 0.640660 0.500000 1.088266
Cu2   Cu    Cu3+1 0.500000 0.359340 0.500000 1.082491
N1    N     N_R   0.456686 0.497753 0.849972 -0.426902
N2    N     N_R   0.479225 0.498333 0.146878 -0.429211
N3    N     N_R   0.500000 0.852070 0.500000 -0.247120
N4    N     N_R   0.500000 0.147930 0.500000 -0.252953
O1    O     O_R   0.319640 0.618740 0.500000 -0.543768
O2    O     O_R   0.680360 0.381260 0.500000 -0.527397
O3    O     O_R   0.680360 0.618740 0.500000 -0.524505
O4    O     O_R   0.319640 0.381260 0.500000 -0.536297
O5    O     O_R   0.499960 0.618810 0.417880 -0.536842
O6    O     O_R   0.500040 0.381190 0.582120 -0.555107
O7    O     O_R   0.500040 0.618810 0.582120 -0.530567
O8    O     O_R   0.499960 0.381190 0.417880 -0.529659
O9    O     O_2   0.561714 0.288961 0.848390 -0.465149
O10   O     O_2   0.390161 0.716592 0.148504 -0.475376
O11   O     O_2   0.360521 0.711942 0.848205 -0.485982
O12   O     O_2   0.578356 0.285943 0.149130 -0.458511
O13   O     O_3   0.275165 0.810116 0.939846 -0.570581
C41   C     C_3   0.153734 0.771193 0.919470 -0.122470
H1    H     H_    0.140858 0.658704 0.908379 0.151008
H2    H     H_    0.129456 0.828585 0.879900 0.216131
H3    H     H_    0.088357 0.802646 0.951138 0.162788
O14   O     O_3   0.604437 0.150724 0.055671 -0.520828
C42   C     C_3   0.516034 0.048583 0.067778 -0.053818
H4    H     H_    0.422644 0.089748 0.073569 0.146905
H5    H     H_    0.547642 0.998809 0.108301 0.229629
H6    H     H_    0.510287 0.966474 0.033830 0.155902
O15   O     O_3   0.271395 0.800765 0.055711 -0.548079
C43   C     C_3   0.157994 0.744236 0.070950 -0.129936
H7    H     H_    0.171436 0.675645 0.108150 0.198291
H8    H     H_    0.107015 0.685163 0.035064 0.111679
H9    H     H_    0.099024 0.830312 0.083539 0.206547
O16   O     O_3   0.574357 0.139430 0.939035 -0.522057
C44   C     C_3   0.468702 0.059125 0.919900 -0.106362
H10   H     H_    0.498061 0.953353 0.908629 0.225040
H11   H     H_    0.421459 0.102676 0.880945 0.198076
H12   H     H_    0.401330 0.049440 0.953105 0.136839
Br1   Br    Br    0.716389 0.647198 0.201330 -0.357636
Br2   Br    Br    0.214756 0.395794 0.782996 -0.421930
Br3   Br    Br    0.727882 0.652629 0.344681 -0.437356
Br4   Br    Br    0.235867 0.396365 0.641559 -0.482105
O17   O     O_3   0.293154 0.384633 0.321262 -0.505478
C45   C     C_3   0.210018 0.489044 0.333706 -0.111580
H13   H     H_    0.192911 0.561932 0.297930 0.175274
H14   H     H_    0.242960 0.545871 0.373622 0.148656
H15   H     H_    0.120496 0.439148 0.341347 0.187250
O18   O     O_3   0.698329 0.571416 0.686721 -0.558777
C46   C     C_3   0.773469 0.453716 0.691539 -0.192823
H16   H     H_    0.812477 0.433920 0.649855 0.189583
H17   H     H_    0.725476 0.356179 0.703027 0.189912
H18   H     H_    0.851220 0.475747 0.724005 0.216621
Br5   Br    Br    0.250117 0.354253 0.191736 -0.402630
Br6   Br    Br    0.710606 0.615052 0.818396 -0.407024
O19   O     O_3   0.109140 0.276678 0.450134 -0.531164
C47   C     C_3   0.094868 0.162927 0.485939 -0.161503
H19   H     H_    0.996907 0.140086 0.493311 0.186694
H20   H     H_    0.129370 0.070036 0.464449 0.184417
H21   H     H_    0.149914 0.179305 0.527548 0.173718
O20   O     O_3   0.888635 0.687913 0.572631 -0.548086
C48   C     C_3   0.948393 0.688146 0.628516 -0.077904
H22   H     H_    0.990169 0.587221 0.639982 0.152812
H23   H     H_    0.018393 0.772967 0.634297 0.199519
H24   H     H_    0.880445 0.711563 0.659895 0.236382
O21   O     O_3   0.853915 0.304455 0.436348 -0.552026
C49   C     C_3   0.875217 0.314514 0.377870 -0.134884
H25   H     H_    0.949113 0.243506 0.366797 0.218914
H26   H     H_    0.789936 0.281115 0.351985 0.197058
H27   H     H_    0.898277 0.421749 0.365217 0.150428
O22   O     O_3   0.145341 0.709194 0.557589 -0.545646
C50   C     C_3   0.123180 0.835097 0.529812 -0.224323
H28   H     H_    0.200334 0.908314 0.542947 0.174818
H29   H     H_    0.036977 0.881979 0.542753 0.189076
H30   H     H_    0.118779 0.822720 0.482374 0.177237
Br7   Br    Br    0.332409 0.154558 0.399874 -0.287763
Br8   Br    Br    0.667537 0.844973 0.600291 -0.321034
Br9   Br    Br    0.691138 0.176778 0.591291 -0.443747
Br10  Br    Br    0.315869 0.823643 0.405400 -0.467351

loop_
_geom_bond_atom_site_label_1
_geom_bond_atom_site_label_2
_ccdc_geom_bond_type
C38   C40   A    
C48   H22   S    
C6    Br4   S    
C8    C26   S    
Cu1   Cu2   S    
C50   H28   S    
C45   H15   S    
C21   Br7   S    
C3    Br1   S    
C28   O10   S    
C10   O18   S    
C41   H3    S    
C24   N3    A    
C45   H14   S    
C4    Br2   S    
C26   O6    A    
C15   O19   S    
C27   O9    S    
C49   H25   S    
C47   H21   S    
C11   C13   A    
C5    Br3   S    
C41   H2    S    
Cu2   N4    S    
O22   C50   S    
C33   C35   A    
O19   C47   S    
C42   H5    S    
C47   H20   S    
C31   C33   A    
C43   H7    S    
C32   C38   A    
C46   H17   S    
C1    O4    A    
C18   C20   A    
C3    C13   A    
C11   Br5   S    
C22   Br8   S    
O13   C41   S    
C48   H23   S    
C23   N4    A    
C29   N1    A    
C30   N2    A    
Cu1   O3    S    
C38   O14   S    
Cu1   O1    S    
C15   C20   A    
O16   C44   S    
C25   O8    A    
C4    C6    A    
C5    C7    A    
C1    O1    A    
C6    C8    A    
C27   C35   A    
C28   N2    A    
C31   C37   A    
C41   H1    S    
C32   C34   A    
C44   H10   S    
C25   O5    A    
C2    O3    A    
C17   O21   S    
C9    C11   A    
O17   C45   S    
C29   C31   A    
C42   H6    S    
C47   H19   S    
C43   H9    S    
C33   C34   A    
C39   O15   S    
C50   H29   S    
Cu2   O2    S    
C45   H13   S    
C46   H18   S    
C44   H11   S    
Cu1   O7    S    
C37   O13   S    
C10   C12   A    
Cu2   O4    S    
C16   C18   A    
C12   C14   A    
C48   H24   S    
C26   O7    A    
C21   N4    A    
C15   C17   A    
C27   N1    A    
C1    C20   S    
C2    C19   S    
C36   C39   A    
C16   O20   S    
C18   O22   S    
C29   O11   S    
C3    C5    A    
C23   Br9   S    
C9    O17   S    
O21   C49   S    
C24   Br10  S    
C7    C25   S    
C2    O2    A    
O14   C42   S    
C35   C40   A    
C37   C39   A    
Cu2   O8    S    
C30   C32   A    
C12   Br6   S    
C49   H26   S    
C16   C19   A    
C30   O12   S    
O20   C48   S    
C17   C19   A    
C40   O16   S    
C50   H30   S    
C34   C36   A    
C4    C14   A    
O15   C43   S    
C44   H12   S    
C7    C9    A    
C22   N3    A    
O18   C46   S    
C28   C36   A    
C8    C10   A    
C42   H4    S    
C21   C24   A    
Cu1   N3    S    
C22   C23   A    
C43   H8    S    
C46   H16   S    
Cu1   O5    S    
C13   N2    S    
Cu2   O6    S    
C14   N1    S    
C49   H27   S    
