data_mof_unit_53769.cif
_audit_creation_date              2013-03-05T15:45:58-0500
_audit_creation_method            fapswitch 2.2
_symmetry_space_group_name_H-M    P1
_symmetry_Int_Tables_number       1
_space_group_crystal_system       triclinic
_cell_length_a                    15.307347
_cell_length_b                    14.744843
_cell_length_c                    10.184043
_cell_angle_alpha                 90.675652
_cell_angle_beta                  84.994204
_cell_angle_gamma                 89.926552
_cell_volume                      2289.65115094

loop_
_atom_site_label
_atom_site_type_symbol
_atom_site_description
_atom_site_fract_x
_atom_site_fract_y
_atom_site_fract_z
_atom_type_partial_charge
O1    O     O_R   0.398960 0.091100 0.433300 -0.530620
O2    O     O_R   0.601040 0.908900 0.566700 -0.563652
O3    O     O_R   0.601040 0.091100 0.566700 -0.531106
O4    O     O_R   0.398960 0.908900 0.433300 -0.553342
O5    O     O_R   0.898960 0.591100 0.433300 -0.545939
O6    O     O_R   0.101040 0.408900 0.566700 -0.568627
O7    O     O_R   0.101040 0.591100 0.566700 -0.522771
O8    O     O_R   0.898960 0.408900 0.433300 -0.552497
O9    O     O_R   0.430710 0.091090 0.646210 -0.622690
O10   O     O_R   0.569290 0.908910 0.353790 -0.625169
O11   O     O_R   0.569290 0.091090 0.353790 -0.623747
O12   O     O_R   0.430710 0.908910 0.646210 -0.649183
O13   O     O_R   0.930710 0.591090 0.646210 -0.608393
O14   O     O_R   0.069290 0.408910 0.353790 -0.628996
O15   O     O_R   0.069290 0.591090 0.353790 -0.615592
O16   O     O_R   0.930710 0.408910 0.646210 -0.646453
C1    C     C_R   0.388976 0.123782 0.551494 0.874701
C2    C     C_R   0.615780 0.881391 0.445887 0.789625
C3    C     C_R   0.611495 0.122896 0.449547 0.857245
C4    C     C_R   0.385699 0.879752 0.552604 0.824365
C5    C     C_R   0.887961 0.623471 0.552045 0.816754
C6    C     C_R   0.114889 0.380265 0.446591 0.788601
C7    C     C_R   0.111552 0.623031 0.449218 0.868430
C8    C     C_R   0.885115 0.380755 0.552730 0.800025
C9    C     C_2   0.490087 0.007248 0.929513 -0.053033
C10   C     C_2   0.509870 0.007114 0.070702 -0.004458
C11   C     C_2   0.990158 0.502619 0.929794 -0.053779
C12   C     C_2   0.010247 0.502119 0.070871 -0.033628
Zn1   Zn    Zn3+2 0.478810 0.000000 0.357840 1.096403
Zn2   Zn    Zn3+2 0.521190 0.000000 0.642160 1.083284
Zn3   Zn    Zn3+2 0.978810 0.500000 0.357840 1.091016
Zn4   Zn    Zn3+2 0.021190 0.500000 0.642160 1.081783
N1    N     N_2   0.549450 0.000000 0.831550 -0.001730
N2    N     N_2   0.450550 0.000000 0.168450 -0.002312
N3    N     N_2   0.049450 0.500000 0.831550 0.008362
N4    N     N_2   0.950550 0.500000 0.168450 0.005391
C13   C     C_2   0.311513 0.818342 0.582089 0.154517
C14   C     C_2   0.669999 0.201437 0.432334 0.252568
C15   C     C_2   0.691912 0.822003 0.413056 0.195280
C16   C     C_2   0.331304 0.203741 0.572229 0.245343
C17   C     C_2   0.814118 0.316210 0.580440 0.132909
C18   C     C_2   0.169602 0.702125 0.429968 0.268223
C19   C     C_2   0.189878 0.318867 0.416760 0.204351
C20   C     C_2   0.831809 0.705446 0.571601 0.242517
C21   C     C_2   0.236624 0.833573 0.524103 0.225725
C22   C     C_2   0.671668 0.259904 0.536063 0.284730
C23   C     C_2   0.765469 0.835992 0.475826 0.197997
C24   C     C_2   0.331253 0.264395 0.472679 0.251391
C25   C     C_2   0.736595 0.330951 0.530530 0.234790
C26   C     C_2   0.169849 0.763586 0.530199 0.253631
C27   C     C_2   0.263616 0.334158 0.478816 0.196460
C28   C     C_2   0.832157 0.764870 0.470060 0.247408
H1    H     H_    0.577005 0.015958 0.094344 0.145589
H2    H     H_    0.422736 0.014756 0.906174 0.147426
H3    H     H_    0.077796 0.503445 0.094829 0.155489
H4    H     H_    0.922517 0.505352 0.906545 0.136893
N5    N     N_R   0.364382 0.982576 0.142304 0.278216
O17   O     O_R   0.301247 0.022365 0.214858 -0.284289
O18   O     O_R   0.346239 0.911003 0.073692 -0.437741
N6    N     N_R   0.636475 0.989031 0.857901 0.279056
O19   O     O_R   0.696486 0.036988 0.792939 -0.295698
O20   O     O_R   0.660055 0.917398 0.919648 -0.398110
N7    N     N_R   0.863374 0.503712 0.140531 0.291983
O21   O     O_R   0.816660 0.575108 0.175372 -0.305265
O22   O     O_R   0.824225 0.430019 0.106096 -0.405324
N8    N     N_R   0.137163 0.495452 0.857135 0.281886
O23   O     O_R   0.192958 0.550083 0.795815 -0.293884
O24   O     O_R   0.166690 0.423570 0.911860 -0.411011
N9    N     N_R   0.609604 0.258020 0.650959 0.216824
O25   O     O_R   0.526041 0.262567 0.637749 -0.342531
O26   O     O_R   0.636576 0.271263 0.767283 -0.386864
N10   N     N_R   0.217280 0.917345 0.461112 0.225410
O27   O     O_R   0.241606 0.994170 0.509469 -0.472019
O28   O     O_R   0.160612 0.918099 0.372977 -0.289626
N11   N     N_R   0.395222 0.264154 0.360021 0.209371
O29   O     O_R   0.478304 0.262967 0.377266 -0.369650
O30   O     O_R   0.371615 0.286087 0.244831 -0.322024
N12   N     N_R   0.780187 0.916289 0.553132 0.233899
O31   O     O_R   0.762061 0.995660 0.508506 -0.424027
O32   O     O_R   0.830418 0.911980 0.649623 -0.266171
N13   N     N_R   0.108357 0.762700 0.645837 0.209455
O33   O     O_R   0.024623 0.761487 0.633393 -0.354755
O34   O     O_R   0.134846 0.783474 0.760374 -0.355359
N14   N     N_R   0.709125 0.417981 0.488055 0.146443
O35   O     O_R   0.632911 0.448075 0.536105 -0.408672
O36   O     O_R   0.742067 0.449526 0.375990 -0.294978
N15   N     N_R   0.896141 0.763209 0.357369 0.221557
O37   O     O_R   0.979128 0.760741 0.374798 -0.363301
O38   O     O_R   0.873225 0.786498 0.242388 -0.300303
N16   N     N_R   0.278282 0.415244 0.554436 0.230841
O39   O     O_R   0.261977 0.494292 0.507130 -0.423718
O40   O     O_R   0.326051 0.411344 0.653869 -0.260636
O41   O     O_3   0.726659 0.216567 0.318894 -0.617325
C29   C     C_3   0.740188 0.138407 0.237762 0.149139
H5    H     H_    0.683887 0.129422 0.176949 0.172151
H6    H     H_    0.749199 0.076650 0.296700 0.160294
C30   C     C_3   0.822861 0.149897 0.144788 -0.391510
H7    H     H_    0.812892 0.206491 0.076631 0.256149
H8    H     H_    0.879031 0.166995 0.202531 0.231348
C31   C     C_3   0.843938 0.062711 0.065508 -0.828909
H9    H     H_    0.856346 0.006139 0.132612 0.292313
H10   H     H_    0.903360 0.071902 0.996676 0.264260
H11   H     H_    0.788493 0.044348 0.007282 0.310077
O42   O     O_3   0.322434 0.735348 0.643399 -0.632870
C32   C     C_3   0.356592 0.745977 0.767454 0.211544
H12   H     H_    0.319676 0.699747 0.837286 0.198897
H13   H     H_    0.346454 0.815227 0.811512 0.162289
C33   C     C_3   0.453327 0.717406 0.757380 -0.408427
H14   H     H_    0.458245 0.642515 0.745240 0.245676
H15   H     H_    0.488361 0.748594 0.669632 0.234085
C34   C     C_3   0.498750 0.746870 0.878285 -0.835315
H16   H     H_    0.497205 0.821676 0.888586 0.292658
H17   H     H_    0.568207 0.724332 0.867147 0.271303
H18   H     H_    0.466353 0.717066 0.969037 0.248807
O43   O     O_3   0.272936 0.218500 0.684413 -0.625347
C35   C     C_3   0.263782 0.143909 0.770321 0.139463
H19   H     H_    0.319694 0.142355 0.833024 0.183460
H20   H     H_    0.259484 0.078589 0.716026 0.156684
C36   C     C_3   0.178784 0.155199 0.858799 -0.369927
H21   H     H_    0.182660 0.217440 0.920631 0.275101
H22   H     H_    0.123707 0.162467 0.795634 0.236514
C37   C     C_3   0.161057 0.073673 0.947915 -0.820564
H23   H     H_    0.155569 0.010828 0.887951 0.289478
H24   H     H_    0.098489 0.084104 0.010044 0.253285
H25   H     H_    0.214849 0.065619 0.013023 0.307310
O44   O     O_3   0.692962 0.753784 0.316127 -0.587408
C38   C     C_3   0.611746 0.708371 0.311911 0.115533
H26   H     H_    0.617290 0.663638 0.222977 0.199295
H27   H     H_    0.556236 0.754491 0.298003 0.142431
C39   C     C_3   0.592515 0.648389 0.432391 -0.434806
H28   H     H_    0.645447 0.597313 0.432513 0.312744
H29   H     H_    0.593290 0.689266 0.524147 0.193417
C40   C     C_3   0.503640 0.601696 0.430374 -0.736363
H30   H     H_    0.450377 0.653073 0.432163 0.249431
H31   H     H_    0.491600 0.558499 0.518594 0.313244
H32   H     H_    0.502173 0.558303 0.340681 0.277640
O45   O     O_3   0.226458 0.716012 0.316401 -0.618024
C41   C     C_3   0.241692 0.636969 0.237736 0.151533
H33   H     H_    0.186624 0.626849 0.174779 0.175773
H34   H     H_    0.249782 0.575940 0.298425 0.157704
C42   C     C_3   0.326137 0.648277 0.148294 -0.385064
H35   H     H_    0.318183 0.705510 0.080376 0.257126
H36   H     H_    0.381087 0.664443 0.209077 0.231672
C43   C     C_3   0.348257 0.561606 0.068418 -0.835564
H37   H     H_    0.357061 0.503927 0.135288 0.293944
H38   H     H_    0.410082 0.570481 0.004644 0.265928
H39   H     H_    0.294978 0.545263 0.004898 0.312498
O46   O     O_3   0.830118 0.233599 0.639037 -0.638332
C44   C     C_3   0.847803 0.246772 0.772312 0.217008
H40   H     H_    0.808985 0.196310 0.832618 0.203569
H41   H     H_    0.826377 0.314584 0.813545 0.137709
C45   C     C_3   0.945369 0.229701 0.787771 -0.382887
H42   H     H_    0.959356 0.155791 0.778813 0.227762
H43   H     H_    0.985855 0.262798 0.706905 0.243875
C46   C     C_3   0.973865 0.266231 0.918864 -0.916319
H44   H     H_    0.931114 0.322235 0.959628 0.284876
H45   H     H_    0.041587 0.292957 0.904114 0.289246
H46   H     H_    0.973634 0.211669 0.992516 0.254084
O47   O     O_3   0.773203 0.724082 0.682779 -0.631178
C47   C     C_3   0.767692 0.658566 0.783213 0.146036
H47   H     H_    0.732181 0.691162 0.871224 0.207796
H48   H     H_    0.832311 0.640400 0.816407 0.180511
C48   C     C_3   0.713828 0.576269 0.745676 -0.478354
H49   H     H_    0.648683 0.599361 0.718706 0.258110
H50   H     H_    0.747856 0.540771 0.659677 0.229243
C49   C     C_3   0.700805 0.509402 0.858615 -0.750203
H51   H     H_    0.764975 0.480970 0.880473 0.263292
H52   H     H_    0.658427 0.452826 0.829834 0.308664
H53   H     H_    0.668810 0.543238 0.948343 0.270961
O48   O     O_3   0.188792 0.244825 0.329267 -0.598092
C50   C     C_3   0.104896 0.205440 0.321882 0.119365
H54   H     H_    0.111200 0.154424 0.240498 0.197498
H55   H     H_    0.055291 0.254500 0.293222 0.143050
C51   C     C_3   0.073675 0.155675 0.448828 -0.430106
H56   H     H_    0.120863 0.101123 0.466127 0.312292
H57   H     H_    0.071203 0.203029 0.534166 0.191975
C52   C     C_3   0.983031 0.114254 0.440117 -0.756298
H58   H     H_    0.934294 0.168260 0.425718 0.266927
H59   H     H_    0.962560 0.078377 0.532987 0.307229
H60   H     H_    0.984254 0.064823 0.356791 0.275429

loop_
_geom_bond_atom_site_label_1
_geom_bond_atom_site_label_2
_geom_bond_distance
_ccdc_geom_bond_type
N8    O24   1.301891 A    
C50   H54   1.110510 S    
N7    O22   1.300826 A    
N11   O29   1.299043 A    
O44   C38   1.416522 S    
C46   H45   1.108045 S    
O13   Zn4   1.925576 S    
O6    Zn4   1.922609 S    
C34   H16   1.106778 S    
O14   Zn3   1.925576 S    
N15   O37   1.298428 A    
C38   H27   1.107392 S    
C30   H7    1.110508 S    
N5    O17   1.299176 A    
C35   H19   1.111963 S    
C50   H55   1.107839 S    
C22   C25   1.443134 S    
O11   C3    1.299333 A    
O41   C29   1.414499 S    
C7    C18   1.471656 S    
C25   N14   1.433206 S    
C48   H50   1.105091 S    
N14   O36   1.298391 A    
C44   H41   1.117539 S    
C27   N16   1.442942 S    
N12   O32   1.301565 A    
N5    O18   1.302432 A    
C16   O43   1.402290 S    
O2    C2    1.291812 A    
O48   C50   1.417696 S    
O43   C35   1.412948 S    
O6    C6    1.289094 A    
C33   H14   1.111438 S    
N6    O20   1.302165 A    
N9    O26   1.300808 A    
C51   H56   1.106275 S    
C22   N9    1.441980 S    
C30   H8    1.110832 S    
C10   N2    1.292843 D    
C24   C27   1.455477 S    
C48   H49   1.111261 S    
C35   H20   1.109796 S    
C52   H59   1.110430 S    
N2    N5    1.391838 S    
O3    C3    1.284113 A    
N4    N7    1.389588 S    
O4    Zn1   1.937406 S    
C20   C28   1.362910 D    
O15   C7    1.297880 A    
N8    O23   1.299563 A    
O16   C8    1.293498 A    
C15   O44   1.400092 S    
C18   O45   1.402636 S    
C49   H52   1.109697 S    
C8    C17   1.456686 S    
C24   N11   1.441874 S    
N9    O25   1.299540 A    
C43   H39   1.109315 S    
C17   C25   1.349453 D    
O42   C32   1.415951 S    
C50   C51   1.534164 S    
C19   O48   1.402063 S    
N13   O33   1.299068 A    
C36   H22   1.110012 S    
C32   C33   1.533469 S    
C12   H3    1.083051 S    
Zn4   N3    2.013165 S    
C48   C49   1.523798 S    
C9    H2    1.083861 S    
N10   O28   1.301648 A    
C42   C43   1.528347 S    
N12   O31   1.298804 A    
N10   O27   1.297799 A    
N3    N8    1.391517 S    
C11   N3    1.291046 D    
C9    C10   1.495071 S    
Zn1   N2    2.013166 S    
C31   H11   1.109002 S    
N6    O19   1.299297 A    
C1    C16   1.474067 S    
C47   H48   1.106460 S    
O3    Zn2   1.937403 S    
C39   H29   1.106930 S    
C2    C15   1.469421 S    
C47   C48   1.531350 S    
C3    C14   1.467608 S    
C40   H32   1.110896 S    
C5    C20   1.483665 S    
C32   H13   1.115640 S    
C46   H46   1.106175 S    
N16   O40   1.301494 A    
O47   C47   1.412423 S    
C45   C46   1.532336 S    
C52   H60   1.110980 S    
O12   C4    1.293843 A    
C31   H10   1.108336 S    
O13   C5    1.302034 A    
C34   H17   1.109437 S    
N14   O35   1.300504 A    
C29   H6    1.111536 S    
N11   O30   1.301529 A    
C51   C52   1.525941 S    
C12   N4    1.290693 D    
C41   H34   1.110528 S    
O9    Zn2   1.925576 S    
C18   C26   1.357235 D    
C43   H38   1.108898 S    
C45   H43   1.105279 S    
N1    N6    1.391248 S    
N15   O38   1.301156 A    
C49   H51   1.108805 S    
C44   C45   1.536098 S    
C39   C40   1.527144 S    
O1    Zn1   1.922610 S    
C37   H24   1.110342 S    
C38   H26   1.111260 S    
C10   H1    1.083449 S    
C46   H44   1.107079 S    
C30   C31   1.528921 S    
C15   C23   1.357223 D    
C32   H12   1.109961 S    
C36   C37   1.525092 S    
O9    C1    1.299470 A    
C16   C24   1.359843 D    
O7    Zn4   1.937403 S    
Zn2   N1    2.013165 S    
O12   Zn2   1.928730 S    
C11   H4    1.082884 S    
O8    Zn3   1.937406 S    
C28   N15   1.442251 S    
C43   H37   1.111122 S    
C41   C42   1.525473 S    
N13   O34   1.301267 A    
C13   O42   1.396805 S    
C36   H21   1.111441 S    
C35   C36   1.524400 S    
O15   Zn3   1.928728 S    
C23   C28   1.459661 S    
O16   Zn4   1.928730 S    
O45   C41   1.413939 S    
O1    C1    1.287816 A    
C29   C30   1.523801 S    
C33   C34   1.525076 S    
O2    Zn2   1.922609 S    
C47   H47   1.110847 S    
O14   C6    1.297137 A    
C37   H25   1.108434 S    
C42   H36   1.111489 S    
C39   H28   1.105572 S    
C38   C39   1.528897 S    
C44   H40   1.110007 S    
C4    C13   1.465998 S    
O10   Zn1   1.925576 S    
C19   C27   1.358694 D    
N16   O39   1.298618 A    
C40   H30   1.111055 S    
C17   O46   1.393450 S    
C21   C26   1.451437 S    
O10   C2    1.294398 A    
O7    C7    1.287993 A    
C14   O41   1.402996 S    
C31   H9    1.111113 S    
O8    C8    1.289813 A    
C33   H15   1.106495 S    
C34   H18   1.106078 S    
O46   C44   1.418183 S    
C29   H5    1.111457 S    
C51   H57   1.106411 S    
C14   C22   1.357605 D    
C41   H33   1.111887 S    
N7    O21   1.300160 A    
O4    C4    1.292918 A    
O5    C5    1.291989 A    
C45   H42   1.111501 S    
O11   Zn1   1.928728 S    
C49   H53   1.110993 S    
C52   H58   1.110182 S    
C11   C12   1.495385 S    
C40   H31   1.109841 S    
C20   O47   1.406070 S    
Zn3   N4    2.013166 S    
C23   N12   1.442914 S    
O5    Zn3   1.922610 S    
C37   H23   1.111057 S    
C42   H35   1.110679 S    
C13   C21   1.354213 D    
C6    C19   1.469520 S    
C26   N13   1.442231 S    
C9    N1    1.292855 D    
C21   N10   1.440776 S    
