data_mof_unit_32351.cif
_audit_creation_date              2012-12-11T15:48:52-0500
_audit_creation_method            fapswitch 2.2
_symmetry_space_group_name_H-M    P1
_symmetry_Int_Tables_number       1
_space_group_crystal_system       triclinic
_cell_length_a                    10.95363
_cell_length_b                    10.923551
_cell_length_c                    18.770893
_cell_angle_alpha                 90.536357
_cell_angle_beta                  90.368663
_cell_angle_gamma                 60.425632
_cell_volume                      1953.27878977

loop_
_atom_site_label
_atom_site_type_symbol
_atom_type_description
_atom_site_fract_x
_atom_site_fract_y
_atom_site_fract_z
_atom_type_partial_charge
C1    C     C_R   0.239241 0.645116 0.610292 0.540231
C2    C     C_R   0.584492 0.129980 0.707485 -0.172904
C3    C     C_R   0.582360 0.130749 0.780699 -0.158961
C4    C     C_R   0.652990 0.621141 0.601738 0.540047
C5    C     C_3   0.929704 0.102804 0.787069 -0.274863
C6    C     C_3   0.925730 0.109677 0.706517 -0.281434
C7    C     C_R   0.675124 0.163018 0.671459 0.016008
C8    C     C_R   0.187979 0.665889 0.837350 0.014013
C9    C     C_R   0.197504 0.553429 0.797301 0.018710
C10   C     C_R   0.203814 0.550630 0.724939 0.022238
C11   C     C_R   0.204968 0.768138 0.725615 -0.186063
C12   C     C_3   0.732006 0.521038 0.797177 -0.245126
C13   C     C_R   0.205221 0.767462 0.800021 -0.182404
C14   C     C_3   0.191202 0.420391 0.801015 -0.281147
C15   C     C_3   0.200905 0.416067 0.719070 -0.277177
C16   C     C_R   0.630209 0.225489 0.601642 0.540329
C17   C     C_R   0.204718 0.658022 0.685806 0.013251
C18   C     C_R   0.645656 0.667555 0.165298 0.017277
C19   C     C_R   0.712306 0.535522 0.197905 0.024360
C20   C     C_R   0.715307 0.525972 0.270931 0.047626
C21   C     C_R   0.558218 0.773918 0.282571 -0.178439
C22   C     C_R   0.557047 0.785260 0.207954 -0.164976
C23   C     C_3   0.697484 0.673029 0.813639 0.059256
C24   C     C_3   0.856350 0.409744 0.191465 -0.274951
C25   C     C_3   0.862006 0.405946 0.272213 -0.267570
C26   C     C_R   0.646916 0.644335 0.315102 0.019681
C27   C     C_R   0.651760 0.174497 0.172549 0.019745
C28   C     C_R   0.218111 0.651542 0.402358 0.548212
C29   C     C_R   0.520341 0.240911 0.204818 0.019354
C30   C     C_R   0.511943 0.249199 0.277809 0.048080
C31   C     C_R   0.762484 0.145417 0.288466 -0.169208
C32   C     C_R   0.771165 0.139810 0.214823 -0.165632
C33   C     C_3   0.396182 0.219256 0.198361 -0.275408
C34   C     C_3   0.669090 0.646555 0.677679 0.051069
C35   C     C_3   0.390826 0.222478 0.279015 -0.267498
C36   C     C_R   0.632684 0.193660 0.320562 0.027628
C37   C     C_R   0.050921 0.730144 0.195561 0.020988
C38   C     C_R   0.066944 0.831932 0.233351 0.016285
C39   C     C_R   0.102531 0.814663 0.304050 0.020238
C40   C     C_R   0.640804 0.621050 0.391106 0.545322
C41   C     C_R   0.089960 0.600653 0.306074 -0.163242
C42   C     C_R   0.052112 0.619412 0.233703 -0.160615
C43   C     C_3   0.159415 0.893946 0.217766 -0.266503
C44   C     C_3   0.195054 0.878896 0.295749 -0.266652
C45   C     C_3   0.780511 0.691461 0.689177 -0.252176
C46   C     C_R   0.129221 0.691421 0.339379 0.021487
C47   C     C_R   0.702252 0.098899 0.895009 0.544488
C48   C     C_R   0.721473 0.686628 0.889307 0.543946
C49   C     C_R   0.121085 0.704443 0.906909 0.550358
C50   C     C_R   0.675033 0.109263 0.103220 0.547352
C51   C     C_R   0.694532 0.689253 0.096832 0.543748
C52   C     C_R   0.614945 0.230811 0.394577 0.545249
C53   C     C_R   0.027966 0.746876 0.118991 0.566515
C54   C     C_3   0.543775 0.774504 0.791057 -0.243211
C55   C     C_3   0.528554 0.761265 0.710427 -0.233154
C56   C     C_3   0.713582 0.506276 0.717681 -0.213108
C57   C     C_3   0.795379 0.710078 0.769673 -0.218778
C58   C     C_R   0.682875 0.147117 0.821285 0.017416
C59   C     C_R   0.774346 0.179132 0.785215 -0.007754
C60   C     C_R   0.769330 0.188660 0.711053 0.015553
Cr1   Cr    Cr6+3 0.392960 0.397920 0.502240 1.007746
Cr2   Cr    Cr6+3 0.398340 0.708480 0.501250 1.001212
Cr3   Cr    Cr6+3 0.708670 0.393570 0.496460 1.006439
Cr4   Cr    Cr6+3 0.937650 0.938540 0.007610 0.998569
Cr5   Cr    Cr6+3 0.625330 0.937370 0.994520 0.996586
Cr6   Cr    Cr6+3 0.937940 0.625230 0.001190 0.999370
H1    H     H_    0.513135 0.885469 0.803940 0.131490
H2    H     H_    0.209830 0.853727 0.699686 0.135228
H3    H     H_    0.471566 0.748712 0.820349 0.119409
H4    H     H_    0.206467 0.854267 0.827728 0.132627
H5    H     H_    0.089778 0.435633 0.821470 0.145928
H6    H     H_    0.285531 0.334958 0.827341 0.138821
H7    H     H_    0.300629 0.329232 0.698004 0.160204
H8    H     H_    0.104900 0.428498 0.692322 0.120236
H9    H     H_    0.493991 0.866492 0.314630 0.116832
H10   H     H_    0.497134 0.887875 0.184501 0.129455
H11   H     H_    0.937050 0.428660 0.167539 0.155074
H12   H     H_    0.815008 0.421125 0.696576 0.142900
H13   H     H_    0.852738 0.319009 0.166943 0.135377
H14   H     H_    0.870866 0.309433 0.295161 0.150586
H15   H     H_    0.448331 0.730077 0.700860 0.150310
H16   H     H_    0.936923 0.436499 0.294982 0.127881
H17   H     H_    0.856723 0.110529 0.320194 0.121550
H18   H     H_    0.873578 0.095789 0.191345 0.138777
H19   H     H_    0.420344 0.116175 0.175510 0.153075
H20   H     H_    0.304666 0.311159 0.173692 0.141274
H21   H     H_    0.294739 0.312744 0.300715 0.143833
H22   H     H_    0.418641 0.119111 0.302797 0.129092
H23   H     H_    0.906239 0.642716 0.785553 0.134955
H24   H     H_    0.100459 0.509768 0.333854 0.112067
H25   H     H_    0.036047 0.541765 0.206556 0.120943
H26   H     H_    0.493244 0.864670 0.684457 0.117194
H27   H     H_    0.251221 0.824126 0.183929 0.164797
H28   H     H_    0.307209 0.802862 0.305686 0.172536
H29   H     H_    0.153191 0.981427 0.324283 0.128611
H30   H     H_    0.768908 0.820738 0.780776 0.129916
H31   H     H_    0.749012 0.792195 0.661223 0.116081
H32   H     H_    0.842132 0.444725 0.812458 0.131479
H33   H     H_    0.661745 0.494366 0.827912 0.120447
H34   H     H_    0.882698 0.610970 0.666667 0.121836
H35   H     H_    0.632379 0.474366 0.709453 0.133105
H36   H     H_    0.964524 0.005906 0.679812 0.143298
H37   H     H_    0.102347 0.005408 0.200705 0.122490
H38   H     H_    0.508686 0.111254 0.679131 0.122922
H39   H     H_    0.506696 0.107412 0.804686 0.134246
H40   H     H_    0.969305 0.995820 0.808234 0.172552
H41   H     H_    0.972615 0.165879 0.812549 0.126494
H42   H     H_    0.969189 0.174533 0.684924 0.129150
O1    O     O_R   0.507380 0.255700 0.581440 -0.530245
O2    O     O_R   0.837170 0.593410 0.915250 -0.531996
O3    O     O_R   0.065200 0.635530 0.931570 -0.496897
O4    O     O_R   0.280320 0.527350 0.578930 -0.498746
O5    O     O_R   0.068260 0.828890 0.091840 -0.523520
O6    O     O_R   0.798870 0.057410 0.079340 -0.527982
O7    O     O_R   0.584930 0.080350 0.076780 -0.520872
O8    O     O_R   0.626960 0.809650 0.067060 -0.507584
O9    O     O_R   0.816040 0.596610 0.076510 -0.533500
O10   O     O_R   0.045610 0.638500 0.081060 -0.507069
O11   O     O_3   0.833640 0.833710 0.001100 -0.264553
O12   O     O_R   0.524480 0.695810 0.424040 -0.508151
O13   O     O_R   0.260510 0.739590 0.584590 -0.535047
O14   O     O_R   0.532300 0.695080 0.573820 -0.510178
O15   O     O_R   0.744840 0.503500 0.576370 -0.528383
O16   O     O_R   0.699120 0.276560 0.571960 -0.502350
O17   O     O_R   0.498940 0.256500 0.419860 -0.521815
O18   O     O_R   0.272500 0.528080 0.429150 -0.504608
O19   O     O_R   0.252060 0.740380 0.423010 -0.524328
O20   O     O_R   0.736390 0.504290 0.414790 -0.517643
O21   O     O_R   0.691300 0.277290 0.422170 -0.507262
O22   O     O_3   0.499990 0.499990 0.499980 -0.247505
O23   O     O_R   0.089400 0.825690 0.930570 -0.528695
O24   O     O_R   0.818460 0.054440 0.929850 -0.500618
O25   O     O_R   0.606060 0.077150 0.915510 -0.533023
O26   O     O_R   0.646550 0.806680 0.917570 -0.509532

loop_
_geom_bond_atom_site_label_1
_geom_bond_atom_site_label_2
_ccdc_geom_bond_type
C48   O2    A    
C21   C26   A    
C34   C56   S    
C8    C13   A    
C27   C29   A    
C25   H14   S    
C14   H5    S    
Cr2   O22   S    
C2    C7    A    
C22   H10   S    
C43   C44   S    
Cr1   O1    S    
Cr3   O16   S    
C56   H12   S    
C3    H39   S    
C49   O23   A    
C12   C23   S    
C45   C57   S    
C37   C38   A    
Cr4   O11   S    
C57   H23   S    
C30   C35   S    
C52   O21   A    
C48   O26   A    
C56   H35   S    
C50   O7    A    
C10   C15   S    
C31   C36   A    
C1    O4    A    
C5    C6    S    
C13   H4    S    
C10   C17   A    
C40   O20   A    
C29   C33   S    
C31   H17   S    
C42   H25   S    
C41   C42   A    
Cr3   O22   S    
C37   C42   A    
C33   H19   S    
C12   H33   S    
C51   O9    A    
C35   H21   S    
Cr4   O24   S    
C28   O18   A    
C8    C9    A    
C57   H30   S    
C16   O1    A    
C41   C46   A    
Cr1   O18   S    
C23   C48   S    
Cr6   O3    S    
C55   H15   S    
C29   C30   A    
C9    C10   A    
Cr2   O12   S    
Cr5   O26   S    
C36   C52   S    
C27   C50   S    
C49   O3    A    
C37   C53   S    
Cr3   O21   S    
C41   H24   S    
C34   C55   S    
C21   C22   A    
C47   O25   A    
C33   H20   S    
Cr5   O7    S    
C53   O5    A    
C18   C51   S    
C1    O13   A    
C5    H40   S    
C38   C39   A    
C32   H18   S    
C4    C34   S    
Cr4   O6    S    
C5    C59   S    
C6    C60   S    
C20   C25   S    
C24   C25   S    
C53   O10   A    
C18   C19   A    
C54   H1    S    
C58   C59   A    
Cr6   O9    S    
C4    O15   A    
C50   O6    A    
C9    C14   S    
C55   H26   S    
C35   H22   S    
C24   H13   S    
C31   C32   A    
Cr4   O23   S    
C2    H38   S    
C28   C46   S    
Cr5   O11   S    
C4    O14   A    
C34   C45   S    
Cr6   O2    S    
C12   C56   S    
Cr1   O22   S    
C39   C46   A    
C7    C16   S    
C15   H7    S    
Cr6   O11   S    
C25   H16   S    
Cr5   O8    S    
C7    C60   A    
Cr2   O14   S    
C11   H2    S    
C23   C54   S    
C5    H41   S    
C23   C57   S    
C54   C55   S    
C11   C17   A    
Cr4   O5    S    
C40   O12   A    
C27   C32   A    
C18   C22   A    
C14   H6    S    
Cr3   O20   S    
C45   H34   S    
Cr3   O15   S    
C52   O17   A    
C28   O19   A    
C39   C44   S    
C21   H9    S    
C1    C17   S    
C51   O8    A    
C30   C36   A    
C47   O24   A    
C43   H27   S    
C19   C20   A    
C2    C3    A    
C16   O16   A    
C38   C43   S    
C44   H29   S    
C45   H31   S    
C47   C58   S    
C11   C13   A    
C26   C40   S    
Cr2   O19   S    
C54   H3    S    
C20   C26   A    
C33   C35   S    
C19   C24   S    
C6    H36   S    
C43   H37   S    
C44   H28   S    
C3    C58   A    
C24   H11   S    
C59   C60   A    
C15   H8    S    
Cr6   O10   S    
C12   H32   S    
C6    H42   S    
C14   C15   S    
Cr1   O17   S    
Cr1   O4    S    
C8    C49   S    
Cr2   O13   S    
Cr5   O25   S    
