data_mof_unit_54251.cif
_audit_creation_date              2013-03-05T15:45:10-0500
_audit_creation_method            fapswitch 2.2
_symmetry_space_group_name_H-M    P1
_symmetry_Int_Tables_number       1
_space_group_crystal_system       triclinic
_cell_length_a                    10.860746
_cell_length_b                    11.039258
_cell_length_c                    9.821118
_cell_angle_alpha                 110.944413
_cell_angle_beta                  99.151754
_cell_angle_gamma                 91.04858
_cell_volume                      1082.08758245

loop_
_atom_site_label
_atom_site_type_symbol
_atom_site_description
_atom_site_fract_x
_atom_site_fract_y
_atom_site_fract_z
_atom_type_partial_charge
O1    O     O_R   0.511700 0.332330 0.577400 -0.581114
O2    O     O_R   0.474680 0.295500 0.332650 -0.574678
C1    C     C_R   0.490711 0.254074 0.440683 0.870575
O3    O     O_R   0.338160 0.518420 0.622400 -0.595152
O4    O     O_R   0.301140 0.481590 0.377650 -0.509291
C2    C     C_R   0.263720 0.515004 0.503451 0.829684
Cu1   Cu    Cu3+1 0.521920 0.521810 0.644910 0.936384
Cu2   Cu    Cu3+1 0.478080 0.478190 0.355090 0.995507
O5    O     O_R   0.525320 0.704500 0.667350 -0.583853
O6    O     O_R   0.488300 0.667670 0.422600 -0.571343
O7    O     O_R   0.698860 0.518410 0.622350 -0.592778
O8    O     O_R   0.661840 0.481580 0.377600 -0.585932
C3    C     C_R   0.509006 0.745920 0.559313 0.860910
C4    C     C_R   0.738386 0.495405 0.500230 0.824477
C5    C     C_R   0.164210 0.641369 0.781422 -0.147888
H1    H     H_    0.253701 0.689537 0.787850 0.159728
C6    C     C_R   0.125149 0.656515 0.914326 -0.110234
H2    H     H_    0.185621 0.710244 0.018777 0.166994
C7    C     C_R   0.010044 0.598726 0.912215 -0.076347
H3    H     H_    0.981197 0.604906 0.014733 0.193726
C8    C     C_R   0.930031 0.534927 0.778045 -0.155588
H4    H     H_    0.846689 0.484612 0.784739 0.175793
C9    C     C_R   0.961558 0.532846 0.642281 0.097056
C10   C     C_R   0.086816 0.569916 0.643754 0.053456
C11   C     C_R   0.130583 0.535114 0.507712 -0.237887
C12   C     C_R   0.043528 0.502018 0.373957 0.349537
H5    H     H_    0.851886 0.462939 0.272464 0.194392
C13   C     C_R   0.917255 0.484573 0.375332 -0.278865
C14   C     C_R   0.874381 0.497756 0.506198 -0.176503
H6    H     H_    0.478952 0.864812 0.367829 0.182966
H7    H     H_    0.518416 0.135077 0.632104 0.182410
C15   C     C_2   0.485356 0.114885 0.407140 -0.344141
C16   C     C_2   0.501350 0.069481 0.516737 -0.149407
H8    H     H_    0.531097 0.950957 0.707990 0.152053
C17   C     C_2   0.513596 0.885070 0.592820 -0.343145
C18   C     C_2   0.496471 0.930425 0.483198 -0.139394
H9    H     H_    0.468292 0.049011 0.291963 0.150941
H10   H     H_    0.413837 0.419724 0.844786 0.172971
H11   H     H_    0.584381 0.582276 0.155707 0.155838
N1    N     N_2   0.445130 0.445430 0.137370 -0.265032
C19   C     C_2   0.510629 0.510484 0.081794 -0.065949
H12   H     H_    0.625974 0.620138 0.934940 0.191669
N2    N     N_2   0.554930 0.554500 0.862630 -0.296358
C20   C     C_2   0.488435 0.490548 0.918464 -0.070383
H13   H     H_    0.375356 0.378315 0.064680 0.217345
N3    N     N_R   0.080396 0.493786 0.237107 0.123747
O9    O     O_R   0.030767 0.400563 0.114042 -0.393119
O10   O     O_R   0.146378 0.591090 0.231754 -0.393782

loop_
_geom_bond_atom_site_label_1
_geom_bond_atom_site_label_2
_geom_bond_distance
_ccdc_geom_bond_type
O4    Cu2   1.968645 S    
N2    C20   1.305648 D    
H7    C16   1.088207 S    
H10   C20   1.084965 S    
Cu1   N2    2.007645 S    
Cu2   O8    1.970883 S    
C12   C13   1.384244 A    
C17   C18   1.330212 D    
H6    C18   1.088248 S    
C9    C10   1.409778 A    
C15   C16   1.330180 D    
C6    H2    1.082547 S    
Cu1   Cu2   2.672255 S    
H11   C19   1.084976 S    
O1    Cu1   1.950334 S    
C15   H9    1.087657 S    
Cu1   O7    1.968645 S    
C13   C14   1.396069 A    
C1    C15   1.449693 S    
C5    C6    1.390810 A    
O3    Cu1   1.970883 S    
O4    C2    1.291163 A    
C9    C14   1.430598 A    
Cu2   O6    1.950333 S    
C5    C10   1.417223 A    
C7    C8    1.391899 A    
O8    C4    1.307811 A    
O2    C1    1.286947 A    
C8    C9    1.420994 A    
N1    H13   1.030561 S    
O7    C4    1.279544 A    
N3    O10   1.301655 A    
C2    C11   1.471800 S    
C19   C20   1.517335 S    
C12   N3    1.435340 S    
C4    C14   1.468215 S    
C5    H1    1.081186 S    
C16   C18   1.448355 S    
C10   C11   1.414357 A    
O3    C2    1.298741 A    
H8    C17   1.087625 S    
H12   N2    1.030571 S    
H5    C13   1.083920 S    
Cu1   O5    1.947868 S    
O5    C3    1.286976 A    
N3    O9    1.301397 A    
N1    C19   1.305657 D    
Cu2   N1    2.007484 S    
C6    C7    1.386836 A    
C11   C12   1.414988 A    
C8    H4    1.076473 S    
C3    C17   1.449478 S    
O2    Cu2   1.947868 S    
C7    H3    1.081001 S    
O1    C1    1.291235 A    
O6    C3    1.291197 A    
