data_mof_unit_22187.cif
_audit_creation_date              2012-12-10T19:09:34-0500
_audit_creation_method            fapswitch 2.2
_symmetry_space_group_name_H-M    P1
_symmetry_Int_Tables_number       1
_space_group_crystal_system       triclinic
_cell_length_a                    14.463951
_cell_length_b                    15.825476
_cell_length_c                    10.150026
_cell_angle_alpha                 91.558261
_cell_angle_beta                  90.027207
_cell_angle_gamma                 90.246396
_cell_volume                      2322.44880946

loop_
_atom_site_label
_atom_site_type_symbol
_atom_type_description
_atom_site_fract_x
_atom_site_fract_y
_atom_site_fract_z
_atom_type_partial_charge
C1    C     C_R   0.127256 0.387376 0.499158 0.803643
C2    C     C_R   0.128276 0.611757 0.500563 0.810499
C3    C     C_R   0.627256 0.887376 0.499158 0.803643
C4    C     C_R   0.628277 0.111757 0.500563 0.810498
C5    C     C_3   0.900588 0.495385 0.075718 0.492976
C6    C     C_3   0.902979 0.517271 0.920879 0.503807
C7    C     C_3   0.400588 0.995385 0.075718 0.492976
C8    C     C_3   0.402979 0.017270 0.920879 0.503807
C9    C     C_R   0.880305 0.377518 0.498789 0.811759
C10   C     C_R   0.878600 0.621562 0.501009 0.816897
C11   C     C_R   0.380305 0.877518 0.498789 0.811759
C12   C     C_R   0.378600 0.121562 0.501009 0.816897
C13   C     C_3   0.825258 0.253328 0.625297 -0.432182
C14   C     C_3   0.835024 0.240857 0.382579 -0.452432
C15   C     C_3   0.819580 0.743885 0.371773 -0.433904
C16   C     C_3   0.832931 0.758822 0.614382 -0.440618
C17   C     C_3   0.325257 0.753328 0.625297 -0.432182
C18   C     C_3   0.335024 0.740857 0.382579 -0.452431
C19   C     C_3   0.319580 0.243886 0.371773 -0.433903
C20   C     C_3   0.332931 0.258822 0.614382 -0.440618
C21   C     C_3   0.263143 0.674450 0.621494 -0.442180
C22   C     C_3   0.260084 0.671602 0.375941 -0.405605
C23   C     C_3   0.258107 0.322677 0.374234 -0.445916
C24   C     C_3   0.259599 0.328680 0.620159 -0.415139
C25   C     C_3   0.763143 0.174450 0.621494 -0.442180
C26   C     C_3   0.760084 0.171602 0.375941 -0.405605
C27   C     C_3   0.758107 0.822677 0.374234 -0.445915
C28   C     C_3   0.759599 0.828680 0.620159 -0.415139
C29   C     C_3   0.708601 0.336741 0.485948 0.434345
C30   C     C_3   0.704833 0.662284 0.516518 0.443622
C31   C     C_3   0.208601 0.836740 0.485948 0.434345
C32   C     C_3   0.204834 0.162284 0.516518 0.443622
C33   C     C_3   0.812956 0.305318 0.497322 0.177710
C34   C     C_3   0.809742 0.693307 0.501819 0.162921
C35   C     C_3   0.312956 0.805318 0.497322 0.177710
C36   C     C_3   0.309742 0.193307 0.501819 0.162921
C37   C     C_3   0.198050 0.678007 0.500968 0.140609
C38   C     C_3   0.195635 0.320743 0.497499 0.157787
C39   C     C_3   0.698050 0.178007 0.500968 0.140609
C40   C     C_3   0.695635 0.820743 0.497499 0.157787
C41   C     C_3   0.143318 0.761022 0.505825 -0.353852
C42   C     C_3   0.139906 0.237830 0.495790 -0.353978
C43   C     C_3   0.643318 0.261022 0.505825 -0.353853
C44   C     C_3   0.639907 0.737830 0.495790 -0.353977
C45   C     C_3   0.048892 0.423507 0.075695 -0.018897
C46   C     C_3   0.039368 0.419678 0.916350 -0.025297
C47   C     C_3   0.063310 0.566942 0.925357 -0.038390
C48   C     C_3   0.055819 0.571363 0.084786 -0.046691
C49   C     C_3   0.548892 0.923507 0.075695 -0.018895
C50   C     C_3   0.539368 0.919679 0.916350 -0.025298
C51   C     C_3   0.563310 0.066942 0.925357 -0.038389
C52   C     C_3   0.555819 0.071363 0.084786 -0.046691
H1    H     H_    0.807374 0.291138 0.714200 0.186468
H2    H     H_    0.838872 0.270056 0.285722 0.183479
H3    H     H_    0.796866 0.705202 0.286585 0.184583
H4    H     H_    0.833954 0.730044 0.711312 0.186783
H5    H     H_    0.307374 0.791138 0.714200 0.186468
H6    H     H_    0.338872 0.770056 0.285722 0.183479
H7    H     H_    0.296866 0.205202 0.286584 0.184583
H8    H     H_    0.333955 0.230044 0.711312 0.186782
H9    H     H_    0.898590 0.233639 0.636555 0.162970
H10   H     H_    0.903916 0.211651 0.398569 0.166879
H11   H     H_    0.892847 0.762617 0.354970 0.175732
H12   H     H_    0.902678 0.786887 0.598681 0.169545
H13   H     H_    0.398590 0.733639 0.636555 0.162970
H14   H     H_    0.403916 0.711651 0.398569 0.166879
H15   H     H_    0.392847 0.262617 0.354970 0.175732
H16   H     H_    0.402678 0.286887 0.598681 0.169545
H17   H     H_    0.306290 0.616396 0.614802 0.163567
H18   H     H_    0.293438 0.608389 0.368421 0.151994
H19   H     H_    0.301771 0.380806 0.376928 0.166012
H20   H     H_    0.294344 0.391615 0.623943 0.153811
H21   H     H_    0.806290 0.116396 0.614802 0.163567
H22   H     H_    0.793438 0.108389 0.368421 0.151994
H23   H     H_    0.801771 0.880806 0.376929 0.166012
H24   H     H_    0.794345 0.891615 0.623943 0.153811
H25   H     H_    0.224366 0.671997 0.714768 0.187331
H26   H     H_    0.218209 0.678758 0.285248 0.185757
H27   H     H_    0.216648 0.323366 0.281845 0.180515
H28   H     H_    0.218737 0.323565 0.712496 0.178579
H29   H     H_    0.724366 0.171997 0.714768 0.187330
H30   H     H_    0.718209 0.178759 0.285248 0.185757
H31   H     H_    0.716648 0.823366 0.281845 0.180515
H32   H     H_    0.718737 0.823565 0.712496 0.178579
H33   H     H_    0.106653 0.765777 0.602465 0.159613
H34   H     H_    0.086750 0.759305 0.430851 0.157365
H35   H     H_    0.102271 0.232016 0.399943 0.145967
H36   H     H_    0.083884 0.240534 0.571446 0.141096
H37   H     H_    0.606653 0.265777 0.602465 0.159613
H38   H     H_    0.586750 0.259305 0.430851 0.157365
H39   H     H_    0.602271 0.732016 0.399942 0.145967
H40   H     H_    0.583884 0.740534 0.571446 0.141096
H41   H     H_    0.124444 0.429077 0.097702 0.086308
H42   H     H_    0.111324 0.412782 0.877806 0.106154
H43   H     H_    0.135705 0.545371 0.905325 0.093022
H44   H     H_    0.128385 0.560940 0.118359 0.116615
H45   H     H_    0.624444 0.929077 0.097702 0.086307
H46   H     H_    0.611325 0.912782 0.877806 0.106154
H47   H     H_    0.635705 0.045371 0.905325 0.093021
H48   H     H_    0.628385 0.060940 0.118359 0.116615
N1    N     N_3   0.998760 0.500000 0.138610 -0.088788
N2    N     N_3   0.998760 0.500000 0.861390 -0.085437
N3    N     N_3   0.498760 1.000000 0.138610 -0.088788
N4    N     N_3   0.498760 0.000000 0.861390 -0.085437
O1    O     O_R   0.092530 0.407440 0.616040 -0.650227
O2    O     O_R   0.092530 0.407440 0.383960 -0.651359
O3    O     O_R   0.092530 0.592560 0.383960 -0.601282
O4    O     O_R   0.092530 0.592560 0.616040 -0.595205
O5    O     O_R   0.592530 0.907440 0.616040 -0.650227
O6    O     O_R   0.592530 0.907440 0.383960 -0.651359
O7    O     O_R   0.592530 0.092560 0.383960 -0.601282
O8    O     O_R   0.592530 0.092560 0.616040 -0.595205
O9    O     O_R   0.907330 0.407420 0.616040 -0.638559
O10   O     O_R   0.907330 0.407420 0.383960 -0.652840
O11   O     O_R   0.907330 0.592580 0.383960 -0.607134
O12   O     O_R   0.907330 0.592580 0.616040 -0.626092
O13   O     O_R   0.407330 0.907420 0.616040 -0.638560
O14   O     O_R   0.407330 0.907420 0.383960 -0.652840
O15   O     O_R   0.407330 0.092580 0.383960 -0.607135
O16   O     O_R   0.407330 0.092580 0.616040 -0.626092
Zn1   Zn    Zn3+2 0.999890 0.500000 0.654960 0.907212
Zn2   Zn    Zn3+2 0.999890 0.500000 0.345040 0.905961
Zn3   Zn    Zn3+2 0.499890 0.000000 0.654960 0.907212
Zn4   Zn    Zn3+2 0.499890 0.000000 0.345040 0.905961
C53   C     C_3   0.684372 0.404891 0.591606 -0.971148
H49   H     H_    0.689132 0.380577 0.692734 0.231616
H50   H     H_    0.731859 0.458324 0.583509 0.249519
H51   H     H_    0.612669 0.428242 0.578458 0.248923
C54   C     C_3   0.687031 0.372611 0.348793 -0.949152
H52   H     H_    0.617581 0.402377 0.347162 0.243906
H53   H     H_    0.738133 0.420116 0.323071 0.247404
H54   H     H_    0.687491 0.323026 0.269547 0.229780
C55   C     C_3   0.679085 0.592696 0.413864 -0.978479
H55   H     H_    0.728535 0.541178 0.420973 0.246230
H56   H     H_    0.608444 0.567442 0.431313 0.251306
H57   H     H_    0.680267 0.615823 0.311802 0.230222
C56   C     C_3   0.683630 0.628724 0.655026 -0.955394
H58   H     H_    0.682983 0.679760 0.732046 0.226802
H59   H     H_    0.614863 0.597200 0.658146 0.243448
H60   H     H_    0.735667 0.583504 0.682268 0.248688
C57   C     C_3   0.184372 0.904891 0.591606 -0.971148
H61   H     H_    0.189132 0.880577 0.692734 0.231616
H62   H     H_    0.231859 0.958324 0.583508 0.249519
H63   H     H_    0.112669 0.928242 0.578457 0.248923
C58   C     C_3   0.187031 0.872610 0.348793 -0.949152
H64   H     H_    0.117581 0.902377 0.347162 0.243906
H65   H     H_    0.238134 0.920116 0.323071 0.247404
H66   H     H_    0.187491 0.823026 0.269547 0.229780
C59   C     C_3   0.179085 0.092696 0.413864 -0.978479
H67   H     H_    0.228535 0.041178 0.420973 0.246230
H68   H     H_    0.108444 0.067442 0.431313 0.251306
H69   H     H_    0.180268 0.115823 0.311802 0.230222
C60   C     C_3   0.183630 0.128724 0.655026 -0.955394
H70   H     H_    0.182983 0.179760 0.732046 0.226801
H71   H     H_    0.114863 0.097200 0.658146 0.243449
H72   H     H_    0.235668 0.083504 0.682268 0.248688
N5    N     N_3   0.022871 0.341486 0.130074 -0.462309
H73   H     H_    0.003892 0.345860 0.227688 0.268760
H74   H     H_    0.079058 0.300106 0.123653 0.147710
N6    N     N_3   0.991644 0.342967 0.867567 -0.462199
H75   H     H_    0.998842 0.337407 0.766247 0.243999
H76   H     H_    0.026969 0.289998 0.900218 0.167637
N7    N     N_3   0.062178 0.649984 0.863027 -0.394562
H77   H     H_    0.127524 0.677293 0.875804 0.142231
H78   H     H_    0.021073 0.694081 0.912328 0.163760
N8    N     N_3   0.036596 0.653810 0.149465 -0.394240
H79   H     H_    0.092438 0.694470 0.133271 0.145809
H80   H     H_    0.979343 0.685160 0.116066 0.157229
N9    N     N_3   0.522872 0.841486 0.130074 -0.462309
H81   H     H_    0.503892 0.845860 0.227688 0.268760
H82   H     H_    0.579059 0.800106 0.123653 0.147710
N10   N     N_3   0.491644 0.842967 0.867567 -0.462200
H83   H     H_    0.498841 0.837407 0.766247 0.243999
H84   H     H_    0.526970 0.789998 0.900216 0.167637
N11   N     N_3   0.562177 0.149984 0.863027 -0.394561
H85   H     H_    0.627523 0.177293 0.875803 0.142231
H86   H     H_    0.521073 0.194081 0.912329 0.163760
N12   N     N_3   0.536595 0.153810 0.149465 -0.394240
H87   H     H_    0.592438 0.194470 0.133271 0.145809
H88   H     H_    0.479343 0.185160 0.116066 0.157229
C61   C     C_3   0.850369 0.406907 0.090732 -0.920152
H89   H     H_    0.854468 0.384332 0.188022 0.270242
H90   H     H_    0.774673 0.410007 0.072380 0.218813
H91   H     H_    0.874471 0.354449 0.027320 0.262630
C62   C     C_3   0.827908 0.467326 0.843145 -0.829814
H92   H     H_    0.823859 0.491446 0.744824 0.285008
H93   H     H_    0.839919 0.399388 0.835519 0.245820
H94   H     H_    0.757794 0.476921 0.885546 0.198820
C63   C     C_3   0.869428 0.610812 0.900067 -0.939003
H95   H     H_    0.883845 0.656929 0.977925 0.192750
H96   H     H_    0.901594 0.638344 0.816765 0.291503
H97   H     H_    0.793433 0.616965 0.888780 0.226770
C64   C     C_3   0.831954 0.553069 0.149877 -0.845967
H98   H     H_    0.861465 0.615165 0.168906 0.240189
H99   H     H_    0.766030 0.560319 0.095206 0.206261
H100  H     H_    0.811398 0.525461 0.242830 0.270745
C65   C     C_3   0.350370 0.906907 0.090732 -0.920153
H101  H     H_    0.374472 0.854448 0.027320 0.262630
H102  H     H_    0.354469 0.884332 0.188022 0.270242
H103  H     H_    0.274674 0.910006 0.072380 0.218814
C66   C     C_3   0.327908 0.967326 0.843145 -0.829817
H104  H     H_    0.339919 0.899388 0.835519 0.245820
H105  H     H_    0.257794 0.976920 0.885547 0.198820
H106  H     H_    0.323859 0.991445 0.744824 0.285008
C67   C     C_3   0.369428 0.110812 0.900067 -0.939002
H107  H     H_    0.401593 0.138344 0.816765 0.291503
H108  H     H_    0.293432 0.116964 0.888781 0.226769
H109  H     H_    0.383844 0.156929 0.977925 0.192750
C68   C     C_3   0.331953 0.053069 0.149877 -0.845967
H110  H     H_    0.311398 0.025461 0.242830 0.270745
H111  H     H_    0.361465 0.115165 0.168906 0.240189
H112  H     H_    0.266029 0.060318 0.095207 0.206261

loop_
_geom_bond_atom_site_label_1
_geom_bond_atom_site_label_2
_ccdc_geom_bond_type
C16   C28   S    
C25   H29   S    
C8    C67   S    
C52   N3    S    
C50   N4    S    
N5    H73   S    
C55   H55   S    
C29   C53   S    
C28   H32   S    
N9    H82   S    
N9    H81   S    
C20   C36   S    
N7    H77   S    
O4    Zn1   S    
C45   H41   S    
C14   C33   S    
C17   H5    S    
N12   H87   S    
C20   H8    S    
C7    C8    S    
N11   H86   S    
N4    Zn3   S    
C45   C46   S    
C65   H103  S    
C41   H34   S    
C56   H59   S    
C6    C62   S    
C43   H37   S    
C9    O10   A    
C32   C36   S    
C5    C64   S    
C8    C66   S    
N7    H78   S    
C38   C42   S    
C19   C36   S    
C59   H68   S    
C5    C6    S    
C26   C39   S    
C62   H93   S    
C28   C40   S    
C3    O6    A    
C14   H10   S    
C29   C33   S    
C2    O3    A    
C68   H112  S    
C65   H102  S    
C66   H104  S    
C63   H96   S    
C17   C35   S    
C58   H65   S    
C12   O16   A    
C11   C35   S    
C24   H28   S    
C29   C54   S    
C32   C59   S    
C20   C24   S    
C64   H99   S    
C53   H51   S    
C24   C38   S    
C19   H15   S    
C12   C36   S    
N2    Zn1   S    
C48   H44   S    
C18   C35   S    
C15   C34   S    
C25   H21   S    
C44   H40   S    
O16   Zn3   S    
C1    O2    A    
C54   H54   S    
O6    Zn4   S    
C30   C55   S    
C61   H90   S    
C4    O8    A    
C46   N6    S    
N5    H74   S    
C47   N2    S    
C7    N3    S    
C29   C43   S    
C9    C33   S    
C66   H105  S    
C13   H9    S    
C30   C44   S    
C61   H91   S    
C27   H23   S    
N3    Zn4   S    
C5    C61   S    
C7    C68   S    
N10   H84   S    
C58   H64   S    
C13   H1    S    
C67   H108  S    
C51   H47   S    
C56   H60   S    
C5    N1    S    
C50   H46   S    
C43   H38   S    
O12   Zn1   S    
C30   C34   S    
C51   C52   S    
C47   C48   S    
C23   H19   S    
N8    H80   S    
C45   N5    S    
C22   H26   S    
O8    Zn3   S    
C57   H63   S    
O5    Zn3   S    
C62   H94   S    
C39   C43   S    
C19   H7    S    
C51   N4    S    
C61   H89   S    
C22   C37   S    
C52   H48   S    
C17   C21   S    
C32   C60   S    
C21   H17   S    
O10   Zn2   S    
C7    C65   S    
C63   H97   S    
C19   C23   S    
C16   H4    S    
C13   C33   S    
C68   H111  S    
C55   H57   S    
C12   O15   A    
C46   N2    S    
C15   C27   S    
N11   H85   S    
C46   H42   S    
C4    C39   S    
C27   C40   S    
C64   H100  S    
C16   C34   S    
O2    Zn2   S    
C30   C56   S    
C68   H110  S    
C1    O1    A    
O1    Zn1   S    
C10   C34   S    
O14   Zn4   S    
C14   C26   S    
C60   H72   S    
C51   N11   S    
C8    N4    S    
C60   H71   S    
C44   H39   S    
C45   N1    S    
C1    C38   S    
C31   C57   S    
C14   H2    S    
C4    O7    A    
C15   H3    S    
C3    C40   S    
C49   C50   S    
C53   H49   S    
C66   H106  S    
C31   C35   S    
C59   H69   S    
C42   H36   S    
C11   O13   A    
C58   H66   S    
C10   O12   A    
N10   H83   S    
C24   H20   S    
C53   H50   S    
C54   H52   S    
C67   H109  S    
C67   H107  S    
C65   H101  S    
C15   H11   S    
C31   C41   S    
O7    Zn4   S    
C18   C22   S    
C20   H16   S    
C13   C25   S    
C49   N3    S    
N12   H88   S    
C18   H14   S    
O9    Zn1   S    
C41   H33   S    
C56   H58   S    
C17   H13   S    
N1    Zn2   S    
C23   C38   S    
C48   N8    S    
C9    O9    A    
N6    H75   S    
C57   H62   S    
O13   Zn3   S    
C47   N7    S    
C59   H67   S    
C25   C39   S    
C49   N9    S    
C2    C37   S    
C62   H92   S    
N8    H79   S    
C3    O5    A    
C32   C42   S    
C48   N1    S    
C6    C63   S    
C2    O4    A    
C26   H22   S    
C18   H6    S    
O15   Zn4   S    
C6    N2    S    
C37   C41   S    
C63   H95   S    
C52   N12   S    
C49   H45   S    
C27   H31   S    
C31   C58   S    
C40   C44   S    
C21   C37   S    
C26   H30   S    
C64   H98   S    
C21   H25   S    
O11   Zn2   S    
C55   H56   S    
C47   H43   S    
C50   N10   S    
C42   H35   S    
C16   H12   S    
O3    Zn2   S    
C23   H27   S    
C60   H70   S    
C57   H61   S    
C11   O14   A    
C22   H18   S    
C10   O11   A    
N6    H76   S    
C54   H53   S    
C28   H24   S    
