data_mof_unit_40228.cif
_audit_creation_date              2012-12-11T14:29:59-0500
_audit_creation_method            fapswitch 2.2
_symmetry_space_group_name_H-M    P1
_symmetry_Int_Tables_number       1
_space_group_crystal_system       triclinic
_cell_length_a                    12.8992
_cell_length_b                    12.888073
_cell_length_c                    27.017788
_cell_angle_alpha                 89.949592
_cell_angle_beta                  90.091952
_cell_angle_gamma                 119.73805
_cell_volume                      3900.0568571

loop_
_atom_site_label
_atom_site_type_symbol
_atom_type_description
_atom_site_fract_x
_atom_site_fract_y
_atom_site_fract_z
_atom_type_partial_charge
C1    C     C_R   0.560021 0.455769 0.822334 0.570040
C2    C     C_R   0.897571 0.441089 0.678538 0.574336
C3    C     C_R   0.544974 0.105674 0.822755 0.550726
C4    C     C_R   0.559848 0.455536 0.677543 0.571711
C5    C     C_R   0.896082 0.440180 0.822233 0.572731
C6    C     C_R   0.544553 0.104385 0.677836 0.552328
C7    C     C_R   0.456004 0.556960 0.321371 0.551987
C8    C     C_R   0.443265 0.900262 0.178751 0.538507
C9    C     C_R   0.108455 0.547438 0.323279 0.551774
C10   C     C_R   0.456589 0.556799 0.178593 0.540488
C11   C     C_R   0.441297 0.896210 0.322184 0.575564
C12   C     C_R   0.100115 0.543414 0.178509 0.537837
C13   C     C_R   0.985004 0.487896 0.975814 -0.029652
C14   C     C_R   0.499996 0.001088 0.526459 -0.037157
C15   C     C_R   0.511882 0.494185 0.976314 -0.033569
C16   C     C_R   0.009302 0.500125 0.528810 -0.017328
C17   C     C_R   0.501689 0.013470 0.976412 -0.034812
C18   C     C_R   0.507936 0.482349 0.522631 -0.033057
C19   C     C_R   0.492568 0.981298 0.475084 -0.036471
C20   C     C_R   0.999690 0.498579 0.027571 -0.032044
C21   C     C_R   0.495657 0.487354 0.470942 -0.029023
C22   C     C_R   0.498526 0.000053 0.028243 -0.035624
C23   C     C_R   0.031833 0.514239 0.477705 -0.028781
C24   C     C_R   0.501201 0.498185 0.028083 -0.033367
C25   C     C_R   0.088752 0.703797 0.967988 -0.078585
C26   C     C_R   0.641991 0.930373 0.533269 -0.067102
C27   C     C_R   0.296099 0.382256 0.968492 -0.075107
C28   C     C_R   0.116520 0.714966 0.539242 -0.099948
C29   C     C_R   0.628352 0.924270 0.969798 -0.073791
C30   C     C_R   0.292572 0.378807 0.531277 -0.078478
C31   C     C_R   0.636836 0.913634 0.482249 -0.129373
C32   C     C_R   0.093862 0.714090 0.019475 -0.105071
C33   C     C_R   0.280816 0.376763 0.479719 -0.152074
C34   C     C_R   0.629350 0.915733 0.021182 -0.098395
C35   C     C_R   0.133335 0.728232 0.488165 -0.109833
C36   C     C_R   0.286081 0.378125 0.019971 -0.104013
C37   C     C_R   0.009453 0.579040 0.893629 0.272810
C38   C     C_R   0.588652 0.003826 0.606959 0.268797
C39   C     C_R   0.420833 0.428757 0.893987 0.264474
C40   C     C_R   0.019151 0.585422 0.610743 0.275154
C41   C     C_R   0.580349 0.000595 0.895237 0.273135
C42   C     C_R   0.419541 0.424836 0.605522 0.262618
C43   C     C_R   0.564525 0.934868 0.399378 0.240939
C44   C     C_R   0.051134 0.620673 0.102019 0.280510
C45   C     C_R   0.374001 0.429330 0.396375 0.251529
C46   C     C_R   0.571785 0.952314 0.103224 0.279571
C47   C     C_R   0.104778 0.641760 0.404916 0.258187
C48   C     C_R   0.379454 0.429477 0.102522 0.278476
C49   C     C_R   0.037488 0.522838 0.130213 0.003156
C50   C     C_R   0.476253 0.945628 0.372469 0.021170
C51   C     C_R   0.477077 0.513951 0.130550 0.003892
C52   C     C_R   0.067850 0.538631 0.374886 -0.030946
C53   C     C_R   0.485676 0.963834 0.130868 0.003578
C54   C     C_R   0.473350 0.512955 0.369333 0.019066
C55   C     C_R   0.525087 0.055966 0.627514 -0.003032
C56   C     C_R   0.937098 0.464009 0.873887 0.006018
C57   C     C_R   0.535310 0.470661 0.625432 0.000842
C58   C     C_R   0.526290 0.061991 0.874285 -0.002286
C59   C     C_R   0.945118 0.468656 0.628444 0.008864
C60   C     C_R   0.536016 0.472975 0.874101 -0.000316
C61   C     C_R   0.028700 0.591212 0.945496 0.079188
C62   C     C_R   0.577263 0.977954 0.555821 0.064681
C63   C     C_R   0.408618 0.434814 0.945945 0.073620
C64   C     C_R   0.049113 0.601175 0.559966 0.087864
C65   C     C_R   0.569758 0.978236 0.946840 0.076313
C66   C     C_R   0.405722 0.428366 0.553470 0.067865
C67   C     C_R   0.565809 0.942850 0.451938 0.017293
C68   C     C_R   0.047625 0.612124 0.049868 0.070152
C69   C     C_R   0.381815 0.429640 0.448828 0.018752
C70   C     C_R   0.567853 0.956414 0.051065 0.067635
C71   C     C_R   0.089274 0.628905 0.456705 0.057357
C72   C     C_R   0.387905 0.433591 0.050366 0.067853
C73   C     C_R   0.894702 0.363613 0.904709 -0.164017
C74   C     C_R   0.446742 0.074903 0.597961 -0.161856
C75   C     C_R   0.636320 0.531795 0.904951 -0.169572
C76   C     C_R   0.910013 0.369997 0.597217 -0.160833
C77   C     C_R   0.456809 0.092868 0.904173 -0.161369
C78   C     C_R   0.634877 0.524663 0.594068 -0.170901
C79   C     C_R   0.404363 0.982163 0.396249 -0.118726
C80   C     C_R   0.984495 0.409289 0.108242 -0.158743
C81   C     C_R   0.585784 0.564033 0.390798 -0.198427
C82   C     C_R   0.423646 0.015189 0.108596 -0.157594
C83   C     C_R   0.008532 0.425993 0.396558 -0.213253
C84   C     C_R   0.590345 0.573339 0.108658 -0.158470
C85   C     C_R   0.925596 0.373743 0.954415 -0.045415
C86   C     C_R   0.432390 0.047377 0.548164 -0.041569
C87   C     C_R   0.625963 0.549795 0.954952 -0.044582
C88   C     C_R   0.946419 0.384347 0.548557 -0.048282
C89   C     C_R   0.440305 0.066024 0.954375 -0.041715
C90   C     C_R   0.622946 0.533178 0.543325 -0.048678
C91   C     C_R   0.412164 0.001085 0.446909 -0.032068
C92   C     C_R   0.961585 0.395460 0.057199 -0.035537
C93   C     C_R   0.597929 0.545649 0.440885 -0.051568
C94   C     C_R   0.431514 0.036415 0.057507 -0.035437
C95   C     C_R   0.996696 0.413183 0.447711 -0.050892
C96   C     C_R   0.604093 0.562655 0.057785 -0.035541
C97   C     C_R   0.908730 0.281410 0.035085 0.303368
C98   C     C_R   0.336725 0.035576 0.469697 0.265563
C99   C     C_R   0.717992 0.622136 0.035922 0.304151
C100  C     C_R   0.953929 0.300967 0.469537 0.271440
C101  C     C_R   0.367963 0.086808 0.035217 0.302948
C102  C     C_R   0.711354 0.586887 0.461344 0.286486
C103  C     C_R   0.350753 0.065033 0.519854 0.292818
C104  C     C_R   0.893370 0.270899 0.983281 0.294015
C105  C     C_R   0.724664 0.588639 0.512730 0.299268
C106  C     C_R   0.369042 0.097850 0.983230 0.297643
C107  C     C_R   0.923777 0.284853 0.519564 0.295371
C108  C     C_R   0.728595 0.618901 0.984129 0.299361
Cr1   Cr    Cr6+3 0.487630 0.241180 0.750000 0.990856
Cr2   Cr    Cr6+3 0.753550 0.512370 0.750000 0.985948
Cr3   Cr    Cr6+3 0.758820 0.246450 0.750000 1.063305
Cr4   Cr    Cr6+3 0.241180 0.487630 0.250000 1.008264
Cr5   Cr    Cr6+3 0.512370 0.753550 0.250000 1.008273
Cr6   Cr    Cr6+3 0.246450 0.758820 0.250000 1.019710
H1    H     H_    0.138509 0.802709 0.034957 0.086483
H2    H     H_    0.687761 0.875315 0.467926 0.099514
H3    H     H_    0.197692 0.335475 0.035442 0.086752
H4    H     H_    0.180762 0.816232 0.473239 0.189266
H5    H     H_    0.676165 0.874128 0.037000 0.086963
H6    H     H_    0.192058 0.336675 0.464691 0.148669
H7    H     H_    0.698764 0.907708 0.554846 0.140553
H8    H     H_    0.127851 0.784251 0.945955 0.127488
H9    H     H_    0.212534 0.339284 0.553556 0.136134
H10   H     H_    0.677152 0.892266 0.948153 0.130973
H11   H     H_    0.152824 0.793874 0.562125 0.128700
H12   H     H_    0.215271 0.340566 0.946656 0.129675
H13   H     H_    0.966486 0.332495 0.130723 0.175433
H14   H     H_    0.340739 0.995200 0.374844 0.187345
H15   H     H_    0.666993 0.632393 0.131016 0.172812
H16   H     H_    0.977631 0.348113 0.373211 0.152156
H17   H     H_    0.363855 0.032222 0.130838 0.175318
H18   H     H_    0.663774 0.620172 0.368578 0.155579
H19   H     H_    0.398879 0.115754 0.613596 0.174394
H20   H     H_    0.834695 0.275790 0.889743 0.192678
H21   H     H_    0.723129 0.556638 0.609275 0.171592
H22   H     H_    0.420782 0.145368 0.888582 0.169877
H23   H     H_    0.852951 0.280114 0.610988 0.203420
H24   H     H_    0.724271 0.561772 0.889899 0.168380
O1    O     O_R   0.460870 0.120930 0.805240 -0.543185
O2    O     O_R   0.660060 0.539130 0.694760 -0.539948
O3    O     O_R   0.879070 0.339940 0.805240 -0.516808
O4    O     O_R   0.460870 0.120930 0.694760 -0.543216
O5    O     O_R   0.660060 0.539130 0.805240 -0.541677
O6    O     O_R   0.879070 0.339940 0.694760 -0.514392
O7    O     O_R   0.120930 0.460870 0.305240 -0.554419
O8    O     O_R   0.539130 0.660060 0.194760 -0.559725
O9    O     O_R   0.339940 0.879070 0.305240 -0.503496
O10   O     O_R   0.120930 0.460870 0.194760 -0.559295
O11   O     O_R   0.539130 0.660060 0.305240 -0.559242
O12   O     O_R   0.339940 0.879070 0.194760 -0.562446
O13   O     O_R   0.498910 0.350470 0.801870 -0.496904
O14   O     O_R   0.851560 0.501090 0.698130 -0.504170
O15   O     O_R   0.649530 0.148440 0.801870 -0.463428
O16   O     O_R   0.498910 0.350470 0.698130 -0.494208
O17   O     O_R   0.851560 0.501090 0.801870 -0.504748
O18   O     O_R   0.649530 0.148440 0.698130 -0.458346
O19   O     O_R   0.350470 0.498910 0.301870 -0.464826
O20   O     O_R   0.501090 0.851560 0.198130 -0.482135
O21   O     O_R   0.148440 0.649530 0.301870 -0.455978
O22   O     O_R   0.350470 0.498910 0.198130 -0.479142
O23   O     O_R   0.501090 0.851560 0.301870 -0.464586
O24   O     O_R   0.148440 0.649530 0.198130 -0.484230
O25   O     O_3   0.666667 0.333333 0.750000 -0.266903
O26   O     O_3   0.333333 0.666667 0.250000 -0.258928
O27   O     O_3   0.028149 0.703050 0.125021 -0.536027
C109  C     C_3   0.132961 0.813100 0.131529 -0.086293
H25   H     H_    0.123601 0.882369 0.111775 0.086882
H26   H     H_    0.215443 0.814273 0.118660 0.112659
H27   H     H_    0.140538 0.837749 0.171157 0.180088
O28   O     O_3   0.663620 0.949941 0.373280 -0.608463
C110  C     C_3   0.675524 0.847444 0.374210 -0.097573
H28   H     H_    0.593569 0.766638 0.387135 0.138400
H29   H     H_    0.753070 0.862148 0.396942 0.084678
H30   H     H_    0.700223 0.834601 0.336481 0.183987
O29   O     O_3   0.297761 0.324796 0.125796 -0.531408
C111  C     C_3   0.187177 0.319407 0.131805 -0.080105
H31   H     H_    0.118834 0.241542 0.111653 0.087880
H32   H     H_    0.185594 0.400680 0.118980 0.111145
H33   H     H_    0.161678 0.301738 0.171324 0.180455
O30   O     O_3   0.163880 0.754902 0.384411 -0.553266
C112  C     C_3   0.079190 0.790222 0.372735 -0.063831
H34   H     H_    0.032861 0.795963 0.406434 0.171616
H35   H     H_    0.013277 0.729559 0.344970 0.112166
H36   H     H_    0.126360 0.880517 0.355911 0.141295
O31   O     O_3   0.676890 0.976563 0.126831 -0.529399
C113  C     C_3   0.685052 0.872698 0.133312 -0.079049
H37   H     H_    0.767179 0.885949 0.115448 0.085503
H38   H     H_    0.607595 0.789924 0.118472 0.107507
H39   H     H_    0.697269 0.862414 0.173242 0.180669
O32   O     O_3   0.295615 0.326828 0.370906 -0.611492
C114  C     C_3   0.180933 0.312320 0.368358 -0.106222
H40   H     H_    0.177760 0.391881 0.381307 0.156082
H41   H     H_    0.119369 0.232933 0.390011 0.148051
H42   H     H_    0.149678 0.292363 0.329501 0.173657
O33   O     O_3   0.667959 0.986744 0.635592 -0.565553
C115  C     C_3   0.604363 0.874739 0.659191 -0.123504
H43   H     H_    0.668136 0.859526 0.681310 0.140445
H44   H     H_    0.561687 0.800699 0.631787 0.117422
H45   H     H_    0.536158 0.872290 0.685084 0.128223
O34   O     O_3   0.074646 0.674511 0.862084 -0.571796
C116  C     C_3   0.011434 0.735073 0.851189 -0.089265
H46   H     H_    0.053641 0.821961 0.870814 0.093075
H47   H     H_    0.914707 0.684432 0.860178 0.134642
H48   H     H_    0.019168 0.754593 0.810939 0.138560
O35   O     O_3   0.323795 0.393153 0.637040 -0.572209
C117  C     C_3   0.265458 0.269553 0.647410 -0.083907
H49   H     H_    0.311198 0.222019 0.633104 0.137422
H50   H     H_    0.174012 0.226749 0.631938 0.096934
H51   H     H_    0.257045 0.256921 0.688125 0.143788
O36   O     O_3   0.651632 0.972351 0.866561 -0.571436
C118  C     C_3   0.578704 0.859316 0.844964 -0.128061
H52   H     H_    0.533447 0.788812 0.873637 0.118462
H53   H     H_    0.635946 0.835154 0.822798 0.142219
H54   H     H_    0.511625 0.860854 0.819460 0.130814
O37   O     O_3   0.074745 0.679915 0.643665 -0.572468
C119  C     C_3   0.003828 0.733594 0.652046 -0.092226
H55   H     H_    0.913186 0.686093 0.635257 0.131222
H56   H     H_    0.051140 0.826304 0.637859 0.086427
H57   H     H_    0.993154 0.738950 0.692545 0.145740
O38   O     O_3   0.325279 0.399277 0.862454 -0.572447
C120  C     C_3   0.263800 0.275707 0.852124 -0.082370
H58   H     H_    0.178559 0.232009 0.872864 0.097932
H59   H     H_    0.315267 0.229584 0.860132 0.135228
H60   H     H_    0.241119 0.263244 0.812147 0.139053
O39   O     O_3   0.861564 0.180709 0.065055 -0.508845
C121  C     C_3   0.921030 0.115111 0.057154 -0.081829
H61   H     H_    0.012849 0.169552 0.042628 0.039210
H62   H     H_    0.869738 0.040433 0.031313 0.153573
H63   H     H_    0.927274 0.076313 0.092880 0.119606
O40   O     O_3   0.234329 0.015592 0.445366 -0.624941
C122  C     C_3   0.247582 0.123351 0.427860 -0.083445
H64   H     H_    0.342420 0.194827 0.422745 0.164791
H65   H     H_    0.200471 0.153076 0.453347 0.180838
H66   H     H_    0.202933 0.105054 0.391281 0.152079
O41   O     O_3   0.818327 0.671419 0.066087 -0.508326
C123  C     C_3   0.883607 0.796740 0.060709 -0.076335
H67   H     H_    0.829309 0.836376 0.047895 0.034009
H68   H     H_    0.958597 0.822199 0.034771 0.158744
H69   H     H_    0.921664 0.837060 0.097160 0.130102
O42   O     O_3   0.965863 0.214195 0.445063 -0.638046
C124  C     C_3   0.858756 0.134721 0.421784 -0.081767
H70   H     H_    0.780542 0.145316 0.431773 0.154461
H71   H     H_    0.840361 0.044616 0.432191 0.178028
H72   H     H_    0.871487 0.143362 0.381094 0.145879
O43   O     O_3   0.318194 0.138047 0.065213 -0.510553
C125  C     C_3   0.193573 0.082424 0.058312 -0.077741
H73   H     H_    0.152672 0.989427 0.044592 0.038852
H74   H     H_    0.171945 0.135318 0.032418 0.161599
H75   H     H_    0.151332 0.079420 0.094351 0.123136
O44   O     O_3   0.809671 0.622506 0.431248 -0.584606
C126  C     C_3   0.801648 0.518729 0.409766 -0.123242
H76   H     H_    0.714709 0.459718 0.391386 0.114264
H77   H     H_    0.817241 0.465755 0.438137 0.147733
H78   H     H_    0.868686 0.545855 0.380144 0.126523
O45   O     O_3   0.290772 0.119047 0.539971 -0.580300
C127  C     C_3   0.179410 0.029791 0.557579 -0.161674
H79   H     H_    0.190806 0.980393 0.588800 0.103278
H80   H     H_    0.124876 0.968213 0.527469 0.155957
H81   H     H_    0.129766 0.072756 0.571963 0.098127
O46   O     O_3   0.840807 0.158777 0.961706 -0.550357
C128  C     C_3   0.928577 0.143719 0.936450 -0.133248
H82   H     H_    0.013079 0.177959 0.957741 0.066357
H83   H     H_    0.948274 0.186686 0.899486 0.142054
H84   H     H_    0.893514 0.046911 0.930400 0.128216
O47   O     O_3   0.837709 0.644569 0.532967 -0.561171
C129  C     C_3   0.874322 0.766991 0.537664 -0.135451
H85   H     H_    0.808401 0.781801 0.558610 0.089182
H86   H     H_    0.892063 0.811022 0.500781 0.149157
H87   H     H_    0.958171 0.810407 0.559031 0.105553
O48   O     O_3   0.306081 0.146967 0.961394 -0.567791
C130  C     C_3   0.200981 0.054580 0.939452 -0.177218
H88   H     H_    0.219251 0.031271 0.902221 0.114310
H89   H     H_    0.135931 0.086288 0.935035 0.103583
H90   H     H_    0.156638 0.972425 0.962381 0.088061
O49   O     O_3   0.868811 0.170835 0.539309 -0.554328
C131  C     C_3   0.957094 0.148573 0.558934 -0.116213
H91   H     H_    0.912994 0.056923 0.574531 0.131236
H92   H     H_    0.006553 0.211468 0.589549 0.114255
H93   H     H_    0.019775 0.152994 0.529698 0.142856
O50   O     O_3   0.840225 0.681958 0.962589 -0.566588
C132  C     C_3   0.851904 0.787228 0.940837 -0.170691
H94   H     H_    0.817369 0.833378 0.964682 0.085047
H95   H     H_    0.806700 0.768446 0.904315 0.118564
H96   H     H_    0.947844 0.850983 0.935001 0.105861

loop_
_geom_bond_atom_site_label_1
_geom_bond_atom_site_label_2
_ccdc_geom_bond_type
C44   C49   A    
C130  H90   S    
C4    O16   A    
C110  H28   S    
C74   H19   S    
O32   C114  S    
C82   C94   A    
C18   C21   A    
C103  O45   S    
C116  H46   S    
C5    C56   S    
C97   O39   S    
O49   C131  S    
C119  H57   S    
C3    O15   A    
C6    C55   S    
C79   H14   S    
C8    O20   A    
C50   C79   A    
C12   C49   S    
C116  H47   S    
C126  H76   S    
C129  H86   S    
C30   H9    S    
C112  H34   S    
C38   O33   S    
C132  H96   S    
C31   C67   A    
C99   C108  A    
C20   C92   A    
C77   C89   A    
O27   C109  S    
C42   O35   S    
Cr1   O13   S    
C119  H56   S    
C41   C58   A    
C120  H60   S    
Cr2   O14   S    
C24   C96   A    
C104  O46   S    
C128  H82   S    
C27   H12   S    
C117  H50   S    
Cr6   O24   S    
O28   C110  S    
C9    O21   A    
C105  O47   S    
C98   C103  A    
C14   C62   A    
C96   C99   A    
C84   H15   S    
C11   O23   A    
C2    O6    A    
Cr4   O7    S    
C40   O37   S    
C102  C105  A    
C124  H70   S    
C84   C96   A    
C37   O34   S    
C73   H20   S    
C46   O31   S    
Cr2   O17   S    
C58   C77   A    
C7    O11   A    
C55   C74   A    
Cr6   O26   S    
C111  H33   S    
C38   C55   A    
O29   C111  S    
C28   C35   A    
C23   C95   A    
O34   C116  S    
C127  H80   S    
C89   C106  A    
O41   C123  S    
C19   C67   A    
Cr1   O4    S    
O35   C117  S    
C26   H7    S    
Cr5   O20   S    
C6    O4    A    
C107  O49   S    
C25   H8    S    
C34   C70   A    
C79   C91   A    
C30   C33   A    
C33   C69   A    
C32   C68   A    
C48   O29   S    
C25   C32   A    
C111  H32   S    
C130  H88   S    
C101  O43   S    
C26   C31   A    
C91   C98   A    
C40   C59   A    
C98   O40   S    
O43   C125  S    
C109  H26   S    
C37   C56   A    
O40   C122  S    
C9    C52   S    
C48   C72   A    
C115  H45   S    
C86   C103  A    
C14   C19   A    
C42   C57   A    
O38   C120  S    
C43   O28   S    
C18   C66   A    
C92   C97   A    
C48   C51   A    
C2    O14   A    
Cr4   O26   S    
C110  H30   S    
C125  H74   S    
Cr4   O19   S    
C87   C108  A    
C45   C69   A    
C114  H40   S    
C18   C90   A    
C78   H21   S    
C23   C71   A    
C39   O38   S    
C17   C89   A    
C119  H55   S    
C94   C101  A    
C83   H16   S    
C115  H44   S    
C123  H67   S    
Cr1   O25   S    
C1    C60   S    
C128  H83   S    
C88   C107  A    
C95   C100  A    
C115  H43   S    
C81   H18   S    
C41   C65   A    
O44   C126  S    
C76   H23   S    
Cr5   O23   S    
C29   C34   A    
C75   H24   S    
C22   C94   A    
C78   C90   A    
Cr4   O10   S    
C21   C69   A    
C53   C82   A    
C124  H71   S    
Cr5   O8    S    
C80   C92   A    
C52   C83   A    
C8    O12   A    
O37   C119  S    
C114  H41   S    
C47   O30   S    
C1    O5    A    
Cr5   O11   S    
C4    O2    A    
C120  H58   S    
C110  H29   S    
C5    O3    A    
C118  H52   S    
C131  H93   S    
C83   C95   A    
C127  H79   S    
C118  H54   S    
O39   C121  S    
Cr3   O25   S    
C122  H65   S    
C25   C61   A    
C74   C86   A    
C81   C93   A    
C36   H3    S    
Cr3   O15   S    
C73   C85   A    
C30   C66   A    
C85   C104  A    
C27   C63   A    
Cr3   O6    S    
C10   O8    A    
C29   C65   A    
C41   O36   S    
C28   C64   A    
C75   C87   A    
C15   C24   A    
C77   H22   S    
C131  H92   S    
C99   O41   S    
C106  O48   S    
C16   C23   A    
C121  H62   S    
C12   O24   A    
C102  O44   S    
C109  H25   S    
C116  H48   S    
C33   H6    S    
C44   C68   A    
C3    O1    A    
C47   C71   A    
C113  H38   S    
O45   C127  S    
C10   O22   A    
C31   H2    S    
C101  C106  A    
C28   H11   S    
C24   C72   A    
C15   C87   A    
O47   C129  S    
C112  H36   S    
C34   H5    S    
C130  H89   S    
C76   C88   A    
C125  H73   S    
C111  H31   S    
C100  C107  A    
C15   C63   A    
C56   C73   A    
Cr4   O22   S    
C13   C20   A    
C118  H53   S    
C117  H49   S    
C93   C102  A    
C57   C78   A    
C20   C68   A    
C19   C91   A    
Cr1   O16   S    
C121  H61   S    
C90   C105  A    
O46   C128  S    
C126  H78   S    
C129  H87   S    
C8    C53   S    
C45   C54   A    
C128  H84   S    
C37   C61   A    
Cr2   O25   S    
C49   C80   A    
C43   C50   A    
C100  O42   S    
C47   C52   A    
C7    O19   A    
C80   H13   S    
C27   C36   A    
C132  H95   S    
C121  H63   S    
C39   C63   A    
C16   C64   A    
C60   C75   A    
C17   C65   A    
C17   C22   A    
C40   C64   A    
C123  H69   S    
Cr1   O1    S    
C124  H72   S    
C10   C51   S    
C12   O10   A    
C113  H39   S    
Cr2   O2    S    
C132  H94   S    
C114  H42   S    
O50   C132  S    
C120  H59   S    
C11   C50   S    
C5    O17   A    
C82   H17   S    
Cr5   O26   S    
C131  H91   S    
C117  H51   S    
Cr6   O9    S    
O31   C113  S    
C14   C86   A    
C2    C59   S    
C21   C93   A    
C16   C88   A    
C39   C60   A    
C51   C84   A    
C46   C53   A    
C9    O7    A    
O42   C124  S    
C123  H68   S    
C1    O13   A    
C122  H66   S    
C44   O27   S    
C32   H1    S    
C26   C62   A    
Cr2   O5    S    
Cr6   O21   S    
C46   C70   A    
C97   C104  A    
C126  H77   S    
C129  H85   S    
Cr3   O3    S    
C35   C71   A    
O33   C115  S    
C29   H10   S    
C3    C58   S    
C45   O32   S    
C112  H35   S    
Cr3   O18   S    
C13   C61   A    
C127  H81   S    
C109  H27   S    
C43   C67   A    
O36   C118  S    
C13   C85   A    
C122  H64   S    
C42   C66   A    
Cr6   O12   S    
O48   C130  S    
C35   H4    S    
C11   O9    A    
C7    C54   S    
C113  H37   S    
C108  O50   S    
C59   C76   A    
C22   C70   A    
C54   C81   A    
C6    O18   A    
O30   C112  S    
C36   C72   A    
C4    C57   S    
C38   C62   A    
C125  H75   S    
