data_mof_unit_39571.cif
_audit_creation_date              2012-12-10T16:52:16-0500
_audit_creation_method            fapswitch 2.2
_symmetry_space_group_name_H-M    P1
_symmetry_Int_Tables_number       1
_space_group_crystal_system       triclinic
_cell_length_a                    11.041836
_cell_length_b                    10.939625
_cell_length_c                    9.723874
_cell_angle_alpha                 89.249181
_cell_angle_beta                  102.692863
_cell_angle_gamma                 90.292389
_cell_volume                      1145.77534288

loop_
_atom_site_label
_atom_site_type_symbol
_atom_type_description
_atom_site_fract_x
_atom_site_fract_y
_atom_site_fract_z
_atom_type_partial_charge
C1    C     C_R   0.493958 0.265632 0.499507 0.802464
C2    C     C_2   0.505812 0.866654 0.496788 -0.329517
C3    C     C_2   0.487116 0.068667 0.387863 -0.203506
C4    C     C_2   0.469982 0.134805 0.497551 -0.005307
C5    C     C_2   0.441187 0.419218 0.908619 -0.055480
C6    C     C_2   0.426412 0.432934 0.058212 0.060540
C7    C     C_R   0.262954 0.502888 0.442617 0.851075
C8    C     C_R   0.499253 0.734510 0.498536 0.821108
C9    C     C_R   0.737426 0.500220 0.557632 0.813464
C10   C     C_2   0.128015 0.509101 0.410576 -0.377658
C11   C     C_2   0.069041 0.524546 0.514720 -0.151940
C12   C     C_2   0.873356 0.498633 0.591648 -0.170144
C13   C     C_2   0.933887 0.520645 0.487888 -0.214781
C14   C     C_2   0.466892 0.936221 0.379614 0.042559
Cu1   Cu    Cu3+1 0.500020 0.500020 0.638640 0.935968
Cu2   Cu    Cu3+1 0.499980 0.499980 0.361360 0.939469
H1    H     H_    0.882909 0.537079 0.380182 0.169817
H2    H     H_    0.518814 0.581944 0.894009 0.238327
H3    H     H_    0.351505 0.382520 0.088731 0.100148
H4    H     H_    0.121175 0.536645 0.622249 0.194094
H5    H     H_    0.076471 0.498776 0.303059 0.142232
H6    H     H_    0.551214 0.907754 0.595786 0.164102
H7    H     H_    0.515296 0.113189 0.299274 0.138544
H8    H     H_    0.397547 0.341330 0.849420 0.133344
N1    N     N_2   0.498650 0.498660 0.846590 -0.272621
N2    N     N_2   0.498620 0.498630 0.152710 -0.114188
O1    O     O_R   0.500020 0.321960 0.617050 -0.578797
O2    O     O_R   0.499980 0.321920 0.382890 -0.591790
O3    O     O_R   0.320700 0.500020 0.574050 -0.578690
O4    O     O_R   0.320660 0.499980 0.339890 -0.584728
O5    O     O_R   0.500020 0.678080 0.617110 -0.591740
O6    O     O_R   0.499980 0.678040 0.382950 -0.557848
O7    O     O_R   0.679340 0.500020 0.660110 -0.563423
O8    O     O_R   0.679300 0.499980 0.425950 -0.598291
N3    N     N_3   0.612988 0.530680 0.124901 -0.516551
H9    H     H_    0.640299 0.612476 0.177092 0.240312
H10   H     H_    0.676764 0.463393 0.170196 0.238869
C15   C     C_R   0.939838 0.466152 0.737627 0.129720
C16   C     C_R   0.929896 0.540688 0.850977 -0.114900
C17   C     C_R   0.992953 0.509812 0.987782 -0.155728
C18   C     C_R   0.066843 0.404886 0.012194 -0.111525
C19   C     C_R   0.076809 0.330053 0.900006 -0.161611
C20   C     C_R   0.012993 0.359958 0.763247 -0.144630
H11   H     H_    0.874095 0.622902 0.833279 0.123453
H12   H     H_    0.984570 0.567761 0.074411 0.113721
H13   H     H_    0.116454 0.381085 0.117744 0.126961
H14   H     H_    0.133916 0.248819 0.919050 0.124160
H15   H     H_    0.021022 0.300925 0.677144 0.134537
C21   C     C_R   0.408930 0.884840 0.239800 0.156582
C22   C     C_R   0.293452 0.825099 0.219159 -0.103607
C23   C     C_R   0.241758 0.772008 0.089356 -0.127567
C24   C     C_R   0.304406 0.778663 0.979224 -0.101489
C25   C     C_R   0.418509 0.839316 0.998376 -0.144038
C26   C     C_R   0.470601 0.892613 0.128037 -0.168694
H16   H     H_    0.244565 0.818314 0.304125 0.110348
H17   H     H_    0.153330 0.725407 0.074344 0.123107
H18   H     H_    0.264545 0.736854 0.879101 0.130681
H19   H     H_    0.466932 0.844411 0.912983 0.135309
H20   H     H_    0.559895 0.937814 0.142157 0.115474
N4    N     N_3   0.416674 0.081465 0.606796 -0.593513
H21   H     H_    0.477932 0.095881 0.703728 0.218165
H22   H     H_    0.334198 0.127688 0.607696 0.215646

loop_
_geom_bond_atom_site_label_1
_geom_bond_atom_site_label_2
_ccdc_geom_bond_type
C2    H6    S    
C7    C10   S    
C18   H13   S    
Cu1   O5    S    
C16   H11   S    
C7    O3    A    
C3    C14   S    
C1    O2    A    
C11   C13   S    
C18   C19   A    
Cu1   O1    S    
C22   H16   S    
C13   H1    S    
C25   H19   S    
C1    C4    S    
C17   H12   S    
C4    N4    S    
C22   C23   A    
C10   C11   D    
C15   C20   A    
C7    O4    A    
C25   C26   A    
C24   C25   A    
C9    O7    A    
C6    H3    S    
C5    H8    S    
C23   C24   A    
C6    N2    D    
H2    N1    S    
C5    N1    D    
C17   C18   A    
N3    H10   S    
C9    O8    A    
Cu1   O3    S    
C19   H14   S    
C10   H5    S    
C12   C15   S    
C5    C6    S    
C2    C14   D    
C9    C12   S    
C11   H4    S    
Cu1   N1    S    
C14   C21   S    
Cu2   O6    S    
C24   H18   S    
Cu2   O4    S    
Cu1   Cu2   S    
C8    O6    A    
N2    N3    S    
C15   C16   A    
C12   C13   D    
N4    H22   S    
C21   C22   A    
C20   H15   S    
C16   C17   A    
C1    O1    A    
Cu2   O2    S    
N3    H9    S    
Cu2   O8    S    
C26   H20   S    
C8    O5    A    
C3    H7    S    
Cu1   O7    S    
C2    C8    S    
C3    C4    D    
C21   C26   A    
C19   C20   A    
N4    H21   S    
Cu2   N2    S    
C23   H17   S    
