data_mof_unit_51480.cif
_audit_creation_date              2012-12-11T16:31:35-0500
_audit_creation_method            fapswitch 2.2
_symmetry_space_group_name_H-M    P1
_symmetry_Int_Tables_number       1
_space_group_crystal_system       triclinic
_cell_length_a                    6.970883
_cell_length_b                    18.255827
_cell_length_c                    20.189066
_cell_angle_alpha                 68.370742
_cell_angle_beta                  90.199971
_cell_angle_gamma                 90.208976
_cell_volume                      2388.31812563

loop_
_atom_site_label
_atom_site_type_symbol
_atom_type_description
_atom_site_fract_x
_atom_site_fract_y
_atom_site_fract_z
_atom_type_partial_charge
O1    O     O_R   0.488990 0.443920 0.942160 -0.541752
O2    O     O_R   0.823840 0.406530 0.087600 -0.539605
O3    O     O_R   0.999650 0.556080 0.057840 -0.536761
C1    C     C_R   0.655245 0.383587 0.115036 0.690698
O4    O     O_R   0.818390 0.434590 0.944530 -0.540037
O5    O     O_R   0.994160 0.584350 0.913750 -0.517822
C2    C     C_R   0.649995 0.420719 0.923958 0.722138
O6    O     O_R   0.494480 0.415650 0.086250 -0.537922
O7    O     O_3   0.662600 0.549100 0.990070 -0.372191
V1    V     V_3+5 0.935320 0.490890 0.001840 1.428575
O8    O     O_R   0.324240 0.593470 0.912400 -0.546723
C3    C     C_R   0.154068 0.619232 0.887078 0.796802
O9    O     O_R   0.329690 0.565410 0.055470 -0.543861
C4    C     C_R   0.161435 0.579069 0.076223 0.783088
V2    V     V_3+5 0.435990 0.509110 0.998160 1.404802
O10   O     O_3   0.158840 0.450900 0.009930 -0.374547
C5    C     C_3   0.940498 0.700659 0.243423 -0.332372
C6    C     C_3   0.294287 0.679838 0.266704 -0.328946
C7    C     C_3   0.286591 0.727827 0.316359 -0.327629
H1    H     H_    0.898777 0.708433 0.348325 0.136584
H2    H     H_    0.910306 0.637483 0.275096 0.134328
H3    H     H_    0.439442 0.685723 0.242446 0.136071
H4    H     H_    0.271289 0.616238 0.298828 0.136276
H5    H     H_    0.259837 0.687094 0.372124 0.135307
H6    H     H_    0.428090 0.756524 0.315739 0.136435
C8    C     C_1   0.112964 0.874861 0.378321 -0.192705
C9    C     C_3   0.139751 0.709067 0.207240 0.291804
C10   C     C_3   0.932802 0.748711 0.293034 -0.326341
C11   C     C_3   0.126670 0.791193 0.292157 0.292098
C12   C     C_3   0.168847 0.845940 0.214089 -0.331952
C13   C     C_3   0.176347 0.797914 0.164422 -0.320084
C14   C     C_1   0.119314 0.837159 0.339719 -0.102715
C15   C     C_1   0.147195 0.662947 0.159848 -0.109915
C16   C     C_1   0.153566 0.624949 0.121526 -0.188784
H7    H     H_    0.066749 0.820941 0.121558 0.136516
H8    H     H_    0.319125 0.806046 0.138140 0.137128
H9    H     H_    0.055815 0.891918 0.194845 0.138858
H10   H     H_    0.826304 0.721772 0.202092 0.132843
H11   H     H_    0.814997 0.792726 0.275286 0.135628
H12   H     H_    0.308085 0.876908 0.211484 0.135088
H13   H     H_    0.355834 0.534605 0.695890 0.102353
C17   C     C_R   0.009706 0.779084 0.876202 0.446551
C18   C     C_R   0.970500 0.857483 0.869466 -0.197854
C19   C     C_R   0.970546 0.918280 0.803860 -0.198035
C20   C     C_R   0.016852 0.903851 0.743365 -0.134351
C21   C     C_R   0.069714 0.827700 0.747140 0.018635
C22   C     C_R   0.073513 0.763813 0.814881 -0.017310
C23   C     C_R   0.120451 0.815819 0.683974 -0.157094
C24   C     C_R   0.184165 0.740994 0.687691 0.074176
C25   C     C_R   0.195313 0.677327 0.754643 0.057120
C26   C     C_R   0.141038 0.688134 0.818363 -0.188799
C27   C     C_R   0.235969 0.727981 0.625174 -0.135469
C28   C     C_R   0.297972 0.654293 0.628442 -0.120483
C29   C     C_R   0.308622 0.591940 0.693610 -0.124805
C30   C     C_R   0.257465 0.602853 0.755975 -0.144740
H14   H     H_    0.935901 0.871993 0.915332 0.117260
H15   H     H_    0.932217 0.977143 0.799815 0.121113
H16   H     H_    0.014133 0.954016 0.693605 0.122342
H17   H     H_    0.228503 0.774423 0.573060 0.094140
H18   H     H_    0.337079 0.645466 0.580074 0.105669
H19   H     H_    0.266079 0.551846 0.804937 0.100412
H20   H     H_    0.941357 0.454054 0.305984 0.105791
C31   C     C_R   0.485183 0.234731 0.124811 -0.131180
C32   C     C_R   0.400664 0.164325 0.127766 -0.120413
C33   C     C_R   0.388175 0.100994 0.192253 -0.129175
C34   C     C_R   0.460228 0.107569 0.254279 -0.141198
C35   C     C_R   0.544977 0.178634 0.253225 0.068745
C36   C     C_R   0.557604 0.243625 0.187057 0.068490
C37   C     C_R   0.620230 0.185012 0.316325 -0.186108
C38   C     C_R   0.707799 0.256547 0.313134 0.070054
C39   C     C_R   0.720460 0.321531 0.246960 0.069425
C40   C     C_R   0.645264 0.315140 0.183867 -0.185454
C41   C     C_R   0.780017 0.265484 0.375383 -0.132205
C42   C     C_R   0.864363 0.335925 0.372424 -0.125263
C43   C     C_R   0.876930 0.399237 0.307925 -0.128747
C44   C     C_R   0.805110 0.392616 0.245890 -0.143187
H21   H     H_    0.494458 0.281610 0.073047 0.107667
H22   H     H_    0.345867 0.158720 0.079605 0.123058
H23   H     H_    0.323611 0.046202 0.194188 0.109745
H24   H     H_    0.449833 0.056026 0.302734 0.111332
H25   H     H_    0.770662 0.218617 0.427149 0.102528
H26   H     H_    0.918969 0.341574 0.420591 0.104674
H27   H     H_    0.815567 0.444139 0.197415 0.106398
O11   O     O_R   0.770890 0.084490 0.414040 -0.536363
O12   O     O_R   0.445980 0.065450 0.555510 -0.533311
O13   O     O_R   0.270670 0.915620 0.586180 -0.534853
C45   C     C_R   0.614189 0.079754 0.575925 0.721826
O14   O     O_R   0.441480 0.093500 0.412450 -0.539030
O15   O     O_R   0.266140 0.943870 0.442100 -0.540529
C46   C     C_R   0.610172 0.116545 0.385160 0.690353
O16   O     O_R   0.775410 0.056240 0.558120 -0.539397
O17   O     O_3   0.602660 0.950990 0.510100 -0.368181
V3    V     V_3+5 0.329740 0.009100 0.498130 1.428408
O18   O     O_R   0.936120 0.934420 0.444240 -0.537253
C47   C     C_R   0.104684 0.920457 0.423901 0.719338
O19   O     O_R   0.940610 0.906370 0.587310 -0.537979
C48   C     C_R   0.109931 0.882738 0.614124 0.691527
V4    V     V_3+5 0.829110 0.990690 0.501470 1.423515
O20   O     O_3   0.106080 0.049010 0.489880 -0.367418
C49   C     C_3   0.681925 0.297740 0.665593 -0.457756
C50   C     C_3   0.408693 0.207015 0.743199 0.806322
C51   C     C_3   0.408227 0.270365 0.780509 0.312725
H28   H     H_    0.623784 0.399759 0.694791 0.146379
H29   H     H_    0.591758 0.331932 0.619783 0.148169
H30   H     H_    0.338169 0.324893 0.743578 0.014237
C52   C     C_1   0.642595 0.375521 0.878186 -0.219901
C53   C     C_3   0.612241 0.211013 0.705923 0.136535
C54   C     C_3   0.701496 0.342665 0.717217 -0.432378
C55   C     C_3   0.620739 0.292496 0.791689 0.150734
C56   C     C_3   0.739875 0.215218 0.822622 -0.350214
C57   C     C_3   0.762058 0.176129 0.766574 -0.381917
C58   C     C_1   0.634607 0.338090 0.839419 -0.023633
C59   C     C_1   0.617046 0.164391 0.658862 -0.004307
C60   C     C_1   0.619396 0.125979 0.620895 -0.187475
H31   H     H_    0.907871 0.187756 0.743415 0.206709
H32   H     H_    0.748786 0.110989 0.792851 0.172412
H33   H     H_    0.883100 0.226159 0.839905 0.159798
H34   H     H_    0.823812 0.297036 0.641495 0.184693
H35   H     H_    0.855109 0.356787 0.721787 0.182304
H36   H     H_    0.667964 0.173534 0.871012 0.200636
O21   O     O_3   0.991995 0.718092 0.942245 -0.569292
C61   C     C_3   0.823975 0.726280 0.978376 -0.212900
H37   H     H_    0.698973 0.748011 0.941848 0.124845
H38   H     H_    0.852400 0.764758 0.008997 0.111092
H39   H     H_    0.781670 0.668380 0.017863 0.182293
O22   O     O_3   0.402837 0.129846 0.798248 -0.561405
C62   C     C_3   0.219199 0.095417 0.814829 -0.144988
H40   H     H_    0.122573 0.131942 0.833156 0.167245
H41   H     H_    0.233959 0.037898 0.859567 0.132923
H42   H     H_    0.157657 0.083108 0.769187 0.151691
O23   O     O_3   0.246080 0.215874 0.696747 -0.580976
C63   C     C_3   0.251908 0.278847 0.630235 -0.386719
H43   H     H_    0.355299 0.267632 0.593615 0.163694
H44   H     H_    0.273336 0.336790 0.635081 0.130045
H45   H     H_    0.111832 0.281543 0.603693 0.171826
O24   O     O_3   0.311466 0.239978 0.847211 -0.546774
C64   C     C_3   0.192308 0.297378 0.857878 -0.267681
H46   H     H_    0.092175 0.324618 0.812663 0.122807
H47   H     H_    0.275788 0.344746 0.866272 0.152829
H48   H     H_    0.106324 0.268528 0.906793 0.160510

loop_
_geom_bond_atom_site_label_1
_geom_bond_atom_site_label_2
_ccdc_geom_bond_type
C50   C53   S    
C8    C14   T    
O22   C62   S    
C33   H23   S    
C45   O16   A    
C41   C42   A    
C29   C30   A    
O12   V3    S    
C1    O6    A    
O17   V4    S    
C52   C58   T    
C28   C29   A    
C9    C15   S    
C23   C48   S    
C64   H47   S    
C50   C51   S    
C10   C11   S    
C27   H17   S    
C11   C14   S    
O5    C3    A    
C12   C13   S    
O18   V4    S    
V2    O10   S    
V4    O20   S    
C49   H29   S    
C54   C55   S    
C44   H27   S    
C51   H30   S    
C6    C7    S    
O13   C48   A    
C56   C57   S    
C53   C59   S    
C45   C60   S    
O14   V3    S    
O8    V2    S    
C63   H43   S    
O19   V4    S    
C38   C39   A    
O1    V2    S    
O7    V1    S    
V3    O20   S    
C5    H10   S    
C53   C57   S    
C34   C35   A    
O1    C2    A    
O9    C4    A    
C54   H35   S    
O18   C47   A    
O11   C46   A    
C42   H26   S    
C56   H33   S    
C41   H25   S    
C28   H18   S    
C25   C26   A    
O12   C45   A    
C64   H48   S    
C21   C23   A    
C20   H16   S    
C49   C54   S    
C42   C43   A    
C6    C9    S    
C9    C13   S    
C6    H4    S    
C5    C9    S    
C55   C58   S    
C56   H36   S    
O4    C2    A    
C22   C26   A    
H1    C10   S    
C10   H11   S    
C20   C21   A    
C5    H2    S    
C35   C36   A    
C12   H9    S    
C35   C37   A    
O15   C47   A    
O2    C1    A    
C43   C44   A    
C62   H41   S    
O5    V1    S    
C11   C12   S    
O13   V3    S    
C19   H15   S    
C36   C40   A    
C24   C27   A    
O19   C48   A    
C38   C41   A    
C50   O22   S    
C2    C52   S    
C12   H12   S    
O21   C61   S    
H28   C54   S    
O3    C4    A    
C50   O23   S    
C23   C24   A    
O14   C46   A    
C33   C34   A    
O6    V2    S    
O9    V2    S    
C18   C19   A    
C13   H7    S    
H20   C43   S    
C49   H34   S    
C17   C18   A    
C61   H38   S    
C37   C46   S    
O2    V1    S    
C1    C40   S    
C3    C26   S    
C27   C28   A    
C59   C60   T    
C31   H21   S    
C8    C47   S    
C21   C22   A    
C49   C53   S    
C6    H3    S    
C5    C10   S    
C32   H22   S    
C19   C20   A    
O24   C64   S    
O23   C63   S    
C4    C16   S    
O8    C3    A    
C34   H24   S    
C64   H46   S    
C31   C36   A    
C25   C30   A    
C57   H32   S    
O11   V4    S    
C32   C33   A    
C61   H39   S    
C7    H5    S    
O7    V2    S    
C62   H42   S    
O4    V1    S    
O3    V1    S    
V1    O10   S    
C55   C56   S    
C39   C44   A    
C63   H45   S    
C30   H19   S    
O17   V3    S    
C15   C16   T    
C17   C22   A    
O16   V4    S    
O15   V3    S    
C37   C38   A    
C7    H6    S    
C51   O24   S    
H13   C29   S    
C31   C32   A    
C18   H14   S    
C39   C40   A    
C63   H44   S    
C24   C25   A    
C13   H8    S    
C51   C55   S    
C57   H31   S    
C61   H37   S    
C62   H40   S    
C17   O21   S    
C7    C11   S    
