data_mof_unit_6007.cif
_audit_creation_date              2013-03-05T15:53:42-0500
_audit_creation_method            fapswitch 2.2
_symmetry_space_group_name_H-M    P1
_symmetry_Int_Tables_number       1
_space_group_crystal_system       triclinic
_cell_length_a                    12.985313
_cell_length_b                    13.255351
_cell_length_c                    27.691922
_cell_angle_alpha                 94.61416
_cell_angle_beta                  90.285241
_cell_angle_gamma                 119.466842
_cell_volume                      4130.97694288

loop_
_atom_site_label
_atom_site_type_symbol
_atom_site_description
_atom_site_fract_x
_atom_site_fract_y
_atom_site_fract_z
_atom_type_partial_charge
O1    O     O_R   0.296680 0.802170 0.437540 -0.516818
O2    O     O_R   0.525380 0.838530 0.443500 -0.501864
C1    C     C_R   0.628160 0.895052 0.427437 0.548700
O3    O     O_R   0.702130 0.995190 0.446810 -0.517641
O4    O     O_R   0.661770 0.181390 0.458760 -0.492806
C2    C     C_R   0.601252 0.222522 0.440700 0.544529
O5    O     O_R   0.499820 0.198480 0.455280 -0.515350
O6    O     O_R   0.311660 0.976250 0.449080 -0.506849
C3    C     C_R   0.268082 0.876535 0.426264 0.546881
O7    O     O_R   0.297580 0.804960 0.544440 -0.508928
O8    O     O_R   0.526220 0.841130 0.542590 -0.494069
C4    C     C_R   0.627401 0.898048 0.564792 0.546880
O9    O     O_R   0.703030 0.997990 0.553710 -0.512762
O10   O     O_R   0.662610 0.183990 0.557860 -0.506937
C5    C     C_R   0.604291 0.228103 0.577940 0.545946
O11   O     O_R   0.500730 0.201280 0.562180 -0.513566
O12   O     O_R   0.312500 0.978850 0.548170 -0.492679
C6    C     C_R   0.271317 0.878962 0.563285 0.546186
Cr1   Cr    Cr6+3 0.416430 0.829200 0.492370 1.023606
Cr2   Cr    Cr6+3 0.674630 0.087020 0.504170 1.020540
Cr3   Cr    Cr6+3 0.408920 0.083740 0.503490 1.020407
O13   O     O_3   0.499990 0.999990 0.500010 -0.241632
C7    C     C_1   0.635098 0.273322 0.395638 -0.018369
C8    C     C_R   0.750302 0.305649 0.278409 -0.106783
C9    C     C_R   0.757518 0.318851 0.228698 -0.108503
C10   C     C_R   0.610742 0.381475 0.233328 -0.094622
C11   C     C_R   0.603449 0.368239 0.282957 -0.103530
C12   C     C_R   0.673010 0.330039 0.305609 0.037655
C13   C     C_R   0.687009 0.355930 0.206008 0.041326
C14   C     C_1   0.696421 0.374162 0.155351 -0.045344
C15   C     C_1   0.655876 0.304135 0.355354 -0.061160
C16   C     C_1   0.704721 0.398025 0.113962 0.002614
H1    H     H_    0.803413 0.274647 0.295448 0.111728
H2    H     H_    0.817648 0.299992 0.208016 0.115936
H3    H     H_    0.556529 0.411068 0.216179 0.118588
H4    H     H_    0.542236 0.385874 0.303444 0.107925
C17   C     C_R   0.139067 0.747600 0.356595 -0.135192
C18   C     C_R   0.108455 0.734361 0.307409 0.018709
C19   C     C_R   0.075864 0.710500 0.206925 -0.001492
C20   C     C_R   0.034176 0.611460 0.232328 -0.115431
C21   C     C_R   0.050428 0.623326 0.282448 -0.123619
C22   C     C_R   0.064658 0.698238 0.157074 -0.169579
H5    H     H_    0.020081 0.610729 0.138830 0.148004
H6    H     H_    0.119154 0.672007 0.375534 0.121023
H7    H     H_    0.991723 0.524997 0.213274 0.113556
H8    H     H_    0.021316 0.546121 0.301447 0.109310
C23   C     C_R   0.102289 0.795547 0.130761 -0.006184
C24   C     C_R   0.229473 0.957655 0.356478 -0.132843
C25   C     C_R   0.202994 0.946194 0.307119 0.010064
C26   C     C_R   0.144879 0.834357 0.282112 0.072182
C27   C     C_R   0.242875 0.045114 0.281895 -0.153363
C28   C     C_R   0.228401 0.033695 0.231574 -0.116982
C29   C     C_R   0.171005 0.922733 0.205688 -0.004800
C30   C     C_R   0.129273 0.822623 0.231562 0.029002
C31   C     C_R   0.155900 0.908770 0.154664 0.181757
C32   C     C_R   0.205167 0.859174 0.380284 -0.002545
H9    H     H_    0.264241 0.112368 0.213329 0.176574
H10   H     H_    0.289146 0.131592 0.300939 0.109826
H11   H     H_    0.280160 0.044398 0.375052 0.137190
C33   C     C_R   0.770860 0.914816 0.364558 -0.131436
C34   C     C_R   0.792799 0.889442 0.317163 0.011387
C35   C     C_R   0.825916 0.855537 0.218513 0.011244
C36   C     C_R   0.918082 0.944535 0.248623 -0.123539
C37   C     C_R   0.902032 0.960882 0.297767 -0.130485
C38   C     C_R   0.837831 0.845393 0.168639 -0.133113
H12   H     H_    0.920023 0.905487 0.153364 0.166643
H13   H     H_    0.839806 0.989681 0.386391 0.130416
H14   H     H_    0.000817 0.004310 0.233777 0.141125
H15   H     H_    0.973229 0.032488 0.320096 0.111202
C39   C     C_R   0.743002 0.760849 0.138076 -0.015954
C40   C     C_R   0.569741 0.751856 0.354320 -0.134898
C41   C     C_R   0.590638 0.724673 0.306820 0.013055
C42   C     C_R   0.701256 0.796197 0.287664 0.064649
C43   C     C_R   0.500467 0.632012 0.277142 -0.133847
C44   C     C_R   0.517496 0.614283 0.228090 -0.137183
C45   C     C_R   0.624708 0.689261 0.208087 0.010626
C46   C     C_R   0.718031 0.778948 0.238242 0.065958
C47   C     C_R   0.638429 0.679671 0.158147 -0.128336
C48   C     C_R   0.657667 0.850438 0.382391 -0.006401
H16   H     H_    0.566100 0.611959 0.134864 0.144343
H17   H     H_    0.445444 0.544405 0.205463 0.120151
H18   H     H_    0.415432 0.575769 0.291454 0.110232
H19   H     H_    0.482710 0.700892 0.368170 0.128187
C49   C     C_R   0.734749 0.280489 0.651273 -0.133774
C50   C     C_R   0.751463 0.308427 0.701169 0.004926
C51   C     C_R   0.762519 0.338983 0.803097 0.022632
C52   C     C_R   0.830607 0.297029 0.778577 -0.103251
C53   C     C_R   0.825256 0.282237 0.728101 -0.143032
C54   C     C_R   0.763248 0.350964 0.854212 0.137765
H20   H     H_    0.779897 0.238259 0.633679 0.137828
H21   H     H_    0.887396 0.273889 0.797851 0.173748
H22   H     H_    0.876064 0.246729 0.710157 0.116557
C55   C     C_R   0.695699 0.396593 0.876707 0.013785
C56   C     C_R   0.593109 0.349783 0.647825 -0.135064
C57   C     C_R   0.610778 0.380541 0.697625 0.012785
C58   C     C_R   0.686313 0.354952 0.724765 0.059058
C59   C     C_R   0.547281 0.428162 0.721137 -0.123976
C60   C     C_R   0.553435 0.444425 0.771459 -0.119233
C61   C     C_R   0.622892 0.412934 0.798589 -0.006058
C62   C     C_R   0.691722 0.370151 0.775553 0.026806
C63   C     C_R   0.624783 0.424793 0.848540 -0.164348
C64   C     C_R   0.649175 0.293062 0.625297 -0.006008
H23   H     H_    0.574125 0.461813 0.865474 0.146431
H24   H     H_    0.501828 0.479240 0.789216 0.116195
H25   H     H_    0.490129 0.449323 0.700735 0.113594
H26   H     H_    0.529047 0.361690 0.627370 0.127826
C65   C     C_1   0.220555 0.861431 0.609781 -0.012524
C66   C     C_R   0.068405 0.750748 0.717799 -0.111977
C67   C     C_R   0.053235 0.741136 0.767503 -0.114243
C68   C     C_R   0.236668 0.923243 0.785462 -0.100350
C69   C     C_R   0.251849 0.932835 0.735772 -0.104421
C70   C     C_R   0.168193 0.846324 0.701849 0.031310
C71   C     C_R   0.137872 0.826831 0.801411 0.031471
C72   C     C_1   0.121727 0.814589 0.852367 -0.047754
C73   C     C_1   0.191055 0.852421 0.651101 -0.059326
C74   C     C_1   0.099316 0.797612 0.894091 0.004736
H27   H     H_    0.003661 0.682949 0.691949 0.117386
H28   H     H_    0.976089 0.666399 0.779507 0.120078
H29   H     H_    0.302343 0.990106 0.811325 0.127272
H30   H     H_    0.329895 0.006664 0.723785 0.121233
C75   C     C_1   0.647957 0.857723 0.608497 -0.017956
C76   C     C_R   0.783791 0.826467 0.715065 -0.103670
C77   C     C_R   0.796640 0.811554 0.763789 -0.099842
C78   C     C_R   0.586995 0.740178 0.772722 -0.105767
C79   C     C_R   0.574118 0.754978 0.724054 -0.107340
C80   C     C_R   0.672707 0.799719 0.695262 0.034716
C81   C     C_R   0.698604 0.770179 0.792924 0.040347
C82   C     C_1   0.713592 0.763423 0.843921 -0.052565
C83   C     C_1   0.661052 0.828689 0.647227 -0.060250
C84   C     C_1   0.728168 0.759264 0.886618 -0.010370
H31   H     H_    0.860869 0.861943 0.693323 0.115393
H32   H     H_    0.883417 0.835129 0.779057 0.121334
H33   H     H_    0.510587 0.707998 0.794856 0.117827
H34   H     H_    0.487974 0.734851 0.709275 0.116442
O14   O     O_R   0.820790 0.857990 0.068830 -0.475548
O15   O     O_R   0.016700 0.827330 0.062850 -0.473199
C85   C     C_R   0.061697 0.770565 0.079980 0.579860
O16   O     O_R   0.041970 0.673520 0.060040 -0.519343
O17   O     O_R   0.817980 0.483660 0.048840 -0.494396
C86   C     C_R   0.717095 0.441632 0.067426 0.549618
O18   O     O_R   0.637200 0.461990 0.052510 -0.503771
O19   O     O_R   0.664790 0.681920 0.057970 -0.487870
C87   C     C_R   0.756334 0.757853 0.085449 0.553993
O20   O     O_R   0.815840 0.852920 0.961840 -0.470229
O21   O     O_R   0.012100 0.822630 0.963670 -0.504450
C88   C     C_R   0.056547 0.766563 0.941226 0.549980
O22   O     O_R   0.037010 0.668460 0.953040 -0.482250
O23   O     O_R   0.813390 0.478970 0.949660 -0.450217
C89   C     C_R   0.711183 0.436810 0.928319 0.573698
O24   O     O_R   0.632250 0.456930 0.945520 -0.528072
O25   O     O_R   0.660200 0.677230 0.958780 -0.483539
C90   C     C_R   0.749602 0.753874 0.937006 0.555114
Cr4   Cr    Cr6+3 0.914010 0.832750 0.013970 1.099573
Cr5   Cr    Cr6+3 0.922310 0.578600 0.003000 1.075422
Cr6   Cr    Cr6+3 0.656280 0.574630 0.003870 1.045985
O26   O     O_3   0.830870 0.661990 0.006950 -0.327072
Br1   Br    Br    0.851014 0.301057 0.893162 -0.483396
N1    N     N_R   0.193617 0.007584 0.127237 0.070876
O27   O     O_R   0.150780 0.077519 0.135203 -0.365065
O28   O     O_R   0.260473 0.020421 0.090779 -0.310515

loop_
_geom_bond_atom_site_label_1
_geom_bond_atom_site_label_2
_geom_bond_distance
_ccdc_geom_bond_type
C79   H34   1.083614 S    
C14   C16   1.204717 T    
C52   C53   1.392324 A    
C33   C48   1.404820 A    
O11   Cr3   2.058161 S    
C52   H21   1.080595 S    
C77   H32   1.083376 S    
C39   C47   1.406029 A    
C49   C64   1.404817 A    
C35   C46   1.410431 A    
C55   C89   1.461655 S    
C57   C58   1.415258 A    
C1    C48   1.470228 S    
C40   C48   1.405459 A    
O21   C88   1.273975 A    
O4    Cr2   1.905371 S    
C29   C30   1.420310 A    
O8    Cr1   1.927326 S    
C10   C11   1.397239 A    
C35   C36   1.400728 A    
C86   O18   1.268408 A    
O23   Cr5   1.937511 S    
C78   H33   1.083424 S    
O15   C85   1.272708 A    
C17   C18   1.389785 A    
C45   C47   1.398866 A    
C16   C86   1.432192 S    
O4    C2    1.275319 A    
C50   C58   1.406055 A    
C47   H16   1.083933 S    
C19   C30   1.404773 A    
C5    O11   1.274389 A    
C66   C67   1.398468 A    
O20   Cr4   2.039492 S    
C25   C26   1.405582 A    
O22   Cr5   2.022724 S    
C6    C65   1.432568 S    
C68   C69   1.398061 A    
C17   C32   1.394180 A    
C31   N1    1.436986 S    
C56   H26   1.084724 S    
C4    C75   1.436283 S    
C53   H22   1.083923 S    
C33   H13   1.084362 S    
O6    C3    1.262003 A    
C25   C27   1.399394 A    
C21   H8    1.083966 S    
C8    C9    1.399423 A    
O25   Cr6   1.901842 S    
O19   Cr6   1.944252 S    
C51   C62   1.419512 A    
O7    Cr1   2.042789 S    
Cr5   O26   1.979083 S    
C35   C38   1.393635 A    
C67   C71   1.403478 A    
C9    H2    1.083319 S    
O21   Cr4   1.932940 S    
O16   Cr5   2.055427 S    
O14   C87   1.297412 A    
C38   C39   1.402795 A    
C63   H23   1.084901 S    
Cr3   O13   1.978811 S    
N1    O28   1.301130 A    
C49   H20   1.084550 S    
C43   H18   1.083581 S    
C67   H28   1.084146 S    
C59   C60   1.388638 A    
C19   C22   1.375463 A    
C40   H19   1.084215 S    
C29   C31   1.410184 A    
C9    C13   1.400476 A    
C20   H7    1.083536 S    
O1    Cr1   2.047581 S    
C43   C44   1.397129 A    
C88   O22   1.267717 A    
C27   C28   1.391228 A    
O10   Cr2   1.944034 S    
Cr1   O13   1.962442 S    
O1    C3    1.271057 A    
C49   C50   1.388879 A    
C18   C21   1.397066 A    
C41   C43   1.402888 A    
C55   C63   1.405176 A    
C19   C20   1.401624 A    
C3    C32   1.448847 S    
C51   C52   1.407487 A    
C44   H17   1.083569 S    
C80   C83   1.441210 S    
C34   C42   1.410829 A    
O5    Cr3   2.016158 S    
O12   Cr3   1.900289 S    
C66   C70   1.399932 A    
C82   C84   1.206377 T    
C33   C34   1.394198 A    
C7    C15   1.204961 T    
C76   C80   1.401714 A    
C34   C37   1.401813 A    
C44   C45   1.402768 A    
C13   C14   1.438177 S    
C77   C81   1.402437 A    
C61   C62   1.404816 A    
C69   C70   1.403023 A    
O25   C90   1.299454 A    
C23   C85   1.452911 S    
O12   C6    1.268477 A    
C39   C87   1.468129 S    
C27   H10   1.084022 S    
C26   C30   1.398543 A    
C37   H15   1.083744 S    
C45   C46   1.411366 A    
Cr4   O26   1.962049 S    
C68   C71   1.399124 A    
C65   C73   1.204808 T    
C78   C81   1.400211 A    
C24   C25   1.385660 A    
C61   C63   1.378248 A    
Cr2   O13   1.972051 S    
C38   H12   1.083887 S    
O24   Cr6   2.062220 S    
C84   C90   1.435731 S    
N1    O27   1.301176 A    
C22   H5    1.085372 S    
C81   C82   1.440491 S    
C76   H31   1.083454 S    
C11   C12   1.400426 A    
C28   C29   1.406855 A    
C24   H11   1.084782 S    
C23   C31   1.408141 A    
C71   C72   1.437973 S    
C50   C53   1.398833 A    
C24   C32   1.404811 A    
C36   H14   1.081836 S    
C20   C21   1.387420 A    
O9    Cr2   2.023437 S    
O2    Cr1   1.929274 S    
O19   C87   1.302235 A    
C66   H27   1.083537 S    
C12   C15   1.438396 S    
O18   Cr6   2.016892 S    
C8    C12   1.402421 A    
C75   C83   1.206786 T    
C41   C42   1.411444 A    
C51   C54   1.411055 A    
O6    Cr3   1.939226 S    
C68   H29   1.083483 S    
C72   C74   1.204599 T    
O17   C86   1.275239 A    
C57   C59   1.397664 A    
C54   Br1   1.934984 S    
C2    O5    1.269818 A    
C18   C26   1.416776 A    
C11   H4    1.083639 S    
C85   O16   1.259115 A    
C8    H1    1.083477 S    
O17   Cr5   1.904537 S    
C17   H6    1.084874 S    
O2    C1    1.271297 A    
C59   H25   1.083856 S    
C40   C41   1.398991 A    
O20   C90   1.293934 A    
C89   O24   1.265689 A    
C74   C88   1.431870 S    
O15   Cr4   1.925459 S    
C79   C80   1.402001 A    
O7    C6    1.264669 A    
C60   H24   1.083916 S    
C2    C7    1.432890 S    
C58   C62   1.401071 A    
C22   C23   1.402914 A    
C5    C64   1.455296 S    
C54   C55   1.410677 A    
C56   C57   1.391055 A    
C28   H9    1.081190 S    
C36   C37   1.393630 A    
O3    Cr2   2.062632 S    
C10   H3    1.083184 S    
C4    O9    1.265734 A    
C56   C64   1.397185 A    
C10   C13   1.401407 A    
C60   C61   1.402237 A    
Cr6   O26   1.971626 S    
C42   C46   1.405130 A    
O10   C5    1.269698 A    
C69   H30   1.083899 S    
C76   C77   1.400207 A    
O23   C89   1.277629 A    
C70   C73   1.438190 S    
O14   Cr4   2.054289 S    
C1    O3    1.264212 A    
O8    C4    1.271043 A    
C78   C79   1.398342 A    
