data_mof_unit_7487.cif
_audit_creation_date              2013-03-05T15:46:11-0500
_audit_creation_method            fapswitch 2.2
_symmetry_space_group_name_H-M    P1
_symmetry_Int_Tables_number       1
_space_group_crystal_system       triclinic
_cell_length_a                    18.261365
_cell_length_b                    18.311986
_cell_length_c                    34.501595
_cell_angle_alpha                 90.095556
_cell_angle_beta                  90.049999
_cell_angle_gamma                 89.797409
_cell_volume                      11537.3050468

loop_
_atom_site_label
_atom_site_type_symbol
_atom_site_description
_atom_site_fract_x
_atom_site_fract_y
_atom_site_fract_z
_atom_type_partial_charge
Zn1   Zn    Zn3+2 1.000000 0.586740 0.032740 0.967073
Zn2   Zn    Zn3+2 0.413260 0.000000 0.032740 0.974134
Zn3   Zn    Zn3+2 1.000000 0.413260 0.032740 0.967250
Zn4   Zn    Zn3+2 0.586740 0.000000 0.032740 0.955926
Zn5   Zn    Zn3+2 0.500000 0.086740 0.532740 0.970352
Zn6   Zn    Zn3+2 0.913260 0.500000 0.532740 0.973046
Zn7   Zn    Zn3+2 0.500000 0.913260 0.532740 0.961386
Zn8   Zn    Zn3+2 0.086740 0.500000 0.532740 0.953292
Zn9   Zn    Zn3+2 0.913250 0.500000 0.967240 1.008598
Zn10  Zn    Zn3+2 0.500000 0.913250 0.967240 0.966456
Zn11  Zn    Zn3+2 0.086750 0.500000 0.967240 0.980868
Zn12  Zn    Zn3+2 0.500000 0.086750 0.967240 0.998285
Zn13  Zn    Zn3+2 0.413250 1.000000 0.467240 0.991792
Zn14  Zn    Zn3+2 1.000000 0.413250 0.467240 0.977826
Zn15  Zn    Zn3+2 0.586750 1.000000 0.467240 0.987419
Zn16  Zn    Zn3+2 1.000000 0.586750 0.467240 0.998012
O1    O     O_3   0.000000 0.500000 0.999990 -0.510098
O2    O     O_3   0.500000 0.000000 0.999990 -0.501631
O3    O     O_3   0.500000 0.000000 0.499990 -0.505119
O4    O     O_3   0.000000 0.500000 0.499990 -0.500407
O5    O     O_R   0.060750 0.500000 0.912560 -0.597638
O6    O     O_R   0.500000 0.060750 0.912560 -0.597797
O7    O     O_R   0.939250 0.500000 0.912560 -0.585700
O8    O     O_R   0.500000 0.939250 0.912560 -0.628286
O9    O     O_R   0.560750 0.000000 0.412560 -0.598433
O10   O     O_R   0.000000 0.560750 0.412560 -0.603598
O11   O     O_R   0.439250 0.000000 0.412560 -0.607405
O12   O     O_R   0.000000 0.439250 0.412560 -0.630986
O13   O     O_R   0.000000 0.560690 0.087420 -0.655010
O14   O     O_R   0.439310 0.000000 0.087420 -0.654693
O15   O     O_R   0.000000 0.439310 0.087420 -0.644954
O16   O     O_R   0.560690 0.000000 0.087420 -0.651798
O17   O     O_R   0.500000 0.060690 0.587420 -0.647657
O18   O     O_R   0.939310 0.500000 0.587420 -0.652480
O19   O     O_R   0.500000 0.939310 0.587420 -0.652456
O20   O     O_R   0.060690 0.500000 0.587420 -0.654229
O21   O     O_R   0.853830 0.585440 0.977070 -0.652867
O22   O     O_R   0.414560 0.853830 0.977070 -0.659091
O23   O     O_R   0.146170 0.414560 0.977070 -0.655061
O24   O     O_R   0.585440 0.146170 0.977070 -0.619792
O25   O     O_R   0.146170 0.585440 0.977070 -0.656316
O26   O     O_R   0.585440 0.853830 0.977070 -0.660171
O27   O     O_R   0.853830 0.414560 0.977070 -0.602011
O28   O     O_R   0.414560 0.146170 0.977070 -0.652598
O29   O     O_R   0.353830 0.085440 0.477070 -0.665500
O30   O     O_R   0.914560 0.353830 0.477070 -0.654836
O31   O     O_R   0.646170 0.914560 0.477070 -0.657179
O32   O     O_R   0.085440 0.646170 0.477070 -0.619083
O33   O     O_R   0.646170 0.085440 0.477070 -0.646013
O34   O     O_R   0.085440 0.353830 0.477070 -0.649239
O35   O     O_R   0.353830 0.914560 0.477070 -0.598811
O36   O     O_R   0.914560 0.646170 0.477070 -0.649829
O37   O     O_R   0.085460 0.353830 0.022910 -0.612116
O38   O     O_R   0.646170 0.085460 0.022910 -0.654594
O39   O     O_R   0.914540 0.646170 0.022910 -0.615021
O40   O     O_R   0.353830 0.914540 0.022910 -0.602804
O41   O     O_R   0.914540 0.353830 0.022910 -0.650388
O42   O     O_R   0.353830 0.085460 0.022910 -0.630851
O43   O     O_R   0.085460 0.646170 0.022910 -0.616764
O44   O     O_R   0.646170 0.914540 0.022910 -0.634132
O45   O     O_R   0.585460 0.853830 0.522910 -0.623198
O46   O     O_R   0.146170 0.585460 0.522910 -0.655766
O47   O     O_R   0.414540 0.146170 0.522910 -0.626703
O48   O     O_R   0.853830 0.414540 0.522910 -0.614416
O49   O     O_R   0.414540 0.853830 0.522910 -0.653285
O50   O     O_R   0.853830 0.585460 0.522910 -0.643072
O51   O     O_R   0.585460 0.146170 0.522910 -0.630316
O52   O     O_R   0.146170 0.414540 0.522910 -0.646716
C1    C     C_R   0.999982 0.500111 0.894016 0.858143
C2    C     C_R   0.499804 0.999610 0.894107 0.893741
C3    C     C_R   0.499751 0.000668 0.394033 0.872941
C4    C     C_R   0.999942 0.499675 0.394086 0.909155
C5    C     C_R   0.999732 0.500171 0.105768 0.781750
C6    C     C_R   0.500112 0.999992 0.105777 0.792104
C7    C     C_R   0.499782 0.000108 0.605745 0.782274
C8    C     C_R   0.000055 0.500016 0.605816 0.792168
C9    C     C_R   0.860038 0.639844 0.000063 0.878043
C10   C     C_R   0.361064 0.859085 0.000556 0.876735
C11   C     C_R   0.140327 0.360615 0.000316 0.877236
C12   C     C_R   0.639490 0.140529 0.000324 0.880687
C13   C     C_R   0.140825 0.639152 0.000537 0.882267
C14   C     C_R   0.639954 0.860074 0.000150 0.894638
C15   C     C_R   0.859409 0.360778 0.000477 0.864491
C16   C     C_R   0.359888 0.139764 0.000033 0.889890
C17   C     C_R   0.360108 0.139904 0.499927 0.894085
C18   C     C_R   0.860505 0.359638 0.500237 0.883521
C19   C     C_R   0.640195 0.860483 0.500193 0.885876
C20   C     C_R   0.139437 0.640588 0.500398 0.880428
C21   C     C_R   0.640409 0.139563 0.500265 0.888603
C22   C     C_R   0.140091 0.360250 0.499924 0.896115
C23   C     C_R   0.359318 0.860873 0.500541 0.869818
C24   C     C_R   0.859710 0.639550 0.499839 0.896272
C25   C     C_R   0.295710 0.597696 0.004018 -0.112131
C26   C     C_R   0.393149 0.283880 0.030069 -0.118711
C27   C     C_R   0.783588 0.324291 0.072132 -0.119947
C28   C     C_R   0.610081 0.718360 0.033913 -0.124022
C29   C     C_R   0.716769 0.608942 0.031882 -0.113926
C30   C     C_R   0.676265 0.216434 0.072112 -0.118433
C31   C     C_R   0.283666 0.390480 0.033089 -0.119735
C32   C     C_R   0.402940 0.704982 0.004831 -0.118106
C33   C     C_R   0.791597 0.101870 0.518834 -0.119326
C34   C     C_R   0.883907 0.774493 0.541642 -0.122330
C35   C     C_R   0.285056 0.822900 0.572541 -0.125616
C36   C     C_R   0.121636 0.230353 0.546541 -0.124161
C37   C     C_R   0.229720 0.122100 0.546550 -0.115378
C38   C     C_R   0.178422 0.714426 0.572603 -0.123530
C39   C     C_R   0.774621 0.881501 0.543542 -0.121561
C40   C     C_R   0.898570 0.210157 0.520205 -0.118449
H1    H     H_    0.257064 0.553542 0.005917 0.141773
H2    H     H_    0.436840 0.243826 0.030159 0.113725
H3    H     H_    0.822915 0.368169 0.073557 0.129677
H4    H     H_    0.567801 0.759675 0.036024 0.104593
H5    H     H_    0.756809 0.565249 0.032179 0.112315
H6    H     H_    0.632291 0.177202 0.073473 0.129120
H7    H     H_    0.242429 0.432792 0.035450 0.102789
H8    H     H_    0.446949 0.743799 0.007121 0.140203
H9    H     H_    0.751976 0.058206 0.519649 0.125034
H10   H     H_    0.927409 0.734196 0.541923 0.105010
H11   H     H_    0.324029 0.867086 0.573942 0.132647
H12   H     H_    0.078607 0.271116 0.547484 0.101149
H13   H     H_    0.270305 0.078900 0.547389 0.104217
H14   H     H_    0.134668 0.674989 0.574070 0.135083
H15   H     H_    0.733504 0.924104 0.545197 0.098135
H16   H     H_    0.941679 0.250345 0.521933 0.122870
C41   C     C_R   0.369374 0.578198 0.002675 -0.152245
C42   C     C_R   0.407633 0.351855 0.046566 -0.144103
C43   C     C_R   0.748172 0.305803 0.106430 -0.147948
C44   C     C_R   0.596026 0.650184 0.050185 -0.163911
C45   C     C_R   0.648838 0.595344 0.048734 -0.143402
C46   C     C_R   0.694466 0.252294 0.106406 -0.149937
C47   C     C_R   0.352730 0.404549 0.048608 -0.162641
C48   C     C_R   0.422799 0.631638 0.003164 -0.157483
C49   C     C_R   0.864186 0.083917 0.527075 -0.148921
C50   C     C_R   0.894091 0.838189 0.563147 -0.143558
C51   C     C_R   0.250929 0.803199 0.607055 -0.146656
C52   C     C_R   0.113241 0.167978 0.569222 -0.160807
C53   C     C_R   0.167006 0.113927 0.569145 -0.137964
C54   C     C_R   0.197787 0.749110 0.607084 -0.144331
C55   C     C_R   0.839298 0.891132 0.564432 -0.161216
C56   C     C_R   0.917396 0.137883 0.527952 -0.149274
C57   C     C_R   0.328395 0.726583 0.003073 0.027581
C58   C     C_R   0.267801 0.322052 0.016121 0.030635
C59   C     C_R   0.712556 0.233051 0.036973 0.023062
C60   C     C_R   0.732930 0.678304 0.016113 0.025604
C61   C     C_R   0.678556 0.733388 0.016668 0.028280
C62   C     C_R   0.766964 0.287920 0.036988 0.027137
C63   C     C_R   0.322816 0.267557 0.015239 0.025508
C64   C     C_R   0.273746 0.672012 0.002797 0.026686
C65   C     C_R   0.825773 0.229424 0.510349 0.025281
C66   C     C_R   0.763033 0.817262 0.521649 0.027596
C67   C     C_R   0.213436 0.732244 0.537246 0.025240
C68   C     C_R   0.239588 0.185091 0.523517 0.022247
C69   C     C_R   0.184857 0.239869 0.523490 0.027128
C70   C     C_R   0.267685 0.787259 0.537245 0.029672
C71   C     C_R   0.817988 0.762678 0.521066 0.023563
C72   C     C_R   0.771331 0.174609 0.509905 0.025135
C73   C     C_R   0.198961 0.693290 0.001825 -0.272753
C74   C     C_R   0.304881 0.197045 0.001571 -0.262078
C75   C     C_R   0.801744 0.306375 0.001710 -0.265050
C76   C     C_R   0.695233 0.803105 0.001660 -0.259500
C77   C     C_R   0.802893 0.694860 0.001183 -0.258757
C78   C     C_R   0.693343 0.199000 0.001535 -0.270088
C79   C     C_R   0.197552 0.305711 0.001371 -0.257571
C80   C     C_R   0.307038 0.800971 0.001355 -0.270258
C81   C     C_R   0.698024 0.194236 0.501255 -0.263896
C82   C     C_R   0.804578 0.696690 0.501057 -0.257652
C83   C     C_R   0.301561 0.806568 0.501820 -0.268284
C84   C     C_R   0.195255 0.303204 0.500873 -0.255796
C85   C     C_R   0.302846 0.194808 0.500615 -0.258473
C86   C     C_R   0.193359 0.699009 0.501680 -0.270655
C87   C     C_R   0.697339 0.805494 0.500976 -0.253878
C88   C     C_R   0.806032 0.301993 0.500985 -0.261816
C89   C     C_R   0.178769 0.767419 0.000989 0.387459
C90   C     C_R   0.232533 0.179570 0.991363 0.387306
C91   C     C_R   0.781253 0.272933 0.966772 0.409845
C92   C     C_R   0.766628 0.820464 0.989871 0.385262
C93   C     C_R   0.820010 0.765591 0.988508 0.400028
C94   C     C_R   0.723885 0.222707 0.966341 0.383117
C95   C     C_R   0.180191 0.235157 0.988656 0.407223
C96   C     C_R   0.232976 0.820699 0.998260 0.405703
C97   C     C_R   0.678953 0.266939 0.492975 0.388365
C98   C     C_R   0.736694 0.683612 0.483259 0.387851
C99   C     C_R   0.280327 0.773849 0.466790 0.400170
C100  C     C_R   0.259493 0.313241 0.479251 0.392450
C101  C     C_R   0.311960 0.257457 0.477798 0.398713
C102  C     C_R   0.223278 0.723258 0.466428 0.384110
C103  C     C_R   0.684766 0.739792 0.481234 0.402867
C104  C     C_R   0.733869 0.319803 0.490586 0.402764
C105  C     C_R   0.464408 0.943306 0.831039 0.433250
C106  C     C_R   0.063462 0.481687 0.830745 0.457532
C107  C     C_R   0.545832 0.048885 0.831551 0.493080
C108  C     C_R   0.937280 0.526584 0.831095 0.505315
C109  C     C_R   0.958116 0.447107 0.330964 0.466544
C110  C     C_R   0.436922 0.977595 0.330823 0.440777
C111  C     C_R   0.043539 0.549374 0.331352 0.441007
C112  C     C_R   0.559962 0.030065 0.331202 0.451807
C113  C     C_R   0.502480 0.997910 0.851485 -0.308698
C114  C     C_R   0.000059 0.502379 0.851294 -0.323842
C115  C     C_R   0.000162 0.498804 0.351401 -0.308491
C116  C     C_R   0.498925 0.002511 0.351334 -0.321024
C117  C     C_R   0.544658 0.051309 0.790591 -0.149720
C118  C     C_R   0.935388 0.523981 0.790251 -0.157775
C119  C     C_R   0.460819 0.945865 0.790210 -0.157495
C120  C     C_R   0.066158 0.490347 0.790244 -0.163263
C121  C     C_R   0.038419 0.554979 0.290608 -0.165435
C122  C     C_R   0.562602 0.025914 0.290409 -0.156255
C123  C     C_R   0.950512 0.452761 0.290251 -0.135292
C124  C     C_R   0.439460 0.971095 0.290151 -0.161354
C125  C     C_R   0.503137 0.998433 0.770039 -0.216291
C126  C     C_R   0.000968 0.508158 0.769926 -0.218984
C127  C     C_R   0.993316 0.505016 0.270097 -0.214821
C128  C     C_R   0.501275 0.998063 0.269966 -0.207344
C129  C     C_R   0.584221 0.105312 0.769888 0.459123
C130  C     C_R   0.869722 0.538520 0.769533 0.458455
C131  C     C_R   0.414714 0.897916 0.769072 0.428179
C132  C     C_R   0.132350 0.480027 0.769513 0.426558
C133  C     C_R   0.077795 0.608998 0.269772 0.460093
C134  C     C_R   0.625391 0.048603 0.269527 0.425986
C135  C     C_R   0.900758 0.407797 0.269424 0.433933
C136  C     C_R   0.381676 0.937712 0.269158 0.415779
C137  C     C_R   0.079671 0.607124 0.229154 0.405388
C138  C     C_R   0.623670 0.051700 0.228929 0.386763
C139  C     C_R   0.896825 0.413376 0.228630 0.379931
C140  C     C_R   0.380349 0.941195 0.228633 0.389595
C141  C     C_R   0.585593 0.103735 0.729009 0.404000
C142  C     C_R   0.870714 0.540539 0.728701 0.400023
C143  C     C_R   0.418786 0.895041 0.728583 0.384112
C144  C     C_R   0.131689 0.477999 0.728969 0.381866
C145  C     C_R   0.038040 0.555039 0.208823 -0.039787
C146  C     C_R   0.562670 0.024786 0.208699 -0.026330
C147  C     C_R   0.946816 0.457441 0.208576 -0.010903
C148  C     C_R   0.440417 0.970134 0.208568 -0.028291
C149  C     C_R   0.542807 0.052285 0.708727 -0.027629
C150  C     C_R   0.935581 0.522599 0.708633 -0.029964
C151  C     C_R   0.461416 0.946172 0.708564 -0.022153
C152  C     C_R   0.066516 0.492698 0.708771 -0.027735
C153  C     C_R   0.992505 0.506033 0.229237 -0.025137
C154  C     C_R   0.501634 0.997303 0.229142 -0.020094
C155  C     C_R   0.502661 0.998882 0.729189 -0.020648
C156  C     C_R   0.001119 0.508450 0.729178 -0.013926
C157  C     C_R   0.040523 0.551639 0.168264 -0.188250
C158  C     C_R   0.561662 0.024949 0.168181 -0.190588
C159  C     C_R   0.950547 0.454978 0.168006 -0.192987
C160  C     C_R   0.440433 0.971878 0.168090 -0.190181
C161  C     C_R   0.537863 0.054384 0.668177 -0.190771
C162  C     C_R   0.935485 0.516037 0.668232 -0.193418
C163  C     C_R   0.462336 0.946237 0.668045 -0.193998
C164  C     C_R   0.065679 0.491496 0.668322 -0.194081
C165  C     C_R   0.997767 0.501309 0.148037 -0.060778
C166  C     C_R   0.500614 0.999205 0.148005 -0.077142
C167  C     C_R   0.499964 0.000302 0.647987 -0.066795
C168  C     C_R   0.000331 0.502160 0.648105 -0.084077
O53   O     O_3   0.105692 0.786994 0.997417 -0.584207
C169  C     C_3   0.081466 0.817258 0.032818 -0.185173
H17   H     H_    0.106425 0.871610 0.038148 0.166433
H18   H     H_    0.092700 0.780194 0.057711 0.141152
H19   H     H_    0.021286 0.825208 0.031159 0.196716
O54   O     O_3   0.213933 0.108525 0.981894 -0.607696
C170  C     C_3   0.175923 0.077942 0.013578 -0.205324
H20   H     H_    0.124759 0.108476 0.020358 0.176066
H21   H     H_    0.211336 0.074969 0.039790 0.165841
H22   H     H_    0.159432 0.021618 0.006041 0.215031
O55   O     O_3   0.815924 0.291276 0.932488 -0.578358
C171  C     C_3   0.873415 0.241113 0.926030 -0.288107
H23   H     H_    0.852207 0.184720 0.921933 0.180520
H24   H     H_    0.914170 0.242341 0.950047 0.155879
H25   H     H_    0.902352 0.256779 0.899054 0.175365
O56   O     O_3   0.782297 0.890031 0.976603 -0.612766
C172  C     C_3   0.820433 0.928320 0.005807 -0.224995
H26   H     H_    0.876848 0.906516 0.009561 0.187257
H27   H     H_    0.790804 0.927378 0.034001 0.163546
H28   H     H_    0.825204 0.986279 0.996880 0.178949
O57   O     O_3   0.890456 0.782000 0.976670 -0.587546
C173  C     C_3   0.893718 0.776250 0.936005 -0.284728
H29   H     H_    0.858733 0.818244 0.921790 0.185930
H30   H     H_    0.877752 0.720772 0.926191 0.128252
H31   H     H_    0.951032 0.785543 0.926655 0.192126
O58   O     O_3   0.701370 0.192209 0.931586 -0.614973
C174  C     C_3   0.656748 0.243402 0.911990 -0.172619
H32   H     H_    0.688990 0.291011 0.901840 0.187805
H33   H     H_    0.610183 0.262246 0.930331 0.154540
H34   H     H_    0.633158 0.216942 0.885961 0.230548
O59   O     O_3   0.110149 0.219306 0.975857 -0.590242
C175  C     C_3   0.108897 0.225148 0.935135 -0.313825
H35   H     H_    0.146320 0.184644 0.921361 0.189165
H36   H     H_    0.122963 0.281394 0.925635 0.141592
H37   H     H_    0.052594 0.213464 0.924821 0.170638
O60   O     O_3   0.213311 0.892633 0.991647 -0.605945
C176  C     C_3   0.208595 0.903460 0.951213 -0.269435
H38   H     H_    0.164525 0.869508 0.938178 0.180031
H39   H     H_    0.261809 0.892039 0.936642 0.155792
H40   H     H_    0.194683 0.961455 0.945576 0.205876
O61   O     O_3   0.607731 0.284093 0.482420 -0.597625
C177  C     C_3   0.573891 0.322241 0.513162 -0.194890
H41   H     H_    0.597632 0.377629 0.516809 0.173866
H42   H     H_    0.577422 0.291422 0.540909 0.157431
H43   H     H_    0.514963 0.329210 0.506162 0.193230
O62   O     O_3   0.722735 0.617069 0.465725 -0.611792
C178  C     C_3   0.678135 0.575548 0.490729 -0.207994
H44   H     H_    0.626723 0.604662 0.498735 0.173067
H45   H     H_    0.708642 0.559603 0.517326 0.179446
H46   H     H_    0.661638 0.524950 0.475524 0.211602
O63   O     O_3   0.313823 0.793420 0.432360 -0.575509
C179  C     C_3   0.371327 0.743792 0.424877 -0.252009
H47   H     H_    0.350383 0.687306 0.420761 0.174113
H48   H     H_    0.413189 0.744915 0.448352 0.152228
H49   H     H_    0.398819 0.760185 0.397596 0.181054
O64   O     O_3   0.268227 0.375576 0.457108 -0.611652
C180  C     C_3   0.313837 0.424493 0.477420 -0.259461
H50   H     H_    0.370324 0.402340 0.480512 0.189528
H51   H     H_    0.290952 0.438415 0.506414 0.166785
H52   H     H_    0.317497 0.475959 0.460625 0.180295
O65   O     O_3   0.374697 0.266062 0.455810 -0.595117
C181  C     C_3   0.359673 0.243393 0.417546 -0.286950
H53   H     H_    0.317730 0.279026 0.403693 0.189440
H54   H     H_    0.341958 0.185316 0.416486 0.145482
H55   H     H_    0.410668 0.247795 0.400268 0.178001
O66   O     O_3   0.201020 0.692330 0.431712 -0.605313
C182  C     C_3   0.156020 0.742896 0.411914 -0.190924
H56   H     H_    0.188063 0.790190 0.401203 0.185930
H57   H     H_    0.109721 0.762267 0.430291 0.147642
H58   H     H_    0.132059 0.715545 0.386236 0.220540
O67   O     O_3   0.618986 0.728511 0.462209 -0.603136
C183  C     C_3   0.628734 0.744576 0.422603 -0.293526
H59   H     H_    0.668803 0.706597 0.408910 0.194199
H60   H     H_    0.646085 0.802219 0.418291 0.159491
H61   H     H_    0.575532 0.737448 0.407539 0.173328
O68   O     O_3   0.716990 0.389286 0.477600 -0.619420
C184  C     C_3   0.723328 0.389831 0.436820 -0.261076
H62   H     H_    0.682485 0.352934 0.423107 0.185635
H63   H     H_    0.779656 0.374788 0.427297 0.172252
H64   H     H_    0.712260 0.445890 0.426183 0.195066
H65   H     H_    0.385269 0.521350 0.001518 0.149297
H66   H     H_    0.461313 0.363231 0.058418 0.128934
H67   H     H_    0.761841 0.333916 0.133002 0.154980
H68   H     H_    0.543959 0.639904 0.064077 0.133608
H69   H     H_    0.637511 0.542364 0.061200 0.128423
H70   H     H_    0.665860 0.239368 0.132934 0.119960
H71   H     H_    0.363690 0.456561 0.062342 0.132899
H72   H     H_    0.479890 0.616006 0.002390 0.149319
H73   H     H_    0.879339 0.027956 0.532964 0.139582
H74   H     H_    0.944390 0.846150 0.579213 0.126703
H75   H     H_    0.265082 0.830769 0.633807 0.161863
H76   H     H_    0.064842 0.161593 0.586971 0.125005
H77   H     H_    0.160184 0.065533 0.586736 0.127838
H78   H     H_    0.170556 0.734741 0.633854 0.137085
H79   H     H_    0.846907 0.939834 0.581764 0.121623
H80   H     H_    0.973494 0.123614 0.534697 0.139115
O69   O     O_3   0.429109 0.888698 0.851471 -0.562556
C185  C     C_3   0.474581 0.825994 0.851948 -0.151082
H81   H     H_    0.448782 0.784207 0.870692 0.182178
H82   H     H_    0.529757 0.837878 0.864112 0.133061
H83   H     H_    0.480770 0.801941 0.822531 0.146352
O70   O     O_3   0.123323 0.453831 0.850533 -0.533569
C186  C     C_3   0.116603 0.377161 0.852137 -0.196789
H84   H     H_    0.115326 0.352573 0.822611 0.145342
H85   H     H_    0.067127 0.360735 0.868759 0.105932
H86   H     H_    0.165193 0.354659 0.867350 0.180850
O71   O     O_3   0.592219 0.094127 0.852295 -0.554286
C187  C     C_3   0.656128 0.054370 0.862153 -0.273210
H87   H     H_    0.678993 0.023368 0.837083 0.113302
H88   H     H_    0.645623 0.016563 0.886636 0.151550
H89   H     H_    0.698799 0.093324 0.871746 0.216286
O72   O     O_3   0.877939 0.554115 0.851371 -0.517233
C188  C     C_3   0.890312 0.628983 0.858588 -0.287174
H90   H     H_    0.904307 0.659452 0.831701 0.118494
H91   H     H_    0.934438 0.636628 0.880406 0.136682
H92   H     H_    0.839216 0.653191 0.870360 0.177977
O73   O     O_3   0.923572 0.391882 0.351241 -0.549866
C189  C     C_3   0.968923 0.329092 0.350325 -0.204155
H93   H     H_    0.021466 0.338232 0.365839 0.158188
H94   H     H_    0.981172 0.311173 0.320218 0.122740
H95   H     H_    0.939975 0.283787 0.365057 0.178670
O74   O     O_3   0.374285 0.958217 0.350889 -0.536261
C190  C     C_3   0.325977 0.018735 0.351239 -0.140586
H96   H     H_    0.306513 0.032439 0.321568 0.136211
H97   H     H_    0.351629 0.067716 0.364668 0.110582
H98   H     H_    0.277316 0.004466 0.368852 0.180337
O75   O     O_3   0.092677 0.591807 0.351967 -0.578492
C191  C     C_3   0.159062 0.552678 0.355590 -0.199132
H99   H     H_    0.182555 0.538672 0.326739 0.157395
H100  H     H_    0.151785 0.502349 0.373175 0.124545
H101  H     H_    0.199355 0.587644 0.370833 0.215877
O76   O     O_3   0.616940 0.061644 0.351706 -0.544082
C192  C     C_3   0.600591 0.136310 0.357414 -0.177295
H102  H     H_    0.550366 0.143790 0.375252 0.107977
H103  H     H_    0.594577 0.165540 0.329317 0.143419
H104  H     H_    0.646687 0.161815 0.373363 0.189495
O77   O     O_3   0.610889 0.166044 0.789426 -0.539007
C193  C     C_3   0.688215 0.166960 0.789143 -0.172866
H105  H     H_    0.713668 0.111652 0.787418 0.087282
H106  H     H_    0.707320 0.192273 0.816562 0.177965
H107  H     H_    0.708140 0.202036 0.765235 0.194812
O78   O     O_3   0.803180 0.537638 0.789022 -0.531522
C194  C     C_3   0.768677 0.606751 0.787793 -0.164724
H108  H     H_    0.807515 0.653247 0.785197 0.082697
H109  H     H_    0.738059 0.614696 0.815239 0.176373
H110  H     H_    0.727857 0.608252 0.763992 0.187038
O79   O     O_3   0.365812 0.852237 0.787599 -0.569086
C195  C     C_3   0.298101 0.888986 0.790891 -0.198765
H111  H     H_    0.303438 0.940239 0.808060 0.150998
H112  H     H_    0.259224 0.853028 0.806435 0.172240
H113  H     H_    0.274247 0.900970 0.761885 0.158613
O80   O     O_3   0.198268 0.469379 0.788494 -0.561864
C196  C     C_3   0.231563 0.538006 0.793942 -0.162800
H114  H     H_    0.283918 0.529811 0.809692 0.184676
H115  H     H_    0.196681 0.574845 0.811879 0.146162
H116  H     H_    0.244550 0.564312 0.765723 0.157706
O81   O     O_3   0.117695 0.662590 0.288537 -0.544451
C197  C     C_3   0.069783 0.720256 0.298740 -0.242954
H117  H     H_    0.030710 0.703432 0.321698 0.177916
H118  H     H_    0.038496 0.741196 0.273408 0.115642
H119  H     H_    0.102789 0.766039 0.310421 0.177609
O82   O     O_3   0.688423 0.070599 0.288429 -0.570127
C198  C     C_3   0.735789 0.009898 0.291568 -0.191771
H120  H     H_    0.709942 0.964685 0.308147 0.152977
H121  H     H_    0.785511 0.026927 0.307655 0.175300
H122  H     H_    0.753596 0.990138 0.262539 0.161596
O83   O     O_3   0.849889 0.366177 0.289623 -0.567505
C199  C     C_3   0.851207 0.292200 0.277664 -0.183668
H123  H     H_    0.841665 0.257363 0.303431 0.168798
H124  H     H_    0.904302 0.274603 0.264637 0.120027
H125  H     H_    0.805685 0.281583 0.257107 0.198434
O84   O     O_3   0.324420 0.903246 0.287845 -0.573879
C200  C     C_3   0.342713 0.828862 0.292365 -0.149763
H126  H     H_    0.297411 0.801395 0.307943 0.192405
H127  H     H_    0.393261 0.821892 0.310072 0.138733
H128  H     H_    0.349172 0.801300 0.263790 0.164093
O85   O     O_3   0.127415 0.652837 0.209676 -0.574820
C201  C     C_3   0.089580 0.715187 0.196000 -0.301969
H129  H     H_    0.029193 0.707992 0.192806 0.126454
H130  H     H_    0.111449 0.729385 0.166994 0.183059
H131  H     H_    0.100690 0.762128 0.215464 0.192350
O86   O     O_3   0.684329 0.076705 0.208976 -0.597952
C202  C     C_3   0.681356 0.153647 0.207842 -0.304707
H132  H     H_    0.630107 0.173273 0.193713 0.132417
H133  H     H_    0.728203 0.173595 0.190419 0.197848
H134  H     H_    0.686534 0.177737 0.237332 0.190149
O87   O     O_3   0.843751 0.375401 0.208350 -0.622852
C203  C     C_3   0.779593 0.418557 0.207356 -0.355949
H135  H     H_    0.734798 0.385991 0.194336 0.175696
H136  H     H_    0.787738 0.467871 0.189083 0.163955
H137  H     H_    0.761167 0.434723 0.236924 0.196493
O88   O     O_3   0.322110 0.910985 0.208613 -0.592787
C204  C     C_3   0.265657 0.963552 0.206329 -0.294138
H138  H     H_    0.219691 0.940106 0.189412 0.187056
H139  H     H_    0.284241 0.013620 0.190986 0.142403
H140  H     H_    0.244244 0.977907 0.235560 0.184560
O89   O     O_3   0.624006 0.157065 0.709221 -0.574996
C205  C     C_3   0.691032 0.127147 0.695916 -0.367786
H141  H     H_    0.682917 0.091128 0.670408 0.162150
H142  H     H_    0.720729 0.096120 0.718786 0.131986
H143  H     H_    0.726992 0.172598 0.686693 0.204328
O90   O     O_3   0.806054 0.553358 0.708750 -0.579890
C206  C     C_3   0.805673 0.626206 0.695063 -0.367028
H144  H     H_    0.841859 0.632927 0.669524 0.169963
H145  H     H_    0.821865 0.666327 0.717725 0.131980
H146  H     H_    0.749206 0.640232 0.685754 0.201005
O91   O     O_3   0.374976 0.846401 0.708493 -0.611159
C207  C     C_3   0.411964 0.778826 0.706212 -0.298472
H147  H     H_    0.465413 0.784264 0.690989 0.148801
H148  H     H_    0.377845 0.740394 0.689162 0.196288
H149  H     H_    0.420257 0.754578 0.735450 0.187701
O92   O     O_3   0.196351 0.465305 0.709124 -0.598890
C208  C     C_3   0.206760 0.389180 0.705885 -0.271192
H150  H     H_    0.257483 0.378905 0.689044 0.196117
H151  H     H_    0.160704 0.362913 0.690004 0.138356
H152  H     H_    0.213942 0.363373 0.734821 0.189464
H153  H     H_    0.076043 0.587710 0.152071 0.183269
H154  H     H_    0.607961 0.046015 0.152111 0.199644
H155  H     H_    0.916314 0.417631 0.151706 0.184261
H156  H     H_    0.394017 0.951079 0.151943 0.199555
H157  H     H_    0.564340 0.097288 0.651883 0.191322
H158  H     H_    0.884940 0.521783 0.652119 0.203541
H159  H     H_    0.431937 0.905644 0.651807 0.187667
H160  H     H_    0.115660 0.480643 0.652391 0.206338

loop_
_geom_bond_atom_site_label_1
_geom_bond_atom_site_label_2
_geom_bond_distance
_ccdc_geom_bond_type
C162  H158  1.081983 S    
O91   C207  1.409788 S    
C65   C88   1.413529 A    
C200  H126  1.109449 S    
Zn5   O51   1.936251 S    
C100  C101  1.398931 A    
C105  C119  1.410984 A    
C28   C61   1.413379 A    
C67   C86   1.417329 A    
C109  C123  1.415309 A    
C119  C131  1.419045 A    
C199  H123  1.109332 S    
C30   H6    1.080480 S    
C121  C127  1.420699 A    
C55   H79   1.082218 S    
C208  H152  1.112726 S    
C173  H29   1.112333 S    
C110  O74   1.385162 S    
C169  H18   1.114017 S    
Zn13  O35   1.937723 S    
C39   C66   1.413364 A    
O34   C22   1.276986 A    
C179  H49   1.109470 S    
C89   O53   1.386010 S    
C183  H59   1.112739 S    
C32   H8    1.077537 S    
O52   C22   1.275772 A    
O41   C15   1.275482 A    
C134  C138  1.402265 A    
C108  C114  1.411548 A    
C133  O81   1.383930 S    
C164  H160  1.083486 S    
Zn4   O2    1.944903 S    
C190  H97   1.113464 S    
O47   C17   1.276373 A    
C27   C62   1.415638 A    
C40   H16   1.081077 S    
C199  H125  1.109741 S    
C133  C137  1.402225 A    
O67   C183  1.409806 S    
Zn16  O36   1.929004 S    
O75   C191  1.411576 S    
C157  C165  1.395714 A    
C58   C79   1.412542 A    
C193  H106  1.109315 S    
O22   C10   1.273054 A    
C143  O91   1.384144 S    
C181  H53   1.112523 S    
C109  C115  1.408870 A    
O46   C20   1.280253 A    
C31   C47   1.394403 A    
C17   C85   1.448223 S    
Zn12  O24   1.934739 S    
C14   C76   1.450056 S    
C94   O58   1.384665 S    
C186  H84   1.113351 S    
C124  C128  1.417602 A    
C49   H73   1.080074 S    
Zn1   O13   1.946694 S    
C118  C130  1.420094 A    
Zn3   O15   1.945152 S    
Zn4   O16   1.946003 S    
Zn3   O41   1.935139 S    
C207  H148  1.109347 S    
Zn7   O3    1.950818 S    
C172  H27   1.113695 S    
C69   C84   1.412402 A    
O77   C193  1.412280 S    
C200  H128  1.113013 S    
C70   C83   1.416268 A    
C99   C102  1.396611 A    
C140  C148  1.403548 A    
O62   C178  1.411897 S    
C145  C153  1.414658 A    
C8    C168  1.459509 S    
O11   C3    1.277001 A    
C105  C113  1.408011 A    
O49   C23   1.275616 A    
C175  H35   1.112997 S    
C131  O79   1.383420 S    
C175  H37   1.109144 S    
C129  O77   1.388932 S    
C60   C61   1.413039 A    
C170  H21   1.112608 S    
C190  H96   1.112117 S    
C32   C48   1.391053 A    
C33   C49   1.393795 A    
Zn10  O22   1.935854 S    
Zn10  O8    1.946468 S    
C149  C155  1.414365 A    
C141  C149  1.410602 A    
Zn12  O28   1.929004 S    
C196  H114  1.109164 S    
Zn13  O29   1.930599 S    
C106  C120  1.407526 A    
Zn14  O34   1.929163 S    
Zn6   O4    1.946510 S    
Zn10  O2    1.947893 S    
C183  H61   1.109435 S    
Zn3   O1    1.950818 S    
Zn15  O33   1.936475 S    
C112  C122  1.410209 A    
C204  H138  1.109247 S    
C201  H130  1.109457 S    
O78   C194  1.412436 S    
C92   O56   1.385278 S    
C122  C128  1.418894 A    
C141  O89   1.385563 S    
O71   C187  1.414863 S    
C206  H145  1.112552 S    
C43   H67   1.080156 S    
C107  C117  1.414101 A    
O81   C197  1.413238 S    
C188  H90   1.113674 S    
C109  O73   1.384810 S    
C56   H80   1.081565 S    
C164  C168  1.395036 A    
Zn8   O46   1.938119 S    
C191  H99   1.113433 S    
C202  H133  1.109263 S    
C111  O75   1.384492 S    
C205  H142  1.112706 S    
C182  H57   1.113885 S    
O69   C185  1.414748 S    
O27   C15   1.278394 A    
C152  C164  1.395763 A    
O29   C17   1.275837 A    
O83   C199  1.415572 S    
C82   C98   1.404082 A    
C149  C161  1.402474 A    
C44   C45   1.390746 A    
C189  H93   1.111366 S    
O8    C2    1.276472 A    
C3    C116  1.473686 S    
O85   C201  1.413944 S    
C163  H159  1.084234 S    
C135  O83   1.391905 S    
C132  C144  1.399324 A    
C42   H66   1.082587 S    
C18   C88   1.453292 S    
C23   C83   1.452909 S    
O16   C6    1.275199 A    
O53   C169  1.411227 S    
O14   C6    1.277779 A    
Zn15  O9    1.944975 S    
C205  H143  1.109193 S    
O79   C195  1.410242 S    
Zn12  O6    1.944928 S    
O40   C10   1.280670 A    
O72   C188  1.411937 S    
C100  O64   1.384379 S    
O74   C190  1.414068 S    
O45   C19   1.277016 A    
C91   O55   1.384540 S    
O17   C7    1.277829 A    
C110  C116  1.411433 A    
C171  H23   1.112936 S    
Zn5   O17   1.946694 S    
C198  H121  1.109187 S    
O90   C206  1.415846 S    
O9    C3    1.283839 A    
C36   C69   1.413944 A    
C179  H48   1.113459 S    
C132  O80   1.383218 S    
C123  C127  1.420783 A    
C184  H63   1.113619 S    
Zn4   O44   1.930997 S    
C185  H81   1.109252 S    
C117  C125  1.420279 A    
C187  H87   1.114477 S    
C74   C90   1.404900 A    
O57   C173  1.408102 S    
C111  C115  1.404190 A    
C180  H51   1.113290 S    
C105  O69   1.385708 S    
Zn9   O27   1.937723 S    
O80   C196  1.410212 S    
C188  H92   1.108723 S    
C50   C55   1.391453 A    
C16   C74   1.450715 S    
Zn9   O7    1.945779 S    
O50   C24   1.276601 A    
C169  H19   1.109499 S    
C103  O67   1.384354 S    
Zn11  O5    1.944975 S    
O5    C1    1.280448 A    
O88   C204  1.410211 S    
O31   C19   1.277690 A    
C204  H140  1.112765 S    
C29   C60   1.414787 A    
C134  O82   1.383307 S    
O61   C177  1.410827 S    
C146  C158  1.398014 A    
C35   C70   1.416924 A    
C99   O63   1.384889 S    
C38   H14   1.080171 S    
C127  C153  1.409940 A    
C176  H38   1.112873 S    
C150  C156  1.413826 A    
C207  H147  1.113642 S    
C12   C78   1.456899 S    
C197  H117  1.111209 S    
C191  H101  1.108828 S    
O84   C200  1.410203 S    
C186  H85   1.113126 S    
C108  O72   1.383526 S    
C66   C71   1.414035 A    
C79   C95   1.401038 A    
C1    C114  1.474623 S    
C130  O78   1.389454 S    
C107  O71   1.384953 S    
C190  H98   1.109189 S    
C92   C93   1.398278 A    
C44   H68   1.082385 S    
C22   C84   1.449053 S    
C58   C63   1.413853 A    
C125  C155  1.409478 A    
C195  H111  1.113544 S    
C52   H76   1.082473 S    
C90   O54   1.384248 S    
C163  C167  1.392534 A    
C158  H154  1.083920 S    
Zn1   O1    1.947746 S    
C142  C150  1.410118 A    
Zn2   O14   1.945198 S    
C175  H36   1.112399 S    
O54   C170  1.412999 S    
C144  O92   1.384226 S    
Zn2   O40   1.936876 S    
C4    C115  1.472766 S    
Zn3   O37   1.929400 S    
C171  H25   1.109319 S    
C208  H151  1.113595 S    
C131  C143  1.399884 A    
C64   C73   1.419228 A    
C39   C55   1.394666 A    
C178  H46   1.106566 S    
C78   C94   1.406632 A    
C129  C141  1.410871 A    
C37   C53   1.394575 A    
C68   C69   1.413513 A    
C138  C146  1.404391 A    
C57   C80   1.416931 A    
C183  H60   1.113414 S    
O89   C205  1.415777 S    
C138  O86   1.384393 S    
O59   C175  1.409377 S    
O58   C174  1.412675 S    
C119  C125  1.420048 A    
C192  H103  1.113304 S    
C63   C74   1.413340 A    
O6    C2    1.287057 A    
C187  H89   1.108280 S    
C128  C154  1.408553 A    
C25   H1    1.077221 S    
C59   C62   1.415557 A    
C161  H157  1.082461 S    
C159  C165  1.395051 A    
C60   C77   1.412077 A    
Zn10  O26   1.929163 S    
C173  H31   1.109272 S    
O10   C4    1.286350 A    
C98   O62   1.383941 S    
C50   H74   1.082568 S    
C39   H15   1.082335 S    
O86   C202  1.410410 S    
C93   O57   1.384224 S    
O55   C171  1.410160 S    
Zn14  O30   1.935854 S    
Zn15  O3    1.946655 S    
C95   O59   1.384361 S    
C32   C57   1.417531 A    
Zn1   O43   1.936251 S    
C31   H7    1.081579 S    
C177  H41   1.111365 S    
C194  H110  1.108876 S    
C142  O90   1.385740 S    
C181  H54   1.113258 S    
C121  C133  1.421499 A    
C176  H40   1.108569 S    
C203  H135  1.108373 S    
Zn5   O47   1.929560 S    
C25   C64   1.418078 A    
Zn8   O20   1.946003 S    
Zn6   O48   1.936876 S    
Zn7   O45   1.929400 S    
O35   C23   1.278338 A    
C101  O65   1.384223 S    
C102  O66   1.385312 S    
C174  H32   1.111033 S    
O32   C20   1.276217 A    
C36   C52   1.394602 A    
C136  O84   1.383640 S    
C80   C96   1.402670 A    
C112  C116  1.409230 A    
C181  H55   1.109366 S    
C161  C167  1.395242 A    
C206  H144  1.109116 S    
C172  H26   1.111110 S    
Zn16  O10   1.944929 S    
C200  H127  1.113557 S    
O12   C4    1.277876 A    
Zn7   O19   1.945152 S    
C195  H113  1.112993 S    
C7    C167  1.457419 S    
O48   C18   1.278364 A    
C97   C104  1.398880 A    
C139  C147  1.404076 A    
C91   C94   1.396557 A    
O38   C12   1.280871 A    
C9    C77   1.448436 S    
C13   C73   1.455722 S    
Zn13  O3    1.945049 S    
C45   H69   1.082577 S    
C158  C166  1.396750 A    
Zn14  O4    1.947893 S    
C40   C65   1.415506 A    
C196  H116  1.113124 S    
C20   C86   1.457148 S    
C177  H43   1.109630 S    
C11   C79   1.448046 S    
O68   C184  1.411907 S    
C89   C96   1.395700 A    
C106  O70   1.384618 S    
O21   C9    1.277763 A    
C26   H2    1.081855 S    
C51   H75   1.082830 S    
Zn6   O18   1.945198 S    
O23   C11   1.278280 A    
C178  H44   1.112836 S    
C169  H17   1.111128 S    
Zn7   O49   1.935139 S    
C28   C44   1.394451 A    
C145  C157  1.401411 A    
C66   C87   1.412158 A    
O25   C13   1.276421 A    
C30   C46   1.392801 A    
C185  H82   1.113204 S    
C201  H131  1.109097 S    
C117  C129  1.420711 A    
C137  O85   1.385838 S    
O82   C198  1.410279 S    
O36   C24   1.279702 A    
O18   C8    1.277548 A    
C106  C114  1.408621 A    
C191  H100  1.112660 S    
C192  H102  1.112882 S    
C53   H77   1.082547 S    
C37   C68   1.413960 A    
C120  C132  1.416971 A    
Zn11  O1    1.946655 S    
C38   C67   1.416888 A    
C148  C160  1.396995 A    
C151  C155  1.416764 A    
C5    C165  1.458929 S    
Zn12  O2    1.950964 S    
O43   C13   1.278543 A    
O28   C16   1.280898 A    
C189  H94   1.111479 S    
C194  H108  1.113832 S    
Zn2   O42   1.931580 S    
C193  H105  1.114400 S    
Zn5   O3    1.947746 S    
C87   C103  1.401126 A    
C110  C124  1.408865 A    
C185  H83   1.111432 S    
C203  H137  1.113732 S    
C160  H156  1.083796 S    
C33   H9    1.080658 S    
C85   C101  1.402908 A    
C196  H115  1.113574 S    
C150  C162  1.398859 A    
C174  H33   1.113877 S    
C68   C85   1.412079 A    
O65   C181  1.410259 S    
C72   C81   1.416541 A    
C199  H124  1.115354 S    
Zn1   O39   1.929560 S    
C25   C41   1.391347 A    
C189  H95   1.109532 S    
O15   C5    1.280807 A    
C135  C139  1.413056 A    
C182  H56   1.110882 S    
C27   C43   1.391914 A    
C33   C72   1.415544 A    
O56   C172  1.411287 S    
C49   C56   1.388647 A    
C171  H24   1.113556 S    
C172  H28   1.109366 S    
C137  C145  1.407703 A    
C52   C53   1.391682 A    
O92   C208  1.410508 S    
O70   C186  1.410963 S    
C73   C89   1.405715 A    
C36   H12   1.082368 S    
C124  C136  1.418992 A    
C51   C54   1.389124 A    
C10   C80   1.454011 S    
C30   C59   1.416211 A    
Zn2   O2    1.946510 S    
C184  H62   1.112878 S    
O7    C1    1.280855 A    
C31   C58   1.413013 A    
O26   C14   1.279574 A    
Zn15  O31   1.931183 S    
O87   C203  1.411321 S    
C170  H22   1.106038 S    
O76   C192  1.411994 S    
Zn16  O32   1.934739 S    
C193  H107  1.108722 S    
C187  H88   1.110326 S    
C162  C168  1.395630 A    
C180  H50   1.112200 S    
C122  C134  1.418529 A    
C28   H4    1.081479 S    
O19   C7    1.279408 A    
Zn8   O4    1.944903 S    
C160  C166  1.394546 A    
C41   H65   1.080405 S    
O37   C11   1.276538 A    
C65   C72   1.415324 A    
C188  H91   1.111286 S    
O39   C9    1.274555 A    
C38   C54   1.393575 A    
C54   H78   1.082629 S    
O13   C5    1.277229 A    
C71   C82   1.412693 A    
O51   C21   1.277559 A    
C174  H34   1.107318 S    
C204  H139  1.113615 S    
C35   C51   1.393123 A    
C201  H129  1.116380 S    
O20   C8    1.276747 A    
C57   C64   1.414787 A    
O44   C14   1.273694 A    
C83   C99   1.403027 A    
O63   C179  1.410037 S    
C84   C100  1.403512 A    
C206  H146  1.109174 S    
O24   C12   1.275435 A    
C59   C78   1.416010 A    
C173  H30   1.110186 S    
C34   H10   1.082391 S    
Zn16  O4    1.950964 S    
C202  H134  1.112363 S    
C205  H141  1.109073 S    
C182  H58   1.107524 S    
C19   C87   1.447845 S    
C75   C91   1.402300 A    
C148  C154  1.415081 A    
C76   C92   1.403791 A    
C86   C102  1.406966 A    
C118  C126  1.417128 A    
C151  C163  1.398095 A    
C6    C166  1.457049 S    
C97   O61   1.385481 S    
C26   C42   1.393930 A    
C46   H70   1.081225 S    
C104  O68   1.383320 S    
C197  H119  1.109322 S    
C195  H112  1.109201 S    
C40   C56   1.392486 A    
C61   C76   1.412778 A    
C62   C75   1.415379 A    
C152  C156  1.415432 A    
C126  C156  1.405892 A    
C96   O60   1.383362 S    
C147  C159  1.402079 A    
C34   C50   1.394268 A    
O66   C182  1.412438 S    
O42   C16   1.275793 A    
C198  H120  1.113666 S    
C111  C121  1.412632 A    
C207  H149  1.112840 S    
C139  O87   1.383630 S    
Zn9   O21   1.930599 S    
C208  H150  1.109185 S    
C198  H122  1.112789 S    
C37   H13   1.082509 S    
Zn11  O23   1.931183 S    
C178  H45   1.112011 S    
C21   C81   1.455256 S    
C67   C70   1.415431 A    
Zn9   O1    1.945049 S    
C179  H47   1.112906 S    
Zn8   O52   1.930997 S    
C2    C113  1.471634 S    
C184  H64   1.108599 S    
C146  C154  1.414084 A    
C29   H5    1.082031 S    
C170  H20   1.111997 S    
C136  C140  1.399922 A    
O64   C180  1.410471 S    
O73   C189  1.414954 S    
C180  H52   1.109392 S    
C26   C63   1.414853 A    
Zn4   O38   1.938119 S    
C197  H118  1.111763 S    
C35   H11   1.080480 S    
C107  C113  1.406929 A    
O33   C21   1.276913 A    
C112  O76   1.385294 S    
C143  C151  1.402838 A    
C140  O88   1.384132 S    
C123  C135  1.421962 A    
C48   H72   1.080514 S    
C157  H153  1.083525 S    
C147  C153  1.413568 A    
C81   C97   1.404690 A    
O60   C176  1.411905 S    
C192  H104  1.109327 S    
C43   C46   1.388805 A    
C29   C45   1.393857 A    
C27   H3    1.080576 S    
C177  H42   1.113805 S    
C194  H109  1.109229 S    
C41   C48   1.384338 A    
C42   C47   1.390796 A    
C88   C104  1.402938 A    
C90   C95   1.397063 A    
C176  H39   1.113494 S    
C203  H136  1.112707 S    
Zn11  O25   1.936475 S    
C98   C103  1.398453 A    
C47   H71   1.082324 S    
C130  C142  1.409457 A    
C144  C152  1.404064 A    
C159  H155  1.084410 S    
C202  H132  1.113592 S    
C24   C82   1.450077 S    
Zn6   O50   1.931580 S    
C186  H86   1.109024 S    
C15   C75   1.452864 S    
C120  C126  1.418278 A    
C108  C118  1.410303 A    
Zn13  O11   1.945778 S    
Zn14  O12   1.946468 S    
C77   C93   1.404110 A    
C34   C71   1.414107 A    
O30   C18   1.274720 A    
