data_mof_unit_46202.cif
_audit_creation_date              2012-12-11T16:08:24-0500
_audit_creation_method            fapswitch 2.2
_symmetry_space_group_name_H-M    P1
_symmetry_Int_Tables_number       1
_space_group_crystal_system       monoclinic
_cell_length_a                    7.263471
_cell_length_b                    21.369655
_cell_length_c                    23.462125
_cell_angle_alpha                 90.0
_cell_angle_beta                  89.123141
_cell_angle_gamma                 90.0
_cell_volume                      3641.31458702

loop_
_atom_site_label
_atom_site_type_symbol
_atom_type_description
_atom_site_fract_x
_atom_site_fract_y
_atom_site_fract_z
_atom_type_partial_charge
O1    O     O_R   0.365470 0.806380 0.442440 -0.533353
O2    O     O_R   0.134530 0.193620 0.942440 -0.530408
O3    O     O_R   0.865470 0.693620 0.557560 -0.530408
O4    O     O_R   0.634530 0.306380 0.057560 -0.533353
O5    O     O_R   0.035730 0.813790 0.557160 -0.534003
O6    O     O_R   0.464270 0.186210 0.057160 -0.535984
O7    O     O_R   0.535730 0.686210 0.442840 -0.535985
O8    O     O_R   0.964270 0.313790 0.942840 -0.534003
C1    C     C_R   0.203084 0.828676 0.575863 0.708828
C2    C     C_R   0.294942 0.171360 0.075780 0.710327
C3    C     C_R   0.705058 0.671360 0.424220 0.710327
C4    C     C_R   0.796915 0.328676 0.924137 0.708828
O9    O     O_R   0.035760 0.813790 0.442850 -0.535342
O10   O     O_R   0.464240 0.186210 0.942850 -0.536288
O11   O     O_R   0.535760 0.686210 0.557150 -0.536288
O12   O     O_R   0.964240 0.313790 0.057150 -0.535342
O13   O     O_R   0.865450 0.693620 0.442430 -0.528945
O14   O     O_R   0.634550 0.306380 0.942430 -0.528508
O15   O     O_R   0.365450 0.806380 0.557570 -0.528508
O16   O     O_R   0.134550 0.193620 0.057570 -0.528945
C5    C     C_R   0.205068 0.828640 0.424223 0.712464
C6    C     C_R   0.296901 0.171318 0.924143 0.718892
C7    C     C_R   0.703099 0.671318 0.575856 0.718892
C8    C     C_R   0.794932 0.328640 0.075777 0.712464
O17   O     O_3   0.198970 0.710570 0.500000 -0.375112
O18   O     O_3   0.301030 0.289430 0.000000 -0.375700
O19   O     O_3   0.698970 0.789430 0.500000 -0.375700
O20   O     O_3   0.801030 0.210570 0.000000 -0.375112
V1    V     V_3+5 0.924120 0.757310 0.500000 1.449629
V2    V     V_3+5 0.575880 0.242690 0.000000 1.443042
V3    V     V_3+5 0.424120 0.742690 0.500000 1.443042
V4    V     V_3+5 0.075880 0.257310 0.000000 1.449629
C9    C     C_3   0.880739 0.561559 0.749358 -0.326902
C10   C     C_3   0.560183 0.468014 0.227525 -0.343602
C11   C     C_3   0.439817 0.968014 0.272475 -0.343602
C12   C     C_3   0.119261 0.061559 0.750642 -0.326902
C13   C     C_3   0.545582 0.533109 0.740748 -0.370022
C14   C     C_3   0.877239 0.436673 0.258721 -0.361995
C15   C     C_3   0.122761 0.936673 0.241279 -0.361994
C16   C     C_3   0.454418 0.033109 0.759251 -0.370022
C17   C     C_3   0.567073 0.484754 0.790626 0.056587
C18   C     C_3   0.862532 0.484608 0.309070 0.065416
C19   C     C_3   0.137468 0.984608 0.190930 0.065416
C20   C     C_3   0.432927 0.984754 0.709374 0.056587
H1    H     H_    0.859417 0.539625 0.840467 0.152879
H2    H     H_    0.487982 0.491256 0.316045 0.156284
H3    H     H_    0.512018 0.991256 0.183955 0.156284
H4    H     H_    0.140582 0.039625 0.659532 0.152879
H5    H     H_    0.848076 0.609072 0.766094 0.162340
H6    H     H_    0.500753 0.422321 0.241205 0.156316
H7    H     H_    0.499247 0.922321 0.258795 0.156316
H8    H     H_    0.151924 0.109072 0.733906 0.162340
H9    H     H_    0.434916 0.518639 0.711236 0.139808
H10   H     H_    0.023143 0.429710 0.244956 0.149677
H11   H     H_    0.976857 0.929710 0.255044 0.149677
H12   H     H_    0.565084 0.018639 0.788764 0.139808
H13   H     H_    0.503278 0.579180 0.758764 0.137714
H14   H     H_    0.825798 0.390286 0.273523 0.143628
H15   H     H_    0.174202 0.890286 0.226476 0.143628
H16   H     H_    0.496722 0.079180 0.741236 0.137714
H17   H     H_    0.541267 0.510034 0.831580 0.122483
H18   H     H_    0.792623 0.460682 0.345677 0.128629
H19   H     H_    0.207377 0.960682 0.154323 0.128629
H20   H     H_    0.458733 0.010034 0.668420 0.122483
C21   C     C_1   0.791136 0.374444 0.878346 -0.139997
C22   C     C_1   0.716260 0.625649 0.378550 -0.145014
C23   C     C_1   0.283740 0.125649 0.121450 -0.145015
C24   C     C_1   0.208864 0.874444 0.621654 -0.139997
C25   C     C_3   0.730210 0.540602 0.707091 0.252159
C26   C     C_3   0.762889 0.458919 0.207199 0.251264
C27   C     C_3   0.237111 0.958919 0.292801 0.251264
C28   C     C_3   0.269790 0.040602 0.792909 0.252159
C29   C     C_3   0.895973 0.515070 0.800017 -0.426915
C30   C     C_3   0.547541 0.515254 0.277908 -0.427942
C31   C     C_3   0.452459 0.015255 0.222092 -0.427942
C32   C     C_3   0.104027 0.015070 0.699983 -0.426915
C33   C     C_3   0.766673 0.458041 0.791687 0.214351
C34   C     C_3   0.740954 0.541922 0.292014 0.208683
C35   C     C_3   0.259046 0.041922 0.207986 0.208683
C36   C     C_3   0.233327 0.958041 0.708313 0.214351
C37   C     C_3   0.810714 0.427050 0.732361 -0.106532
C38   C     C_3   0.825107 0.572631 0.236766 -0.112527
C39   C     C_3   0.174893 0.072631 0.263234 -0.112527
C40   C     C_3   0.189286 0.927050 0.767639 -0.106532
C41   C     C_3   0.784100 0.475425 0.683104 -0.411119
C42   C     C_3   0.838881 0.523393 0.187562 -0.399833
C43   C     C_3   0.161118 0.023392 0.312437 -0.399833
C44   C     C_3   0.215900 0.975425 0.816896 -0.411119
C45   C     C_1   0.783601 0.412229 0.839634 -0.000541
C46   C     C_1   0.726839 0.587859 0.339912 -0.009326
C47   C     C_1   0.273161 0.087859 0.160087 -0.009326
C48   C     C_1   0.216399 0.912229 0.660366 -0.000541
C49   C     C_1   0.715336 0.587162 0.659915 -0.063230
C50   C     C_1   0.774443 0.412520 0.159825 -0.064634
C51   C     C_1   0.225557 0.912520 0.340175 -0.064634
C52   C     C_1   0.284664 0.087162 0.840085 -0.063230
C53   C     C_1   0.708699 0.625335 0.621488 -0.168986
C54   C     C_1   0.783966 0.374480 0.121360 -0.171106
C55   C     C_1   0.216034 0.874480 0.378640 -0.171106
C56   C     C_1   0.291301 0.125335 0.878511 -0.168986
H21   H     H_    0.910819 0.479975 0.656069 0.139465
H22   H     H_    0.762561 0.539203 0.149341 0.141932
H23   H     H_    0.237438 0.039203 0.350659 0.141932
H24   H     H_    0.089181 0.979975 0.843931 0.139465
H25   H     H_    0.674019 0.458420 0.654466 0.146751
H26   H     H_    0.985576 0.518318 0.173891 0.140966
H27   H     H_    0.014423 0.018318 0.326109 0.140966
H28   H     H_    0.325981 0.958420 0.845534 0.146751
H29   H     H_    0.016192 0.564652 0.726676 0.147813
H30   H     H_    0.475936 0.485415 0.191607 0.146386
H31   H     H_    0.524064 0.985416 0.308393 0.146386
H32   H     H_    0.983808 0.064652 0.773324 0.147813
H33   H     H_    0.040371 0.499735 0.804164 0.141690
H34   H     H_    0.450597 0.553598 0.267309 0.147931
H35   H     H_    0.549403 0.053599 0.232691 0.147931
H36   H     H_    0.959629 0.999735 0.695836 0.141690
H37   H     H_    0.713506 0.387567 0.725791 0.156134
H38   H     H_    0.966730 0.589082 0.246164 0.149810
H39   H     H_    0.033270 0.089082 0.253836 0.149810
H40   H     H_    0.286494 0.887567 0.774209 0.156134
N1    N     N_3   0.433129 0.433616 0.787499 -0.658596
H41   H     H_    0.421370 0.418086 0.745501 0.239481
H42   H     H_    0.305304 0.450434 0.801075 0.222214
N2    N     N_3   0.045047 0.504258 0.328338 -0.673344
H43   H     H_    0.127965 0.516729 0.293385 0.228194
H44   H     H_    0.108494 0.465804 0.347410 0.230635
N3    N     N_3   0.954953 0.004258 0.171662 -0.673344
H45   H     H_    0.872036 0.016729 0.206615 0.228193
H46   H     H_    0.891506 0.965804 0.152590 0.230635
N4    N     N_3   0.566871 0.933616 0.712501 -0.658596
H47   H     H_    0.578630 0.918086 0.754499 0.239481
H48   H     H_    0.694696 0.950434 0.698924 0.222214
C57   C     C_2   0.001909 0.399780 0.729261 0.368019
H49   H     H_    0.118537 0.430320 0.721761 0.038665
O21   O     O_2   0.026227 0.343488 0.733852 -0.524073
C58   C     C_2   0.717579 0.629405 0.217904 0.364167
H50   H     H_    0.578981 0.624314 0.201945 0.056994
O22   O     O_2   0.786388 0.681473 0.219834 -0.528764
C59   C     C_2   0.282420 0.129405 0.282096 0.364169
H51   H     H_    0.421019 0.124314 0.298055 0.056994
O23   O     O_2   0.213612 0.181473 0.280166 -0.528765
C60   C     C_2   0.998091 0.899780 0.770739 0.368019
H52   H     H_    0.881463 0.930321 0.778239 0.038665
O24   O     O_2   0.973773 0.843488 0.766148 -0.524073

loop_
_geom_bond_atom_site_label_1
_geom_bond_atom_site_label_2
_ccdc_geom_bond_type
O17   V3    S    
C39   C43   S    
C14   C26   S    
O1    C5    A    
C16   H16   S    
C13   C25   S    
O19   V1    S    
O13   V1    S    
H4    C32   S    
O3    C7    A    
C17   H17   S    
C36   C40   S    
O4    V2    S    
O15   V3    S    
C39   C59   S    
C18   N2    S    
C22   C46   T    
C2    C23   S    
C20   H20   S    
O7    C3    A    
C11   C31   S    
O5    C1    A    
C8    C54   S    
H1    C29   S    
C26   C50   S    
C14   C18   S    
C25   C49   S    
C17   C33   S    
O4    C8    A    
C51   C55   T    
C27   C51   S    
C50   C54   T    
C20   N4    S    
C30   H34   S    
C37   H37   S    
O1    V3    S    
C29   H33   S    
C40   H40   S    
O2    V4    S    
C39   H39   S    
O3    V1    S    
C41   H21   S    
C12   C32   S    
C44   H24   S    
C14   H14   S    
C1    O15   A    
C15   H11   S    
C24   C48   T    
C2    O16   A    
C16   H12   S    
C12   H32   S    
O14   V2    S    
C33   C37   S    
C18   H18   S    
C35   C47   S    
C12   H8    S    
C3    C22   S    
C9    C25   S    
C13   H9    S    
O11   C7    A    
C11   C27   S    
O12   C8    A    
C13   C17   S    
C42   H26   S    
O10   V2    S    
C41   H25   S    
C28   C44   S    
O5    V1    S    
C10   H6    S    
O7    V3    S    
C19   H19   S    
O8    V4    S    
C32   C36   S    
C20   C36   S    
C6    C56   S    
C58   O22   D    
C19   N3    S    
O18   V4    S    
C15   C19   S    
C38   C42   S    
C34   C46   S    
C36   C48   S    
N4    H48   S    
N3    H46   S    
O2    C6    A    
C25   C41   S    
C34   C38   S    
C14   H10   S    
C40   C60   S    
O8    C4    A    
C15   H15   S    
C23   C47   T    
O9    C5    A    
O11   V3    S    
N1    H41   S    
C19   C35   S    
C10   C30   S    
C27   C43   S    
C9    C29   S    
O6    V2    S    
C18   C34   S    
C11   H7    S    
C57   H49   S    
C10   H30   S    
C43   H23   S    
C31   H35   S    
C38   H38   S    
N3    H45   S    
C26   C42   S    
C49   C53   T    
H2    C30   S    
C11   H31   S    
N2    H44   S    
C17   N1    S    
O16   V4    S    
O9    V1    S    
C10   C26   S    
C3    O13   A    
C15   C27   S    
C16   C28   S    
C7    C53   S    
C40   C44   S    
C58   H50   S    
C43   H27   S    
O6    C2    A    
C59   H51   S    
C37   C57   S    
C33   C45   S    
O12   V4    S    
C4    C21   S    
C21   C45   T    
O10   C6    A    
O20   V2    S    
N4    H47   S    
C1    C24   S    
H3    C31   S    
C35   C39   S    
C59   O23   D    
C5    C55   S    
C52   C56   T    
C32   H36   S    
C60   O24   D    
C38   C58   S    
C37   C41   S    
N1    H42   S    
C28   C52   S    
C44   H28   S    
C16   C20   S    
C9    H29   S    
C30   C34   S    
C9    H5    S    
C4    O14   A    
C57   O21   D    
C29   C33   S    
C60   H52   S    
C31   C35   S    
C13   H13   S    
C12   C28   S    
N2    H43   S    
C42   H22   S    
