data_mof_unit_33096.cif
_audit_creation_date              2013-03-05T16:15:17-0500
_audit_creation_method            fapswitch 2.2
_symmetry_space_group_name_H-M    P1
_symmetry_Int_Tables_number       1
_space_group_crystal_system       triclinic
_cell_length_a                    27.792267
_cell_length_b                    10.642574
_cell_length_c                    9.413848
_cell_angle_alpha                 89.682259
_cell_angle_beta                  89.914454
_cell_angle_gamma                 89.384363
_cell_volume                      2784.23339696

loop_
_atom_site_label
_atom_site_type_symbol
_atom_site_description
_atom_site_fract_x
_atom_site_fract_y
_atom_site_fract_z
_atom_type_partial_charge
O1    O     O_R   0.500020 0.316850 0.620870 -0.601706
O2    O     O_R   0.499980 0.683150 0.379130 -0.601716
O3    O     O_R   0.500000 0.316860 0.379090 -0.546483
O4    O     O_R   0.500000 0.683140 0.620910 -0.546553
C1    C     C_R   0.500024 0.259335 0.500398 0.781684
C2    C     C_R   0.499975 0.740664 0.499601 0.781654
O5    O     O_R   0.430270 0.500020 0.620880 -0.600762
O6    O     O_R   0.569730 0.499980 0.379120 -0.600782
O7    O     O_R   0.430250 0.500030 0.379090 -0.540648
O8    O     O_R   0.569750 0.499970 0.620910 -0.540618
C3    C     C_R   0.407517 0.500116 0.500128 0.818948
C4    C     C_R   0.592483 0.499901 0.499876 0.818950
Cu1   Cu    Cu3+1 0.500010 0.499990 0.643150 0.972687
Cu2   Cu    Cu3+1 0.499990 0.500010 0.356850 0.972656
C5    C     C_R   0.178485 0.394438 0.465880 0.544519
C6    C     C_R   0.821368 0.608125 0.532228 0.547572
O9    O     O_2   0.203847 0.291481 0.426499 -0.558478
O10   O     O_2   0.795860 0.711905 0.567933 -0.557160
N1    N     N_R   0.202048 0.501055 0.504347 -0.451172
N2    N     N_R   0.797938 0.500634 0.496252 -0.451633
C7    C     C_R   0.177472 0.605800 0.548543 0.598639
C8    C     C_R   0.822651 0.394868 0.456038 0.596866
C9    C     C_R   0.278534 0.505210 0.374569 -0.191696
C10   C     C_R   0.721425 0.496568 0.625674 -0.192587
C11   C     C_R   0.328682 0.504262 0.372904 -0.216430
C12   C     C_R   0.671283 0.496996 0.627229 -0.215677
C13   C     C_R   0.329421 0.495934 0.630463 -0.317399
C14   C     C_R   0.670615 0.503667 0.369627 -0.317707
C15   C     C_R   0.279099 0.493788 0.632385 0.495315
C16   C     C_R   0.720944 0.506350 0.367808 0.495328
C17   C     C_R   0.253618 0.501030 0.503815 0.274572
C18   C     C_R   0.746376 0.500279 0.496495 0.276140
C19   C     C_R   0.101900 0.499262 0.509033 -0.052038
C20   C     C_R   0.898121 0.502385 0.494764 -0.054247
C21   C     C_R   0.128040 0.391096 0.469409 -0.096879
C22   C     C_R   0.871836 0.611328 0.530450 -0.089502
C23   C     C_R   0.103588 0.279666 0.444716 -0.218090
C24   C     C_R   0.896224 0.722862 0.554756 -0.235043
C25   C     C_R   0.126986 0.606491 0.552608 -0.007799
C26   C     C_R   0.873151 0.394048 0.453649 -0.008401
C27   C     C_R   0.354563 0.500048 0.500960 -0.093555
C28   C     C_R   0.645437 0.500204 0.499097 -0.093235
H1    H     H_    0.348598 0.493819 0.730503 0.156087
H2    H     H_    0.651460 0.504821 0.269544 0.156082
H3    H     H_    0.123262 0.192727 0.426617 0.201569
H4    H     H_    0.876514 0.809994 0.571295 0.201763
C29   C     C_R   0.975080 0.391271 0.461133 0.072515
C30   C     C_R   0.024987 0.609857 0.546802 0.069176
C31   C     C_R   0.973947 0.614082 0.533469 -0.060844
C32   C     C_R   0.026095 0.387755 0.472722 -0.082035
C33   C     C_R   0.949259 0.502292 0.497969 0.010478
C34   C     C_R   0.050773 0.499392 0.507744 0.011153
C35   C     C_R   0.948941 0.289865 0.404813 -0.192054
C36   C     C_R   0.051289 0.709710 0.606062 -0.188786
C37   C     C_R   0.899000 0.289462 0.405637 -0.184624
C38   C     C_R   0.101281 0.709542 0.605119 -0.197984
O11   O     O_2   0.798413 0.290884 0.418932 -0.524412
O12   O     O_2   0.201832 0.708903 0.587995 -0.525323
C39   C     C_R   0.053770 0.274743 0.459420 0.425296
C40   C     C_R   0.946308 0.727176 0.545660 0.421480
H5    H     H_    0.652833 0.494069 0.728601 0.188384
H6    H     H_    0.347114 0.507612 0.271515 0.188103
H7    H     H_    0.741028 0.492909 0.724862 0.154957
H8    H     H_    0.258912 0.509599 0.275414 0.156094
H9    H     H_    0.880744 0.207708 0.365075 0.181970
H10   H     H_    0.119794 0.789523 0.648778 0.185344
H11   H     H_    0.966253 0.211389 0.353596 0.184974
H12   H     H_    0.034131 0.787586 0.658846 0.206039
C41   C     C_3   0.499753 0.039681 0.635281 -0.138926
C42   C     C_3   0.500244 0.960318 0.364715 -0.138939
C43   C     C_3   0.539396 0.956402 0.567439 -0.150860
C44   C     C_3   0.460601 0.043598 0.432555 -0.151031
H13   H     H_    0.571626 0.917588 0.622486 0.143906
H14   H     H_    0.428372 0.082412 0.377503 0.143933
H15   H     H_    0.499525 0.074581 0.746213 0.131657
H16   H     H_    0.500473 0.925417 0.253783 0.131544
C45   C     C_3   0.499983 0.877686 0.498764 0.018023
C46   C     C_3   0.500015 0.122314 0.501232 0.018031
C47   C     C_3   0.460340 0.958730 0.566482 -0.172711
C48   C     C_3   0.539658 0.041270 0.433512 -0.172505
H17   H     H_    0.427886 0.921912 0.620804 0.136631
H18   H     H_    0.572111 0.078088 0.379191 0.136742
C49   C     C_3   0.493730 0.613446 0.049850 -0.191214
C50   C     C_3   0.506266 0.386555 0.950156 -0.190731
C51   C     C_3   0.459393 0.544204 0.948975 -0.207046
C52   C     C_3   0.540604 0.455795 0.051023 -0.206473
H19   H     H_    0.425576 0.581066 0.901057 0.134919
H20   H     H_    0.574425 0.418945 0.098930 0.134886
H21   H     H_    0.488889 0.708397 0.096226 0.133175
H22   H     H_    0.511087 0.291594 0.903788 0.133316
N3    N     N_3   0.500040 0.499970 0.858290 -0.188307
N4    N     N_3   0.499960 0.500030 0.141710 -0.188299
C53   C     C_3   0.533726 0.567930 0.950343 0.616251
C54   C     C_3   0.466271 0.432073 0.049666 0.616160
O13   O     O_3   0.569416 0.642507 0.886078 -0.561595
C55   C     C_3   0.600449 0.689341 0.991080 0.010294
H23   H     H_    0.620821 0.611229 0.043098 0.136804
H24   H     H_    0.580119 0.743596 0.072797 0.141781
C56   C     C_3   0.636505 0.776864 0.921416 -0.764631
H25   H     H_    0.617284 0.855696 0.867454 0.244505
H26   H     H_    0.660817 0.815881 0.003186 0.198620
H27   H     H_    0.658431 0.724667 0.842070 0.254675
O14   O     O_3   0.430624 0.357392 0.113979 -0.561446
C57   C     C_3   0.399333 0.311385 0.009178 0.010005
H28   H     H_    0.419455 0.257931 0.926347 0.141692
H29   H     H_    0.378788 0.389908 0.958561 0.137288
C58   C     C_3   0.363506 0.223151 0.078727 -0.764225
H30   H     H_    0.341816 0.274559 0.159282 0.255147
H31   H     H_    0.338954 0.184866 0.997138 0.198484
H32   H     H_    0.382908 0.143850 0.131239 0.244133
O15   O     O_3   0.254554 0.491335 0.760117 -0.565156
C59   C     C_3   0.254717 0.366697 0.812175 0.031037
H33   H     H_    0.292093 0.332468 0.832560 0.134772
H34   H     H_    0.236837 0.302675 0.735726 0.168624
C60   C     C_3   0.227130 0.362180 0.951674 -0.732930
H35   H     H_    0.189372 0.394059 0.934784 0.249829
H36   H     H_    0.227073 0.264501 0.993776 0.210368
H37   H     H_    0.244468 0.424081 0.030687 0.244625
O16   O     O_3   0.745550 0.508009 0.240172 -0.565507
C61   C     C_3   0.744807 0.631974 0.186054 0.033107
H38   H     H_    0.762702 0.697319 0.260980 0.170335
H39   H     H_    0.707278 0.665211 0.166081 0.134158
C62   C     C_3   0.771934 0.635262 0.045747 -0.735926
H40   H     H_    0.754579 0.571777 0.968460 0.244046
H41   H     H_    0.771469 0.732341 0.001860 0.210471
H42   H     H_    0.809859 0.604567 0.062092 0.250056
O17   O     O_3   0.033849 0.157046 0.475039 -0.646416
C63   C     C_3   0.025147 0.132812 0.621052 0.053894
H43   H     H_    0.994919 0.065946 0.628276 0.208681
H44   H     H_    0.013341 0.217641 0.681586 0.136165
C64   C     C_3   0.069611 0.072875 0.690813 -0.350317
H45   H     H_    0.082165 0.992330 0.625751 0.224721
H46   H     H_    0.099034 0.142483 0.695955 0.220272
C65   C     C_3   0.058632 0.027446 0.841114 -0.919892
H47   H     H_    0.047489 0.107849 0.908820 0.264393
H48   H     H_    0.091375 0.983021 0.887600 0.262796
H49   H     H_    0.029444 0.957010 0.839929 0.262555
O18   O     O_3   0.967052 0.844386 0.538281 -0.649545
C66   C     C_3   0.964214 0.891666 0.397379 0.046318
H50   H     H_    0.955786 0.993514 0.403957 0.177868
H51   H     H_    0.934902 0.849962 0.332211 0.129727
C67   C     C_3   0.012588 0.873795 0.321800 -0.302003
H52   H     H_    0.041934 0.911016 0.389052 0.255851
H53   H     H_    0.019448 0.772040 0.304375 0.210724
C68   C     C_3   0.013314 0.941210 0.178588 -0.899339
H54   H     H_    0.984717 0.904406 0.108309 0.251983
H55   H     H_    0.048772 0.924972 0.127170 0.264238
H56   H     H_    0.007888 0.043918 0.192824 0.268811

loop_
_geom_bond_atom_site_label_1
_geom_bond_atom_site_label_2
_geom_bond_distance
_ccdc_geom_bond_type
C13   C15   1.399077 A    
O13   C55   1.409475 S    
C64   C65   1.524188 S    
N1    C17   1.433229 S    
C63   H43   1.108582 S    
C8    O11   1.349637 S    
C57   H29   1.112468 S    
C68   H54   1.110811 S    
C51   N3    1.488859 S    
C62   H40   1.109955 S    
C64   H46   1.110573 S    
C19   C34   1.420996 A    
C5    N1    1.367020 A    
C49   N4    1.489669 S    
C20   C33   1.421598 A    
C19   C25   1.407057 A    
C31   C40   1.425936 A    
O1    C1    1.291728 A    
C32   C39   1.426668 A    
N1    C7    1.367562 A    
C12   H5    1.083129 S    
C10   C12   1.393574 A    
C44   C47   1.546890 S    
C66   C67   1.530681 S    
C46   C48   1.532262 S    
C62   H41   1.110538 S    
C36   H12   1.075435 S    
C16   O16   1.381758 S    
C39   O17   1.381953 S    
C60   H35   1.110801 S    
C49   C53   1.529089 S    
C55   C56   1.520923 S    
C52   H20   1.110010 S    
C14   C28   1.404997 A    
O4    Cu1   1.959242 S    
C41   C43   1.546121 S    
C43   C48   1.546885 S    
C44   C46   1.532156 S    
C37   H9    1.083531 S    
C56   H25   1.110744 S    
C60   H36   1.110507 S    
C55   H24   1.114026 S    
C4    C28   1.471757 S    
C58   H30   1.110830 S    
C41   H15   1.110311 S    
C50   N3    1.489677 S    
C49   C51   1.543067 S    
C61   C62   1.520300 S    
C6    N2    1.366883 A    
C29   C35   1.413471 A    
C26   C37   1.395252 A    
C45   C47   1.532264 S    
C53   O13   1.410544 S    
Cu1   Cu2   2.695183 S    
Cu1   N3    2.025296 S    
C42   C45   1.534167 S    
C58   H31   1.110218 S    
C67   C68   1.523901 S    
C41   C46   1.534165 S    
O2    C2    1.291724 A    
C50   H22   1.109804 S    
C65   H49   1.110525 S    
O2    Cu2   1.961487 S    
C5    C21   1.403156 A    
C57   H28   1.114096 S    
C68   H55   1.109583 S    
C61   H39   1.113687 S    
C29   C32   1.422246 A    
C35   C37   1.388025 A    
C49   H21   1.109801 S    
C66   H50   1.108533 S    
C36   C38   1.389388 A    
C51   H19   1.110002 S    
C42   C48   1.546011 S    
C44   H14   1.110232 S    
C11   C27   1.404966 A    
C47   H17   1.110209 S    
C2    C45   1.458244 S    
C29   C33   1.420165 A    
C31   C33   1.421462 A    
C14   H2    1.082789 S    
C9    C17   1.399789 A    
C30   C36   1.413989 A    
O5    C3    1.301607 A    
O7    Cu2   1.949194 S    
C10   C18   1.399556 A    
C52   C53   1.530407 S    
N3    C53   1.474619 S    
C51   C54   1.530442 S    
C13   C27   1.404977 A    
C32   C34   1.418879 A    
C25   C38   1.394869 A    
C7    C25   1.403546 A    
C30   C34   1.420138 A    
O6    C4    1.301640 A    
C60   H37   1.110299 S    
C8    C26   1.403585 A    
C55   H23   1.112486 S    
N4    C54   1.474589 S    
C50   C54   1.529081 S    
C57   C58   1.520915 S    
O7    C3    1.302047 A    
Cu2   N4    2.025296 S    
C23   C39   1.392749 A    
O3    Cu2   1.959240 S    
O8    C4    1.302021 A    
C24   C40   1.395695 A    
C59   H34   1.114865 S    
C48   H18   1.110210 S    
C9    H8    1.082297 S    
C56   H26   1.110244 S    
N2    C8    1.367262 A    
C54   O14   1.410526 S    
C10   H7    1.082066 S    
C42   H16   1.110312 S    
C58   H32   1.110774 S    
C20   C26   1.408438 A    
C41   C47   1.546013 S    
O4    C2    1.292732 A    
O1    Cu1   1.961488 S    
C23   H3    1.083843 S    
C64   H45   1.109244 S    
C63   C64   1.531689 S    
O3    C1    1.292728 A    
C43   C45   1.532148 S    
C68   H56   1.110648 S    
C61   H38   1.114634 S    
C12   C28   1.404884 A    
C43   H13   1.110221 S    
N2    C18   1.433091 S    
C5    O9    1.349834 S    
C30   C31   1.424459 A    
O6    Cu2   1.949845 S    
O15   C59   1.411516 S    
C21   C23   1.393940 A    
C15   O15   1.381839 S    
C50   C52   1.543034 S    
C62   H42   1.110786 S    
O8    Cu1   1.949194 S    
C63   H44   1.116348 S    
C65   H48   1.110312 S    
O16   C61   1.411572 S    
C65   H47   1.110914 S    
C59   H33   1.113646 S    
C14   C16   1.399427 A    
C7    O12   1.349642 S    
C15   C17   1.404544 A    
C52   N4    1.488806 S    
C6    C22   1.403465 A    
C16   C18   1.404302 A    
C66   H51   1.117717 S    
C38   H10   1.082651 S    
C22   C24   1.393382 A    
C19   C21   1.406437 A    
C3    C27   1.471732 S    
C20   C22   1.405767 A    
C11   H6    1.083156 S    
C9    C11   1.393726 A    
C35   H11   1.075481 S    
C24   H4    1.083812 S    
O18   C66   1.418060 S    
C13   H1    1.082816 S    
O5    Cu1   1.949845 S    
C56   H27   1.110774 S    
C6    O10   1.349829 S    
O14   C57   1.409412 S    
C67   H52   1.110935 S    
C42   C44   1.546124 S    
C1    C46   1.458245 S    
C59   C60   1.520459 S    
C67   H53   1.110613 S    
O17   C63   1.418028 S    
C40   O18   1.381169 S    
