data_mof_unit_35033.cif
_audit_creation_date              2013-03-05T16:00:42-0500
_audit_creation_method            fapswitch 2.2
_symmetry_space_group_name_H-M    P1
_symmetry_Int_Tables_number       1
_space_group_crystal_system       triclinic
_cell_length_a                    21.191937
_cell_length_b                    21.209627
_cell_length_c                    14.016565
_cell_angle_alpha                 89.899404
_cell_angle_beta                  90.098625
_cell_angle_gamma                 89.855877
_cell_volume                      6300.02960698

loop_
_atom_site_label
_atom_site_type_symbol
_atom_site_description
_atom_site_fract_x
_atom_site_fract_y
_atom_site_fract_z
_atom_type_partial_charge
O1    O     O_R   0.066090 0.433930 0.580280 -0.601164
O2    O     O_R   0.933910 0.566070 0.419720 -0.546966
O3    O     O_R   0.933910 0.566070 0.580280 -0.605065
O4    O     O_R   0.066090 0.433930 0.419720 -0.555050
O5    O     O_R   0.933910 0.433930 0.419720 -0.545472
O6    O     O_R   0.066090 0.566070 0.580280 -0.605776
O7    O     O_R   0.066090 0.566070 0.419720 -0.549749
O8    O     O_R   0.933910 0.433930 0.580280 -0.607213
O9    O     O_R   0.566090 0.933930 0.580280 -0.535655
O10   O     O_R   0.433910 0.066070 0.419720 -0.608670
O11   O     O_R   0.433910 0.066070 0.580280 -0.542921
O12   O     O_R   0.566090 0.933930 0.419720 -0.611801
O13   O     O_R   0.433910 0.933930 0.419720 -0.604952
O14   O     O_R   0.566090 0.066070 0.580280 -0.553403
O15   O     O_R   0.566090 0.066070 0.419720 -0.605056
O16   O     O_R   0.433910 0.933930 0.580280 -0.549171
C1    C     C_R   0.087218 0.413694 0.499921 0.947735
C2    C     C_R   0.913047 0.586792 0.499635 0.934435
C3    C     C_R   0.912354 0.414129 0.500015 0.927634
C4    C     C_R   0.087322 0.586025 0.499912 0.943156
C5    C     C_R   0.588049 0.914322 0.500140 0.925895
C6    C     C_R   0.412408 0.085975 0.499836 0.929183
C7    C     C_R   0.412482 0.914266 0.500015 0.943898
C8    C     C_R   0.587351 0.086056 0.500156 0.936079
Zn1   Zn    Zn3+2 1.000000 0.500000 0.607200 1.045488
Zn2   Zn    Zn3+2 0.000000 0.500000 0.392800 1.121930
Zn3   Zn    Zn3+2 0.500000 0.000000 0.607200 1.126738
Zn4   Zn    Zn3+2 0.500000 0.000000 0.392800 1.036698
C9    C     C_R   0.138268 0.675617 0.574544 -0.293711
C10   C     C_R   0.852591 0.333162 0.582553 -0.276008
C11   C     C_R   0.862362 0.676026 0.578591 -0.308540
C12   C     C_R   0.132660 0.318975 0.571056 -0.313139
C13   C     C_R   0.635850 0.177749 0.426549 -0.313891
C14   C     C_R   0.360024 0.826303 0.424225 -0.300370
C15   C     C_R   0.352489 0.167082 0.417274 -0.309258
C16   C     C_R   0.658978 0.844721 0.413175 -0.304592
C17   C     C_R   0.135706 0.633363 0.499442 -0.199327
C18   C     C_R   0.861134 0.369505 0.501148 -0.225579
C19   C     C_R   0.869002 0.638820 0.497688 -0.215390
C20   C     C_R   0.132890 0.363454 0.498303 -0.206965
C21   C     C_R   0.634146 0.135048 0.501449 -0.185584
C22   C     C_R   0.363123 0.868089 0.499787 -0.196493
C23   C     C_R   0.360442 0.129880 0.498014 -0.207398
C24   C     C_R   0.641813 0.872199 0.499337 -0.212004
C25   C     C_R   0.178186 0.636446 0.423775 0.591751
C26   C     C_R   0.819899 0.364912 0.423709 0.616109
C27   C     C_R   0.837334 0.653746 0.413117 0.609858
C28   C     C_R   0.173060 0.357703 0.420224 0.613951
C29   C     C_R   0.674236 0.140714 0.579846 0.581019
C30   C     C_R   0.319568 0.866307 0.574029 0.585295
C31   C     C_R   0.317305 0.131882 0.572991 0.618268
C32   C     C_R   0.677714 0.862300 0.581812 0.620068
C33   C     C_R   0.223624 0.684230 0.420871 -0.099656
C34   C     C_R   0.768787 0.323267 0.427608 -0.096146
C35   C     C_R   0.800219 0.708016 0.407683 -0.098721
C36   C     C_R   0.212050 0.304956 0.411693 -0.101375
C37   C     C_R   0.715869 0.191541 0.585976 -0.093590
C38   C     C_R   0.273588 0.819033 0.576384 -0.098423
C39   C     C_R   0.265153 0.172361 0.567865 -0.102279
C40   C     C_R   0.731031 0.823360 0.578677 -0.100341
C41   C     C_R   0.225809 0.727853 0.498111 -0.054766
C42   C     C_R   0.763692 0.282377 0.507606 -0.067506
C43   C     C_R   0.789988 0.743273 0.492207 -0.057372
C44   C     C_R   0.214526 0.261380 0.488632 -0.056176
C45   C     C_R   0.718636 0.234446 0.507787 -0.044407
C46   C     C_R   0.270934 0.775736 0.498768 -0.052729
C47   C     C_R   0.260077 0.213767 0.488462 -0.052356
C48   C     C_R   0.744531 0.790941 0.492601 -0.052303
C49   C     C_R   0.182863 0.723288 0.575123 0.067985
C50   C     C_R   0.805307 0.288216 0.586112 0.064827
C51   C     C_R   0.822424 0.728149 0.577791 0.062350
C52   C     C_R   0.173555 0.267571 0.567992 0.069605
C53   C     C_R   0.677534 0.228154 0.428393 0.068227
C54   C     C_R   0.313605 0.780535 0.421518 0.070782
C55   C     C_R   0.302734 0.209460 0.410971 0.070401
C56   C     C_R   0.709875 0.803709 0.408238 0.061905
C57   C     C_R   0.266686 0.689880 0.343674 0.130553
C58   C     C_R   0.723935 0.320414 0.352733 0.170314
C59   C     C_R   0.771487 0.726436 0.320712 0.193491
C60   C     C_R   0.249605 0.295782 0.329451 0.180507
C61   C     C_R   0.754739 0.200870 0.667367 0.133611
C62   C     C_R   0.230781 0.813248 0.653721 0.131130
C63   C     C_R   0.219404 0.173882 0.641370 0.174589
C64   C     C_R   0.769286 0.813958 0.660439 0.176621
C65   C     C_R   0.799703 0.248968 0.666631 0.187249
C66   C     C_R   0.184917 0.765950 0.651834 0.191364
C67   C     C_R   0.174060 0.222220 0.642068 0.144017
C68   C     C_R   0.814261 0.765303 0.660560 0.145303
C69   C     C_R   0.310409 0.739213 0.343303 0.175702
C70   C     C_R   0.678348 0.272596 0.353073 0.142476
C71   C     C_R   0.725898 0.774319 0.321142 0.114511
C72   C     C_R   0.295345 0.248009 0.329354 0.123601
H1    H     H_    0.104502 0.671301 0.632159 0.214786
H2    H     H_    0.884763 0.338706 0.642078 0.222049
H3    H     H_    0.888435 0.663399 0.642154 0.204155
H4    H     H_    0.100047 0.325174 0.629536 0.192088
H5    H     H_    0.603704 0.171205 0.367466 0.192918
H6    H     H_    0.395046 0.829202 0.368122 0.212480
H7    H     H_    0.386959 0.163781 0.360725 0.189773
H8    H     H_    0.630676 0.854049 0.350523 0.205084
C73   C     C_R   0.943924 0.501189 0.797604 0.675517
C74   C     C_R   0.056035 0.498776 0.202291 0.709158
C75   C     C_R   0.056073 0.498855 0.797904 0.677913
C76   C     C_R   0.943954 0.501360 0.202026 0.738303
C77   C     C_R   0.443969 0.999582 0.797752 0.719940
C78   C     C_R   0.556096 0.999893 0.202413 0.664475
C79   C     C_R   0.556061 0.000259 0.797992 0.730820
C80   C     C_R   0.443913 0.999973 0.202120 0.666495
N1    N     N_R   0.000000 0.500000 0.750030 -0.236349
N2    N     N_R   1.000000 0.500000 0.249970 -0.258513
N3    N     N_R   0.500000 0.000000 0.750030 -0.256256
N4    N     N_R   0.500000 0.000000 0.249970 -0.230180
C81   C     C_R   0.057572 0.498759 0.898767 -0.281496
C82   C     C_R   0.942439 0.501467 0.101179 -0.306119
C83   C     C_R   0.942423 0.501368 0.898457 -0.283026
C84   C     C_R   0.057549 0.498722 0.101472 -0.300408
C85   C     C_R   0.557584 0.000169 0.898849 -0.295176
C86   C     C_R   0.442416 0.999812 0.101273 -0.280206
C87   C     C_R   0.442452 0.999608 0.898577 -0.299340
C88   C     C_R   0.557606 0.999934 0.101570 -0.274880
C89   C     C_R   0.999996 0.500067 0.949277 -0.155006
C90   C     C_R   0.999994 0.500077 0.050649 -0.165692
C91   C     C_R   0.500018 0.999888 0.949390 -0.167563
C92   C     C_R   0.500014 0.999878 0.050759 -0.151658
C93   C     C_R   0.114739 0.497419 0.950279 0.589973
C94   C     C_R   0.885263 0.502895 0.049716 0.607886
C95   C     C_R   0.885259 0.502812 0.949662 0.585371
C96   C     C_R   0.114733 0.497400 0.050327 0.581983
C97   C     C_R   0.614780 0.000318 0.950312 0.596327
C98   C     C_R   0.385236 0.999571 0.049782 0.572192
C99   C     C_R   0.385249 0.999388 0.949733 0.597047
C100  C     C_R   0.614789 0.000088 0.050366 0.568553
F1    F     F_    0.175278 0.591275 0.355548 -0.610244
F2    F     F_    0.830540 0.400543 0.344752 -0.584103
F3    F     F_    0.840150 0.613241 0.338158 -0.582543
F4    F     F_    0.176049 0.405587 0.355771 -0.572576
F5    F     F_    0.673573 0.094664 0.647132 -0.624046
F6    F     F_    0.322051 0.912114 0.641312 -0.616854
F7    F     F_    0.327412 0.095278 0.651177 -0.574401
F8    F     F_    0.658935 0.888500 0.665512 -0.589573
N5    N     N_2   0.265188 0.649077 0.262981 -0.300028
H9    H     H_    0.221925 0.643427 0.230502 0.298564
C101  C     C_3   0.303203 0.592459 0.271206 -0.566153
H10   H     H_    0.301848 0.566223 0.202765 0.262316
H11   H     H_    0.285248 0.561420 0.328843 0.289243
H12   H     H_    0.353040 0.604570 0.287248 0.187395
N6    N     N_2   0.725720 0.364386 0.275444 -0.230257
H13   H     H_    0.712117 0.346818 0.210034 0.250102
C102  C     C_3   0.698394 0.425588 0.295550 -0.520854
H14   H     H_    0.646359 0.422136 0.300888 0.177452
H15   H     H_    0.710141 0.458687 0.236791 0.278018
H16   H     H_    0.717351 0.445224 0.363166 0.248745
N7    N     N_2   0.787040 0.695683 0.233195 -0.215456
H17   H     H_    0.750854 0.692489 0.184184 0.255886
C103  C     C_3   0.845995 0.715447 0.190696 -0.624545
H18   H     H_    0.842486 0.764974 0.165651 0.199708
H19   H     H_    0.856888 0.684813 0.128670 0.244418
H20   H     H_    0.885410 0.711357 0.242693 0.239013
N8    N     N_2   0.242552 0.335528 0.247670 -0.218105
H21   H     H_    0.283234 0.343641 0.209365 0.252668
C104  C     C_3   0.189037 0.320925 0.187324 -0.575756
H22   H     H_    0.196079 0.274804 0.151693 0.190244
H23   H     H_    0.183895 0.357955 0.131736 0.265878
H24   H     H_    0.144732 0.319432 0.229476 0.236647
N9    N     N_2   0.751053 0.162115 0.750346 -0.293772
H25   H     H_    0.759900 0.114774 0.740719 0.301217
C105  C     C_3   0.700681 0.177468 0.815977 -0.617979
H26   H     H_    0.704743 0.147371 0.880601 0.259304
H27   H     H_    0.653886 0.169336 0.782560 0.266069
H28   H     H_    0.704049 0.227606 0.838153 0.209103
N10   N     N_2   0.231371 0.854880 0.733465 -0.298385
H29   H     H_    0.227182 0.902244 0.718245 0.292933
C106  C     C_3   0.275504 0.838747 0.808680 -0.603657
H30   H     H_    0.268962 0.871402 0.869709 0.265063
H31   H     H_    0.324898 0.842487 0.783149 0.273736
H32   H     H_    0.267150 0.789864 0.834130 0.200961
N11   N     N_2   0.220300 0.128268 0.716543 -0.220259
H33   H     H_    0.205063 0.144147 0.782080 0.252488
C107  C     C_3   0.194518 0.067228 0.691848 -0.557302
H34   H     H_    0.142728 0.070483 0.681788 0.175667
H35   H     H_    0.204455 0.033246 0.750357 0.264648
H36   H     H_    0.216214 0.048763 0.625412 0.252828
N12   N     N_2   0.761254 0.852008 0.743615 -0.232389
H37   H     H_    0.771107 0.830154 0.807711 0.249105
C108  C     C_3   0.788024 0.914635 0.737087 -0.540151
H38   H     H_    0.840228 0.912001 0.733545 0.172230
H39   H     H_    0.774525 0.942279 0.801101 0.281714
H40   H     H_    0.770153 0.939861 0.672968 0.259633
N13   N     N_2   0.840516 0.257164 0.746726 -0.295791
H41   H     H_    0.818250 0.254491 0.811942 0.260364
C109  C     C_3   0.897440 0.219489 0.743400 -0.794443
H42   H     H_    0.928498 0.232380 0.804122 0.246026
H43   H     H_    0.923441 0.228278 0.675953 0.241481
H44   H     H_    0.885800 0.168550 0.748735 0.251606
N14   N     N_2   0.140059 0.761499 0.727368 -0.301561
H45   H     H_    0.158695 0.767140 0.794763 0.255631
C110  C     C_3   0.083720 0.798877 0.712595 -0.800198
H46   H     H_    0.050466 0.790651 0.772359 0.246016
H47   H     H_    0.060105 0.785260 0.644883 0.243642
H48   H     H_    0.095632 0.849858 0.710326 0.250636
N15   N     N_2   0.130704 0.225363 0.719609 -0.317275
H49   H     H_    0.130136 0.267819 0.755296 0.240906
C111  C     C_3   0.068522 0.200540 0.699814 -0.795771
H50   H     H_    0.041231 0.198021 0.767186 0.247747
H51   H     H_    0.071744 0.152401 0.669518 0.251426
H52   H     H_    0.042876 0.231323 0.648631 0.233205
N16   N     N_2   0.848803 0.752915 0.746002 -0.315875
H53   H     H_    0.845533 0.707241 0.770746 0.248869
C112  C     C_3   0.912250 0.777870 0.747950 -0.803705
H54   H     H_    0.932922 0.770524 0.819953 0.246369
H55   H     H_    0.911956 0.829148 0.732490 0.252085
H56   H     H_    0.942440 0.753670 0.694672 0.237757
N17   N     N_2   0.350376 0.748643 0.262550 -0.326890
H57   H     H_    0.367363 0.708098 0.231341 0.248823
C113  C     C_3   0.325814 0.793012 0.193214 -0.711386
H58   H     H_    0.361390 0.800722 0.136333 0.238609
H59   H     H_    0.315558 0.839150 0.227354 0.276690
H60   H     H_    0.281984 0.774280 0.160232 0.242651
N18   N     N_2   0.634651 0.269334 0.275680 -0.318257
H61   H     H_    0.634151 0.226781 0.240258 0.239454
C114  C     C_3   0.572370 0.294342 0.295313 -0.779936
H62   H     H_    0.546712 0.263720 0.346384 0.231071
H63   H     H_    0.544877 0.296861 0.227926 0.246107
H64   H     H_    0.575510 0.342446 0.325716 0.251127
N19   N     N_2   0.695336 0.790589 0.233682 -0.346282
H65   H     H_    0.646975 0.785525 0.234104 0.223648
C115  C     C_3   0.716733 0.848518 0.189762 -0.643866
H66   H     H_    0.694496 0.853741 0.118392 0.253622
H67   H     H_    0.768704 0.847717 0.180484 0.236370
H68   H     H_    0.703570 0.889908 0.233891 0.284031
N20   N     N_2   0.334415 0.240692 0.247291 -0.339137
H69   H     H_    0.382128 0.244702 0.260296 0.219508
C116  C     C_3   0.318077 0.188518 0.185606 -0.683942
H70   H     H_    0.346812 0.190882 0.119553 0.239827
H71   H     H_    0.267507 0.190821 0.165323 0.247406
H72   H     H_    0.327503 0.142730 0.221450 0.273365
F9    F     F_    0.889612 0.502157 0.746271 -0.581311
F10   F     F_    0.110328 0.497719 0.253420 -0.493288
F11   F     F_    0.110380 0.497843 0.746854 -0.576874
F12   F     F_    0.889661 0.502578 0.252930 -0.493386
F13   F     F_    0.389672 0.999103 0.746670 -0.494293
F14   F     F_    0.610412 0.999786 0.253754 -0.598657
F15   F     F_    0.610367 0.000465 0.747114 -0.503923
F16   F     F_    0.389596 0.000069 0.253179 -0.592939
F17   F     F_    0.171060 0.496108 0.904270 -0.572298
F18   F     F_    0.828951 0.504357 0.095773 -0.560901
F19   F     F_    0.828941 0.504185 0.903344 -0.572094
F20   F     F_    0.171051 0.496133 0.096687 -0.574584
F21   F     F_    0.671101 0.000703 0.904257 -0.590557
F22   F     F_    0.328906 0.999477 0.095810 -0.589072
F23   F     F_    0.328921 0.999096 0.903377 -0.579155
F24   F     F_    0.671123 0.000136 0.096677 -0.597286

loop_
_geom_bond_atom_site_label_1
_geom_bond_atom_site_label_2
_geom_bond_distance
_ccdc_geom_bond_type
C101  H12   1.110260 S    
C63   C67   1.403454 A    
C111  H50   1.109491 S    
C94   C95   1.402417 A    
C83   C89   1.411935 A    
C29   F5    1.356659 S    
C94   F18   1.358074 S    
N15   H49   1.030884 S    
C93   F17   1.357855 S    
N6    H13   1.031180 S    
C14   C22   1.383795 A    
C2    C19   1.443708 S    
C44   C52   1.418352 A    
C23   C31   1.394709 A    
C104  H24   1.110687 S    
C104  H22   1.108964 S    
C108  H38   1.108788 S    
C47   C55   1.417244 A    
C45   C53   1.418682 A    
C91   C92   1.420842 A    
C105  H27   1.110010 S    
C78   N4    1.363913 A    
N17   H57   1.029918 S    
O10   C6    1.284271 A    
N10   C106  1.448090 S    
O13   C7    1.283699 A    
C35   C59   1.415627 A    
N9    H25   1.030117 S    
C7    C22   1.434760 S    
C84   C90   1.411636 A    
O12   Zn4   2.013488 S    
C54   C69   1.406411 A    
C19   C27   1.396649 A    
C75   C81   1.414052 A    
C39   C63   1.416285 A    
C53   C70   1.414229 A    
C114  H64   1.108497 S    
C38   C62   1.420043 A    
N8    H21   1.031111 S    
C82   C94   1.409294 A    
N14   C110  1.445901 S    
C108  H39   1.110207 S    
O6    Zn1   2.019285 S    
C103  H19   1.110501 S    
C65   N13   1.427135 S    
C101  H10   1.110236 S    
C46   C54   1.415621 A    
C113  H60   1.111459 S    
C112  H56   1.109854 S    
C83   C95   1.409422 A    
C42   C50   1.414802 A    
O3    C2    1.289157 A    
C101  H11   1.109639 S    
O14   C8    1.282573 A    
C110  H47   1.111164 S    
C20   C28   1.392978 A    
C32   C40   1.398674 A    
C104  H23   1.110379 S    
C62   N10   1.425713 S    
C33   C41   1.426123 A    
C41   C46   1.396738 A    
C38   C46   1.426023 A    
C107  H36   1.110749 S    
C115  H66   1.110314 S    
N11   C107  1.448753 S    
C16   C56   1.385842 A    
C93   C96   1.402327 A    
C87   C99   1.409514 A    
N8    C104  1.448069 S    
O13   Zn4   2.019288 S    
C79   C85   1.413980 A    
O14   Zn3   2.019285 S    
N7    C103  1.447686 S    
C85   C97   1.409430 A    
C116  H70   1.110143 S    
Zn2   N2    2.001987 S    
C59   C71   1.399974 A    
C26   C34   1.400460 A    
O9    Zn3   2.015313 S    
Zn1   N1    2.001986 S    
C97   C100  1.402419 A    
C39   C47   1.420279 A    
C24   C32   1.398074 A    
O16   Zn3   2.019307 S    
N17   C113  1.446922 S    
C77   N3    1.363899 A    
C27   C35   1.394375 A    
Zn3   N3    2.001986 S    
N9    C105  1.447237 S    
C71   N19   1.426891 S    
C103  H20   1.110727 S    
O1    Zn1   2.015313 S    
C8    C21   1.438282 S    
N15   C111  1.446853 S    
C102  H15   1.110257 S    
C79   F15   1.354946 S    
C110  H46   1.109481 S    
C78   F14   1.356445 S    
C15   H7    1.081055 S    
C77   F13   1.354250 S    
C10   C50   1.385688 A    
C99   F23   1.358136 S    
C112  H54   1.110098 S    
C105  H28   1.110856 S    
C9    C49   1.385747 A    
C106  H31   1.109804 S    
N19   C115  1.447512 S    
C111  H52   1.109748 S    
C97   F21   1.357953 S    
C74   F10   1.354587 S    
O8    C3    1.285159 A    
C10   C18   1.388238 A    
C63   N11   1.429277 S    
C73   F9    1.356400 S    
N16   H53   1.030914 S    
C96   F20   1.358126 S    
C44   C47   1.395251 A    
C80   C86   1.413839 A    
O3    Zn1   2.013488 S    
C74   C84   1.413558 A    
C12   C52   1.391802 A    
C102  H16   1.110850 S    
N18   H61   1.030920 S    
C9    H1    1.083800 S    
C10   H2    1.083300 S    
C108  H40   1.110643 S    
N14   H45   1.030529 S    
C34   C42   1.420760 A    
C72   N20   1.426854 S    
C106  H30   1.110256 S    
O5    C3    1.285604 A    
O12   C5    1.286738 A    
Zn4   N4    2.001987 S    
C109  H42   1.110035 S    
C35   C43   1.418802 A    
C1    C20   1.437945 S    
C30   C38   1.400296 A    
C60   C72   1.400461 A    
C110  H48   1.111388 S    
C33   C57   1.421782 A    
N12   H37   1.031019 S    
C109  H43   1.110766 S    
C114  H62   1.109676 S    
C86   C98   1.409356 A    
C3    C18   1.442020 S    
C66   N14   1.427267 S    
C59   N7    1.428970 S    
C5    C24   1.446156 S    
C111  H51   1.108492 S    
C6    C23   1.440572 S    
N20   H69   1.030875 S    
O11   Zn3   2.013488 S    
C22   C30   1.392693 A    
C32   F8    1.358785 S    
C57   C69   1.399374 A    
C80   F16   1.356464 S    
C36   C44   1.419861 A    
N19   H65   1.030775 S    
C89   C90   1.420882 A    
O2    Zn2   2.015313 S    
C86   C92   1.412150 A    
C51   C68   1.414222 A    
C116  H71   1.109209 S    
N10   H29   1.030198 S    
C70   N18   1.426937 S    
C95   F19   1.357869 S    
C58   N6    1.428849 S    
C14   C54   1.384265 A    
C76   C82   1.413838 A    
O4    C1    1.282184 A    
C55   C72   1.413221 A    
C13   C53   1.388761 A    
O15   C8    1.286360 A    
C115  H67   1.109341 S    
C43   C51   1.417428 A    
O7    C4    1.282921 A    
O16   C7    1.283238 A    
N20   C116  1.447836 S    
C73   C83   1.414040 A    
C37   C61   1.420408 A    
C16   C24   1.390486 A    
C31   C39   1.399446 A    
C98   F22   1.357917 S    
C17   C25   1.393877 A    
C105  H26   1.110316 S    
C52   C67   1.414126 A    
C15   C23   1.388259 A    
C100  F24   1.357894 S    
C69   N17   1.428942 S    
C106  H32   1.110568 S    
O10   Zn4   2.015313 S    
C28   C36   1.394555 A    
C43   C48   1.394741 A    
C61   N9    1.425415 S    
C42   C45   1.396438 A    
C27   F3    1.359658 S    
C88   C100  1.409476 A    
C79   N3    1.364076 A    
C28   F4    1.359754 S    
C64   N12   1.429251 S    
C15   C55   1.386399 A    
C37   C45   1.424646 A    
O2    C2    1.282887 A    
C60   N8    1.429110 S    
C29   C37   1.397399 A    
O4    Zn2   2.013488 S    
C16   H8    1.080290 S    
C26   F2    1.358504 S    
C87   C91   1.411591 A    
C107  H34   1.108281 S    
C48   C56   1.416286 A    
C21   C29   1.393374 A    
N6    C102  1.448382 S    
O11   C6    1.285616 A    
C25   F1    1.356278 S    
C36   C60   1.415368 A    
C75   N1    1.363800 A    
C41   C49   1.416444 A    
C14   H6    1.084013 S    
N5    C101  1.448672 S    
C98   C99   1.402349 A    
C85   C91   1.411780 A    
C109  H44   1.111205 S    
C13   C21   1.385875 A    
C114  H63   1.110071 S    
C62   C66   1.398806 A    
N5    H9    1.030295 S    
O8    Zn1   2.019307 S    
C76   N2    1.363873 A    
C4    C17   1.436885 S    
C40   C64   1.416175 A    
O9    C5    1.285990 A    
O15   Zn4   2.019304 S    
C64   C68   1.403006 A    
O7    Zn2   2.019304 S    
O6    C4    1.285132 A    
C58   C70   1.402441 A    
C11   H3    1.080504 S    
C81   C93   1.409450 A    
C11   C51   1.390627 A    
C12   H4    1.081062 S    
C112  H55   1.108595 S    
C34   C58   1.416207 A    
C11   C19   1.389808 A    
C78   C88   1.413894 A    
N18   C114  1.448206 S    
C12   C20   1.388010 A    
C113  H58   1.110416 S    
N13   H41   1.030979 S    
C116  H72   1.110142 S    
C57   N5    1.425703 S    
C18   C26   1.395992 A    
C113  H59   1.111198 S    
C74   N2    1.363834 A    
C56   C71   1.413228 A    
C25   C33   1.400329 A    
O5    Zn2   2.019288 S    
C82   C90   1.411742 A    
C80   N4    1.363770 A    
C115  H68   1.110086 S    
C81   C89   1.411965 A    
O1    C1    1.286803 A    
C40   C48   1.418933 A    
N12   C108  1.448478 S    
C75   F11   1.356377 S    
N11   H33   1.031065 S    
C84   C96   1.409311 A    
C9    C17   1.384770 A    
C103  H18   1.109242 S    
N16   C112  1.446472 S    
C76   F12   1.355093 S    
C30   F6    1.356238 S    
C77   C87   1.413645 A    
C68   N16   1.426179 S    
C13   H5    1.080798 S    
N13   C109  1.446163 S    
N7    H17   1.031111 S    
C102  H14   1.107966 S    
C50   C65   1.406573 A    
C73   N1    1.363866 A    
C67   N15   1.425942 S    
C61   C65   1.397739 A    
C49   C66   1.407207 A    
C88   C92   1.412040 A    
C107  H35   1.110381 S    
C31   F7    1.358289 S    
