data_mof_unit_47779.cif
_audit_creation_date              2012-12-10T18:51:37-0500
_audit_creation_method            fapswitch 2.2
_symmetry_space_group_name_H-M    P1
_symmetry_Int_Tables_number       1
_space_group_crystal_system       triclinic
_cell_length_a                    10.726101
_cell_length_b                    9.850529
_cell_length_c                    10.517331
_cell_angle_alpha                 89.204067
_cell_angle_beta                  90.832502
_cell_angle_gamma                 88.982125
_cell_volume                      1110.83382547

loop_
_atom_site_label
_atom_site_type_symbol
_atom_type_description
_atom_site_fract_x
_atom_site_fract_y
_atom_site_fract_z
_atom_type_partial_charge
C1    C     C_R   0.872592 0.496526 0.495142 -0.423823
C2    C     C_R   0.127734 0.505193 0.507051 -0.418464
C3    C     C_R   0.260089 0.501448 0.501224 0.997448
C4    C     C_R   0.739918 0.498747 0.496984 0.987274
C5    C     C_R   0.496910 0.501045 0.257428 0.917640
C6    C     C_R   0.502978 0.498949 0.742899 0.877156
C7    C     C_3   0.503185 0.631098 0.038224 -0.279226
C8    C     C_3   0.496806 0.368210 0.963157 -0.293205
C9    C     C_3   0.606715 0.558907 0.961577 -0.368688
C10   C     C_3   0.393372 0.440308 0.039961 -0.358822
C11   C     C_3   0.402244 0.567345 0.954194 0.624779
C12   C     C_3   0.597428 0.432026 0.047688 0.627707
C13   C     C_3   0.503689 0.496804 0.878189 -0.103948
C14   C     C_3   0.495917 0.502900 0.122708 -0.099585
C15   C     C_R   0.453865 0.074225 0.397998 -0.047283
C16   C     C_R   0.545684 0.925758 0.602168 -0.045376
C17   C     C_R   0.545104 0.069476 0.602379 -0.034970
C18   C     C_R   0.453856 0.930461 0.398009 -0.078138
C19   C     C_R   0.066980 0.398923 0.570251 0.387388
C20   C     C_R   0.933193 0.603761 0.433833 0.374138
C21   C     C_R   0.939051 0.391120 0.558931 0.391386
C22   C     C_R   0.061447 0.611324 0.444099 0.350114
N1    N     N_R   0.500000 0.857200 0.500000 -0.078843
N2    N     N_R   0.500000 0.142800 0.500000 -0.074509
O1    O     O_R   0.316770 0.614620 0.499990 -0.588142
O2    O     O_R   0.683230 0.385380 0.500010 -0.564393
O3    O     O_R   0.683230 0.614620 0.500010 -0.586993
O4    O     O_R   0.316770 0.385380 0.499990 -0.592551
O5    O     O_R   0.499970 0.614650 0.313950 -0.638518
O6    O     O_R   0.500030 0.385350 0.686050 -0.652303
O7    O     O_R   0.500030 0.614650 0.686050 -0.610775
O8    O     O_R   0.499970 0.385350 0.313950 -0.608348
Zn1   Zn    Zn3+2 0.500000 0.653120 0.500000 0.983701
Zn2   Zn    Zn3+2 0.500000 0.346880 0.500000 0.991765
H1    H     H_    0.416585 0.130268 0.316437 0.132230
H2    H     H_    0.582467 0.869735 0.683965 0.129510
H3    H     H_    0.580120 0.121709 0.684755 0.110352
H4    H     H_    0.416601 0.878102 0.316510 0.133340
O9    O     O_3   0.302074 0.638321 0.893568 -0.624992
C23   C     C_3   0.217625 0.683115 0.985994 -0.334664
H5    H     H_    0.263571 0.748713 0.057403 0.178227
H6    H     H_    0.172368 0.595877 0.033742 0.157930
H7    H     H_    0.142950 0.744890 0.937878 0.190682
O10   O     O_3   0.694419 0.362839 0.115171 -0.608253
C24   C     C_3   0.781197 0.311142 0.029161 -0.378834
H8    H     H_    0.825900 0.394691 0.975461 0.143672
H9    H     H_    0.736917 0.237224 0.964572 0.160722
H10   H     H_    0.855932 0.255918 0.083708 0.207339
H11   H     H_    0.503493 0.736970 0.073089 0.159890
H12   H     H_    0.496720 0.262314 0.928363 0.158082
H13   H     H_    0.693383 0.604306 0.925004 0.143546
H14   H     H_    0.307182 0.394217 0.076930 0.148778
O11   O     O_3   0.131575 0.297366 0.637462 -0.555871
C25   C     C_3   0.171098 0.348701 0.756014 -0.244161
H15   H     H_    0.252404 0.415191 0.744783 0.189218
H16   H     H_    0.200830 0.262167 0.818601 0.175705
H17   H     H_    0.095844 0.405729 0.805364 0.118761
O12   O     O_3   0.867350 0.702391 0.364203 -0.567749
C26   C     C_3   0.853189 0.657450 0.238193 -0.225217
H18   H     H_    0.799488 0.735792 0.182641 0.176916
H19   H     H_    0.799672 0.562017 0.234516 0.182186
H20   H     H_    0.945138 0.643365 0.191966 0.158504
O13   O     O_3   0.881281 0.273211 0.597354 -0.535330
C27   C     C_3   0.843635 0.285721 0.724257 -0.248361
H21   H     H_    0.924059 0.269731 0.790330 0.162397
H22   H     H_    0.795306 0.384476 0.742519 0.109721
H23   H     H_    0.776892 0.204146 0.744727 0.166014
O14   O     O_3   0.122690 0.713285 0.379376 -0.598070
C28   C     C_3   0.116061 0.833252 0.451117 -0.158286
H24   H     H_    0.018923 0.873845 0.455716 0.198375
H25   H     H_    0.172613 0.911713 0.403587 0.162677
H26   H     H_    0.155180 0.817237 0.548962 0.161422

loop_
_geom_bond_atom_site_label_1
_geom_bond_atom_site_label_2
_ccdc_geom_bond_type
C7    C14   S    
C2    C22   A    
C28   H26   S    
C4    O2    A    
O7    Zn1   S    
C1    C21   A    
C8    C13   S    
C8    H12   S    
C15   C18   A    
C24   H8    S    
C9    H13   S    
C8    C12   S    
C1    C4    S    
C10   H14   S    
C27   H21   S    
C5    O8    A    
C23   H6    S    
C6    O7    A    
C18   H4    S    
O4    Zn2   S    
C26   H18   S    
C12   O10   S    
C17   H3    S    
O11   C25   S    
O3    Zn1   S    
C6    C13   S    
C7    C11   S    
C11   C13   S    
O8    Zn2   S    
C19   O11   S    
C5    C14   S    
C16   H2    S    
C15   H1    S    
C23   H5    S    
C19   C21   A    
C20   C22   A    
C2    C3    S    
C16   N1    A    
C5    O5    A    
C24   H9    S    
C28   H24   S    
C11   O9    S    
C9    C12   S    
C25   H16   S    
C21   O13   S    
C17   N2    A    
C26   H19   S    
C10   C11   S    
O6    Zn2   S    
C20   O12   S    
O13   C27   S    
C27   H23   S    
O5    Zn1   S    
C3    O1    A    
C4    O3    A    
C16   C17   A    
O10   C24   S    
C7    H11   S    
C8    C10   S    
C10   C14   S    
C24   H10   S    
O1    Zn1   S    
O9    C23   S    
C28   H25   S    
C7    C9    S    
C25   H15   S    
C3    O4    A    
C26   H20   S    
C9    C13   S    
C6    O6    A    
O12   C26   S    
C22   O14   S    
C15   N2    A    
O2    Zn2   S    
C23   H7    S    
N2    Zn2   S    
N1    Zn1   S    
C18   N1    A    
C2    C19   A    
C12   C14   S    
O14   C28   S    
C1    C20   A    
C25   H17   S    
C27   H22   S    
