data_mof_unit_58383.cif
_audit_creation_date              2012-12-10T16:53:00-0500
_audit_creation_method            fapswitch 2.2
_symmetry_space_group_name_H-M    P1
_symmetry_Int_Tables_number       1
_space_group_crystal_system       triclinic
_cell_length_a                    8.166611
_cell_length_b                    8.775853
_cell_length_c                    11.546798
_cell_angle_alpha                 101.492623
_cell_angle_beta                  82.087256
_cell_angle_gamma                 90.194243
_cell_volume                      802.987604938

loop_
_atom_site_label
_atom_site_type_symbol
_atom_type_description
_atom_site_fract_x
_atom_site_fract_y
_atom_site_fract_z
_atom_type_partial_charge
C1    C     C_R   0.540248 0.790963 0.492705 0.917438
C2    C     C_2   0.444454 0.055830 0.527837 -0.052392
C3    C     C_3   0.678960 0.968014 0.359337 -0.428703
C4    C     C_3   0.731169 0.825554 0.261547 -0.809614
C5    C     C_3   0.322003 0.044305 0.637875 -0.389740
C6    C     C_3   0.144706 0.023744 0.608422 -0.768344
C7    C     C_R   0.002873 0.344590 0.354872 0.236239
C8    C     C_R   0.881698 0.273898 0.286636 -0.132302
C9    C     C_R   0.913882 0.194389 0.167859 -0.200105
C10   C     C_R   0.075046 0.164754 0.113853 -0.082764
C11   C     C_R   0.199722 0.203517 0.182944 -0.195504
C12   C     C_R   0.459741 0.208524 0.504182 0.863585
C13   C     C_R   0.162289 0.284174 0.301490 -0.128537
C14   C     C_R   0.996615 0.651711 0.646631 0.241141
C15   C     C_R   0.117463 0.719254 0.716092 -0.114331
C16   C     C_R   0.085056 0.793306 0.836202 -0.204325
C17   C     C_R   0.923596 0.822461 0.889856 -0.086437
C18   C     C_R   0.799433 0.788920 0.819496 -0.204315
C19   C     C_R   0.837583 0.713200 0.699698 -0.133358
C20   C     C_R   0.495831 0.500736 0.717649 0.851522
C21   C     C_R   0.503665 0.494657 0.281818 0.853388
C22   C     C_1   0.488926 0.496803 0.838654 -0.172110
C23   C     C_1   0.509277 0.488832 0.159383 -0.182943
C24   C     C_1   0.493539 0.492335 0.939962 -0.001129
C25   C     C_1   0.504037 0.488513 0.057374 -0.000226
C26   C     C_2   0.553391 0.942875 0.465439 -0.049756
H1    H     H_    0.620271 0.771667 0.227304 0.248528
H2    H     H_    0.323783 0.153376 0.706040 0.203327
H3    H     H_    0.759304 0.267745 0.323592 0.197604
H4    H     H_    0.812947 0.150625 0.119854 0.129745
H5    H     H_    0.102602 0.102479 0.022405 0.127120
H6    H     H_    0.326058 0.167155 0.146061 0.123283
H7    H     H_    0.264347 0.285327 0.343203 0.196016
H8    H     H_    0.238503 0.731284 0.677481 0.202912
H9    H     H_    0.185741 0.835564 0.884951 0.128615
H10   H     H_    0.895755 0.882270 0.981814 0.124170
H11   H     H_    0.673303 0.826076 0.856310 0.123915
H12   H     H_    0.809870 0.862950 0.186496 0.229844
H13   H     H_    0.736758 0.715922 0.656865 0.196128
H14   H     H_    0.806179 0.740963 0.292699 0.300117
H15   H     H_    0.622080 0.047971 0.312028 0.187753
H16   H     H_    0.791628 0.019690 0.393544 0.237462
H17   H     H_    0.102230 0.122965 0.573133 0.269184
H18   H     H_    0.134895 0.915903 0.541157 0.266118
H19   H     H_    0.059029 0.018952 0.690831 0.240795
H20   H     H_    0.359980 0.953412 0.683257 0.166210
N1    N     N_2   0.950330 0.457960 0.469510 -0.112934
N2    N     N_2   0.049670 0.542040 0.530490 -0.114049
O1    O     O_R   0.389250 0.738570 0.507480 -0.646068
O2    O     O_R   0.610750 0.261430 0.492520 -0.662517
O3    O     O_R   0.678390 0.711630 0.487940 -0.647322
O4    O     O_R   0.321610 0.288370 0.512060 -0.638024
O5    O     O_R   0.355420 0.513450 0.675320 -0.633653
O6    O     O_R   0.644580 0.486550 0.324680 -0.637196
O7    O     O_R   0.644570 0.486510 0.655780 -0.615803
O8    O     O_R   0.355430 0.513490 0.344220 -0.617541
Zn1   Zn    Zn3+2 0.306940 0.517990 0.513050 0.903783
Zn2   Zn    Zn3+2 0.693060 0.482010 0.486950 0.896099

loop_
_geom_bond_atom_site_label_1
_geom_bond_atom_site_label_2
_ccdc_geom_bond_type
C21   O8    A    
C12   O2    A    
C3    H16   S    
C13   H7    S    
C6    H19   S    
C5    H2    S    
C11   C13   A    
C9    C10   A    
C15   H8    S    
N1    N2    D    
C7    C13   A    
C2    C12   S    
C21   C23   S    
C17   C18   A    
C10   C11   A    
N2    Zn1   S    
C2    C26   D    
O3    Zn2   S    
C6    H18   S    
C24   C25   S    
N1    Zn2   S    
C1    O3    A    
C5    C6    S    
C5    H20   S    
C19   H13   S    
C9    H4    S    
C20   O7    A    
C8    H3    S    
C10   H5    S    
C17   H10   S    
C18   H11   S    
C20   C22   S    
C11   H6    S    
C6    H17   S    
C23   C25   T    
C16   H9    S    
C21   O6    A    
C22   C24   T    
C1    C26   S    
C2    C5    S    
C16   C17   A    
O4    Zn1   S    
C15   C16   A    
O2    Zn2   S    
C4    H14   S    
C7    C8    A    
C4    H1    S    
O1    Zn1   S    
O8    Zn1   S    
C18   C19   A    
O6    Zn2   S    
O7    Zn2   S    
O5    Zn1   S    
C14   C15   A    
C20   O5    A    
C14   N2    S    
C12   O4    A    
C1    O1    A    
C14   C19   A    
C3    C26   S    
C3    H15   S    
C3    C4    S    
C4    H12   S    
C8    C9    A    
C7    N1    S    
