data_mof_unit_48881.cif
_audit_creation_date              2012-12-10T18:43:07-0500
_audit_creation_method            fapswitch 2.2
_symmetry_space_group_name_H-M    P1
_symmetry_Int_Tables_number       1
_space_group_crystal_system       triclinic
_cell_length_a                    10.728253
_cell_length_b                    9.853315
_cell_length_c                    10.746234
_cell_angle_alpha                 90.014989
_cell_angle_beta                  90.157663
_cell_angle_gamma                 89.969125
_cell_volume                      1135.9676005

loop_
_atom_site_label
_atom_site_type_symbol
_atom_type_description
_atom_site_fract_x
_atom_site_fract_y
_atom_site_fract_z
_atom_type_partial_charge
C1    C     C_R   0.259905 0.500003 0.500738 0.853609
C2    C     C_R   0.936337 0.376657 0.495056 -0.211186
C3    C     C_R   0.872602 0.500204 0.499026 -0.007460
C4    C     C_R   0.127416 0.500188 0.501518 -0.006584
C5    C     C_R   0.936093 0.623971 0.503623 -0.193011
C6    C     C_R   0.063798 0.623987 0.504137 -0.194537
C7    C     C_R   0.559601 0.071790 0.592436 0.455672
C8    C     C_R   0.440092 0.072086 0.407657 0.458928
C9    C     C_R   0.557723 0.927599 0.592759 -0.202342
C10   C     C_R   0.442100 0.927661 0.407311 -0.209807
C11   C     C_3   0.746294 0.130832 0.682862 0.102413
C12   C     C_R   0.740101 0.499973 0.499413 0.851406
C13   C     C_3   0.796797 0.055597 0.796817 -0.369654
C14   C     C_3   0.938805 0.046848 0.793350 -0.955638
C15   C     C_3   0.255868 0.121154 0.305930 0.087983
C16   C     C_3   0.219761 0.052339 0.183430 -0.361014
C17   C     C_3   0.079215 0.029947 0.175485 -0.954953
C18   C     C_R   0.496909 0.499805 0.262578 0.936426
C19   C     C_R   0.502838 0.499816 0.737432 0.934159
C20   C     C_2   0.495177 0.385264 0.932983 -0.153102
C21   C     C_2   0.502026 0.385089 0.066913 -0.154784
C22   C     C_2   0.514312 0.499447 0.868983 -0.336942
C23   C     C_2   0.484648 0.499523 0.131086 -0.337355
C24   C     C_R   0.063817 0.376561 0.498616 -0.206057
H1    H     H_    0.475400 0.289355 0.887048 0.199974
H2    H     H_    0.397732 0.872020 0.332803 0.158512
H3    H     H_    0.784456 0.235493 0.684783 0.176986
H4    H     H_    0.781738 0.081648 0.596038 0.100166
H5    H     H_    0.767785 0.109786 0.882763 0.234458
H6    H     H_    0.758097 0.951248 0.799969 0.212773
H7    H     H_    0.969806 0.992399 0.708317 0.258624
H8    H     H_    0.972769 0.990207 0.875929 0.266464
H9    H     H_    0.980268 0.150143 0.794462 0.268497
H10   H     H_    0.210424 0.222341 0.308167 0.173220
H11   H     H_    0.217897 0.062184 0.386230 0.101823
H12   H     H_    0.520704 0.288823 0.112658 0.201165
H13   H     H_    0.249798 0.116886 0.104143 0.232957
H14   H     H_    0.267490 0.952774 0.175472 0.213135
H15   H     H_    0.047218 0.965281 0.253820 0.261116
H16   H     H_    0.056078 0.977942 0.086839 0.265564
H17   H     H_    0.029266 0.128692 0.178437 0.267190
H18   H     H_    0.541652 0.594464 0.911927 0.147783
H19   H     H_    0.458205 0.594934 0.088295 0.147857
H20   H     H_    0.111928 0.279993 0.498694 0.143149
H21   H     H_    0.888323 0.280297 0.489345 0.142756
H22   H     H_    0.887636 0.720439 0.506663 0.155819
H23   H     H_    0.112161 0.720473 0.506873 0.155425
H24   H     H_    0.602141 0.872096 0.667342 0.157612
N1    N     N_R   0.500000 0.857200 0.500000 -0.115763
N2    N     N_R   0.500000 0.142810 0.500000 -0.156213
O1    O     O_R   0.316770 0.614620 0.499990 -0.623498
O2    O     O_3   0.386334 0.142488 0.309997 -0.622927
O3    O     O_R   0.683230 0.614620 0.500010 -0.622679
O4    O     O_R   0.316800 0.385290 0.500000 -0.624415
O5    O     O_R   0.683200 0.385290 0.500000 -0.629886
O6    O     O_R   0.500000 0.614630 0.319080 -0.627564
O7    O     O_R   0.500000 0.614630 0.680920 -0.627593
O8    O     O_R   0.500030 0.385300 0.319080 -0.566264
O9    O     O_R   0.499970 0.385300 0.680920 -0.568457
O10   O     O_3   0.614827 0.141221 0.689717 -0.625818
Zn1   Zn    Zn3+2 0.500000 0.653120 0.500000 0.942233
Zn2   Zn    Zn3+2 0.500000 0.346880 0.500000 0.999649

loop_
_geom_bond_atom_site_label_1
_geom_bond_atom_site_label_2
_ccdc_geom_bond_type
C18   C23   S    
O8    Zn2   S    
C1    O4    A    
O7    Zn1   S    
C10   N1    A    
C11   H3    S    
C11   C13   S    
C5    H22   S    
C14   H7    S    
C15   H10   S    
C12   O3    A    
O1    Zn1   S    
C18   O6    A    
C16   H13   S    
C1    C4    S    
C10   H2    S    
C14   H9    S    
C2    C3    A    
C9    N1    A    
C21   H12   S    
C16   H14   S    
C13   C14   S    
C19   O7    A    
C1    O1    A    
C22   H18   S    
C11   H4    S    
C4    C24   A    
C24   H20   S    
C15   H11   S    
C20   C22   D    
C7    O10   S    
C21   C23   D    
C2    H21   S    
C2    C24   A    
C5    C6    A    
N2    Zn2   S    
C17   H17   S    
C12   O5    A    
N1    Zn1   S    
C20   H1    S    
C15   C16   S    
O5    Zn2   S    
C8    N2    A    
C13   H6    S    
C19   C22   S    
C23   H19   S    
C20   C21   S    
C9    H24   S    
C4    C6    A    
C6    H23   S    
C13   H5    S    
C7    C9    A    
C17   H15   S    
O6    Zn1   S    
O9    Zn2   S    
C3    C12   S    
O4    Zn2   S    
C19   O9    A    
C15   O2    S    
C8    O2    S    
O3    Zn1   S    
C18   O8    A    
C8    C10   A    
C11   O10   S    
C7    N2    A    
C14   H8    S    
C16   C17   S    
C3    C5    A    
C17   H16   S    
