data_mof_unit_58259.cif
_audit_creation_date              2012-12-11T14:40:13-0500
_audit_creation_method            fapswitch 2.2
_symmetry_space_group_name_H-M    P1
_symmetry_Int_Tables_number       1
_space_group_crystal_system       triclinic
_cell_length_a                    19.530606
_cell_length_b                    10.837508
_cell_length_c                    19.513083
_cell_angle_alpha                 89.963515
_cell_angle_beta                  97.618576
_cell_angle_gamma                 90.440599
_cell_volume                      4093.61938196

loop_
_atom_site_label
_atom_site_type_symbol
_atom_type_description
_atom_site_fract_x
_atom_site_fract_y
_atom_site_fract_z
_atom_type_partial_charge
C1    C     C_R   0.709691 0.994185 0.367670 0.536068
C2    C     C_R   0.293423 0.002388 0.634118 0.561537
C3    C     C_R   0.206757 0.502219 0.366366 0.566558
C4    C     C_R   0.789836 0.492866 0.632527 0.538784
C5    C     C_3   0.710095 0.312120 0.499894 -0.149091
C6    C     C_3   0.272890 0.346989 0.512721 -0.118938
C7    C     C_3   0.197049 0.920236 0.480503 -0.119921
C8    C     C_3   0.813732 0.879764 0.510081 -0.134471
C9    C     C_3   0.739493 0.367580 0.437903 0.060145
C10   C     C_3   0.246606 0.420634 0.570848 0.054736
C11   C     C_3   0.252175 0.914305 0.431433 0.057086
C12   C     C_3   0.761675 0.865262 0.561675 0.055309
C13   C     C_3   0.724136 0.498885 0.459851 -0.117281
C14   C     C_3   0.269385 0.542057 0.540761 -0.135976
C15   C     C_3   0.282731 0.039011 0.456618 -0.144596
C16   C     C_3   0.732631 0.994364 0.545183 -0.111038
C17   C     C_3   0.797521 0.505293 0.500938 -0.147308
C18   C     C_3   0.196425 0.551789 0.498048 -0.147603
C19   C     C_3   0.332497 0.970180 0.512029 -0.131094
C20   C     C_3   0.678697 0.936315 0.489297 -0.125007
C21   C     C_3   0.812658 0.373508 0.478074 -0.102510
C22   C     C_3   0.174220 0.429434 0.529694 -0.114281
C23   C     C_3   0.301557 0.845046 0.486148 -0.102606
C24   C     C_3   0.708002 0.806718 0.506567 -0.114958
C25   C     C_3   0.783379 0.318193 0.540723 -0.115635
C26   C     C_3   0.200304 0.355437 0.471126 -0.112681
C27   C     C_3   0.246546 0.852203 0.535621 -0.114429
C28   C     C_3   0.759735 0.822036 0.453879 -0.110768
C29   C     C_3   0.768563 0.449556 0.563052 0.059885
C30   C     C_3   0.222356 0.476693 0.440216 0.051491
C31   C     C_3   0.277624 0.976054 0.560930 0.051001
C32   C     C_3   0.730375 0.950919 0.437446 0.055251
C33   C     C_3   0.519604 0.275707 0.970503 -0.116867
C34   C     C_3   0.476186 0.271830 0.030814 -0.117955
C35   C     C_3   0.019590 0.775731 0.970508 -0.116997
C36   C     C_3   0.976173 0.771805 0.030819 -0.117813
C37   C     C_3   0.568625 0.175915 0.005189 -0.145510
C38   C     C_3   0.429583 0.168473 0.994929 -0.144759
C39   C     C_3   0.068631 0.675961 0.005188 -0.145497
C40   C     C_3   0.929590 0.668427 0.994927 -0.144802
C41   C     C_3   0.525108 0.172361 0.064957 0.058425
C42   C     C_3   0.473145 0.172644 0.935185 0.059831
C43   C     C_3   0.025115 0.672359 0.064956 0.058725
C44   C     C_3   0.973151 0.672646 0.935184 0.059468
C45   C     C_R   0.535189 0.179710 0.338207 0.542399
C46   C     C_R   0.465220 0.180204 0.662107 0.548283
C47   C     C_R   0.034993 0.679663 0.338061 0.547917
C48   C     C_R   0.964941 0.680149 0.661907 0.541099
C49   C     C_3   0.479010 0.069654 0.029816 0.020885
C50   C     C_3   0.521664 0.073465 0.969271 0.020284
C51   C     C_3   0.979037 0.569630 0.029807 0.020959
C52   C     C_3   0.021691 0.573490 0.969262 0.020332
C53   C     C_1   0.763123 0.425699 0.904462 -0.010803
C54   C     C_1   0.225463 0.454378 0.088918 -0.009373
C55   C     C_1   0.263122 0.925698 0.904461 -0.010513
C56   C     C_1   0.725496 0.954284 0.088932 -0.009684
C57   C     C_1   0.747842 0.408329 0.034727 -0.053664
C58   C     C_1   0.255635 0.391492 0.967901 -0.049417
C59   C     C_1   0.247841 0.908327 0.034725 -0.053427
C60   C     C_1   0.755666 0.891391 0.967916 -0.049046
C61   C     C_1   0.754654 0.415741 0.964071 -0.052992
C62   C     C_1   0.240159 0.425486 0.033391 -0.048737
C63   C     C_1   0.254653 0.915739 0.964070 -0.053297
C64   C     C_1   0.740195 0.925378 0.033409 -0.048346
C65   C     C_1   0.742824 0.395032 0.094969 -0.012720
C66   C     C_1   0.266553 0.359858 0.911489 -0.011314
C67   C     C_1   0.242823 0.895027 0.094967 -0.010545
C68   C     C_1   0.766575 0.859781 0.911498 -0.012585
C69   C     C_R   0.726831 0.317770 0.368710 0.537051
C70   C     C_R   0.259145 0.368832 0.640016 0.549421
C71   C     C_R   0.240111 0.865299 0.361495 0.543831
C72   C     C_R   0.773674 0.815898 0.631164 0.536832
C73   C     C_R   0.707260 0.991133 0.154163 0.539156
C74   C     C_R   0.278095 0.952648 0.836441 0.543944
C75   C     C_R   0.207240 0.491185 0.154162 0.538286
C76   C     C_R   0.778095 0.452648 0.836441 0.546094
C77   C     C_R   0.557283 0.181810 0.135416 0.541048
C78   C     C_R   0.441739 0.181593 0.864422 0.539345
C79   C     C_R   0.057287 0.681810 0.135416 0.541108
C80   C     C_R   0.941742 0.681593 0.864422 0.539186
C81   C     C_R   0.735959 0.360493 0.164266 0.544556
C82   C     C_R   0.276060 0.316944 0.844437 0.535627
C83   C     C_R   0.235957 0.860486 0.164262 0.535631
C84   C     C_R   0.776068 0.816913 0.844434 0.538737
C85   C     C_1   0.486977 0.172717 0.595212 -0.017093
C86   C     C_1   0.514846 0.171708 0.405714 -0.018615
C87   C     C_1   0.985941 0.672263 0.594702 -0.020769
C88   C     C_1   0.013985 0.671410 0.405276 -0.015475
C89   C     C_1   0.505372 0.168774 0.465316 -0.062958
C90   C     C_1   0.497291 0.169357 0.535865 -0.062979
C91   C     C_1   0.004059 0.668116 0.464739 -0.061000
C92   C     C_1   0.995857 0.668517 0.535251 -0.064918
C93   C     C_3   0.695192 0.444309 0.523513 -0.108099
C94   C     C_3   0.294989 0.468674 0.481246 -0.104747
C95   C     C_3   0.227844 0.045518 0.507326 -0.130778
C96   C     C_3   0.784291 0.009817 0.492088 -0.127782
Cr1   Cr    Cr6+3 0.765830 0.160660 0.268180 1.021833
Cr2   Cr    Cr6+3 0.234170 0.160660 0.731820 1.018859
Cr3   Cr    Cr6+3 0.265830 0.660660 0.268180 1.022272
Cr4   Cr    Cr6+3 0.734170 0.660660 0.731820 1.017648
Cr5   Cr    Cr6+3 0.612110 0.009150 0.248770 1.011399
Cr6   Cr    Cr6+3 0.387890 0.009150 0.751230 1.012535
Cr7   Cr    Cr6+3 0.112110 0.509150 0.248770 1.014737
Cr8   Cr    Cr6+3 0.887890 0.509150 0.751230 1.010381
Cr9   Cr    Cr6+3 0.615930 0.324050 0.248450 1.021815
Cr10  Cr    Cr6+3 0.384070 0.324050 0.751550 1.022658
Cr11  Cr    Cr6+3 0.115930 0.824050 0.248450 1.020196
Cr12  Cr    Cr6+3 0.884070 0.824050 0.751550 1.023703
H1    H     H_    0.673500 0.232861 0.497100 0.100527
H2    H     H_    0.306635 0.265184 0.521494 0.107976
H3    H     H_    0.141286 0.899204 0.465963 0.127189
H4    H     H_    0.869210 0.855306 0.520502 0.121247
H5    H     H_    0.647633 0.474584 0.543942 0.129394
H6    H     H_    0.344329 0.484648 0.460057 0.130187
H7    H     H_    0.196354 0.123784 0.521135 0.129278
H8    H     H_    0.815665 0.092425 0.483031 0.119503
H9    H     H_    0.698750 0.569556 0.424183 0.127653
H10   H     H_    0.300100 0.613137 0.572302 0.119756
H11   H     H_    0.296828 0.114296 0.422389 0.121464
H12   H     H_    0.722005 0.062995 0.584556 0.129352
H13   H     H_    0.388281 0.989718 0.526783 0.124266
H14   H     H_    0.623172 0.960732 0.479206 0.119231
H15   H     H_    0.833774 0.585068 0.503365 0.100498
H16   H     H_    0.164072 0.635497 0.489468 0.105752
H17   H     H_    0.861231 0.343991 0.459312 0.137598
H18   H     H_    0.124881 0.413667 0.550944 0.130681
H19   H     H_    0.332129 0.762087 0.477067 0.131648
H20   H     H_    0.676603 0.723482 0.514495 0.120208
H21   H     H_    0.808096 0.245354 0.575386 0.135203
H22   H     H_    0.171586 0.280206 0.440971 0.133120
H23   H     H_    0.230359 0.781706 0.571450 0.124315
H24   H     H_    0.770815 0.754023 0.414391 0.129670
H25   H     H_    0.625966 0.178593 0.010951 0.102364
H26   H     H_    0.372261 0.164849 0.989147 0.102135
H27   H     H_    0.125973 0.678676 0.010949 0.102444
H28   H     H_    0.872268 0.664763 0.989146 0.102025
H29   H     H_    0.536445 0.360942 0.945680 0.145127
H30   H     H_    0.457365 0.353742 0.056696 0.145826
H31   H     H_    0.036413 0.860986 0.945692 0.145172
H32   H     H_    0.957334 0.853696 0.056708 0.145882
O1    O     O_R   0.783230 0.287800 0.346510 -0.522073
O2    O     O_R   0.216770 0.287800 0.653490 -0.525212
O3    O     O_R   0.283230 0.787800 0.346510 -0.527003
O4    O     O_R   0.716770 0.787800 0.653490 -0.507173
O5    O     O_R   0.554500 0.081650 0.170370 -0.511789
O6    O     O_R   0.445500 0.081650 0.829630 -0.499546
O7    O     O_R   0.054500 0.581650 0.170370 -0.513118
O8    O     O_R   0.945500 0.581650 0.829630 -0.498735
O9    O     O_R   0.545430 0.285140 0.163100 -0.508792
O10   O     O_R   0.454570 0.285140 0.836900 -0.517690
O11   O     O_R   0.045430 0.785140 0.163100 -0.508421
O12   O     O_R   0.954570 0.785140 0.836900 -0.517403
O13   O     O_R   0.677850 0.374730 0.185500 -0.499453
O14   O     O_R   0.322150 0.374730 0.814500 -0.497159
O15   O     O_R   0.177850 0.874730 0.185500 -0.503788
O16   O     O_R   0.822150 0.874730 0.814500 -0.489206
O17   O     O_3   0.664630 0.164620 0.255130 -0.315213
O18   O     O_3   0.335370 0.164620 0.744870 -0.305488
O19   O     O_3   0.164630 0.664620 0.255130 -0.304127
O20   O     O_3   0.835370 0.664620 0.744870 -0.316825
O21   O     O_R   0.760130 0.037060 0.338610 -0.498930
O22   O     O_R   0.239870 0.037060 0.661390 -0.495566
O23   O     O_R   0.260130 0.537060 0.338610 -0.494395
O24   O     O_R   0.739870 0.537060 0.661390 -0.512555
O25   O     O_R   0.666620 0.921370 0.332440 -0.500024
O26   O     O_R   0.333380 0.921370 0.667560 -0.510204
O27   O     O_R   0.166620 0.421370 0.332440 -0.508550
O28   O     O_R   0.833380 0.421370 0.667560 -0.506451
O29   O     O_R   0.557170 0.082420 0.312350 -0.507980
O30   O     O_R   0.442830 0.082420 0.687650 -0.507658
O31   O     O_R   0.057170 0.582420 0.312350 -0.506722
O32   O     O_R   0.942830 0.582420 0.687650 -0.502370
O33   O     O_R   0.548310 0.285980 0.316250 -0.503407
O34   O     O_R   0.451690 0.285980 0.683750 -0.499453
O35   O     O_R   0.048310 0.785980 0.316250 -0.501745
O36   O     O_R   0.951690 0.785980 0.683750 -0.508950
O37   O     O_R   0.680520 0.375500 0.327470 -0.491712
O38   O     O_R   0.319480 0.375500 0.672530 -0.495301
O39   O     O_R   0.180520 0.875500 0.327470 -0.500406
O40   O     O_R   0.819480 0.875500 0.672530 -0.486401
O41   O     O_R   0.780350 0.286970 0.193350 -0.509513
O42   O     O_R   0.219650 0.286970 0.806650 -0.500581
O43   O     O_R   0.280350 0.786970 0.193350 -0.513953
O44   O     O_R   0.719650 0.786970 0.806650 -0.492882
O45   O     O_R   0.757460 0.036290 0.196640 -0.477913
O46   O     O_R   0.242540 0.036290 0.803360 -0.503634
O47   O     O_R   0.257460 0.536290 0.196640 -0.478403
O48   O     O_R   0.742540 0.536290 0.803360 -0.503486
O49   O     O_R   0.663740 0.920540 0.179290 -0.501414
O50   O     O_R   0.336260 0.920540 0.820710 -0.510740
O51   O     O_R   0.163740 0.420540 0.179290 -0.503096
O52   O     O_R   0.836260 0.420540 0.820710 -0.508585
C97   C     C_3   0.454890 0.952875 0.063089 -0.368080
H33   H     H_    0.500171 0.896074 0.083233 0.150847
H34   H     H_    0.425746 0.977670 0.106149 0.153497
H35   H     H_    0.420704 0.898690 0.024005 0.131748
C98   C     C_3   0.548564 0.960922 0.934944 -0.366402
H36   H     H_    0.504701 0.900264 0.914048 0.153162
H37   H     H_    0.577285 0.990707 0.892309 0.158060
H38   H     H_    0.583773 0.908621 0.973611 0.128639
C99   C     C_3   0.954940 0.452822 0.063071 -0.367963
H39   H     H_    0.000233 0.396045 0.083211 0.150674
H40   H     H_    0.925789 0.477582 0.106133 0.154137
H41   H     H_    0.920766 0.398627 0.023982 0.131729
C100  C     C_3   0.048613 0.460977 0.934925 -0.366740
H42   H     H_    0.004761 0.400301 0.914019 0.153242
H43   H     H_    0.077333 0.490798 0.892296 0.156932
H44   H     H_    0.083828 0.408678 0.973588 0.128739

loop_
_geom_bond_atom_site_label_1
_geom_bond_atom_site_label_2
_ccdc_geom_bond_type
C58   C62   S    
Cr9   O13   S    
C67   C83   S    
Cr10  O10   S    
Cr3   O19   S    
C98   H38   S    
C17   C29   S    
C99   H39   S    
C14   C18   S    
C7    C27   S    
C35   C39   S    
C35   C36   S    
C8    C96   S    
C81   O41   A    
C44   C80   S    
C19   C31   S    
Cr6   O18   S    
Cr3   O47   S    
C94   H6    S    
C3    O27   A    
C38   C49   S    
C39   H27   S    
C100  H42   S    
C10   C22   S    
C15   C19   S    
C97   H33   S    
C40   H28   S    
Cr5   O5    S    
C49   C97   S    
C33   C42   S    
C79   O11   A    
C16   C20   S    
Cr4   O48   S    
C9    C69   S    
C38   C42   S    
Cr5   O49   S    
C16   H12   S    
C15   C95   S    
C73   O49   A    
C11   C71   S    
C13   H9    S    
C22   H18   S    
C83   O15   A    
Cr1   O45   S    
C69   O1    A    
Cr8   O52   S    
C81   O13   A    
Cr12  O40   S    
C80   O12   A    
C46   O34   A    
C71   O39   A    
C57   C61   S    
C98   H37   S    
C9    C13   S    
C69   O37   A    
Cr12  O12   S    
C55   C74   S    
C11   C15   S    
C17   H15   S    
Cr9   O17   S    
Cr2   O18   S    
C95   H7    S    
C6    C94   S    
C55   C63   T    
C4    O24   A    
Cr5   O29   S    
C18   C30   S    
C23   C27   S    
C2    O26   A    
C40   C44   S    
C20   H14   S    
C4    C29   S    
C76   O48   A    
C3    O23   A    
Cr8   O32   S    
C46   C85   S    
C59   C67   T    
C44   C52   S    
C39   C52   S    
C12   C72   S    
Cr5   O17   S    
Cr6   O26   S    
Cr9   O33   S    
C87   C92   T    
Cr2   O2    S    
Cr7   O31   S    
C99   H40   S    
C2    O22   A    
C98   H36   S    
C34   C41   S    
C53   C61   T    
Cr8   O20   S    
C28   C32   S    
C41   C49   S    
C73   O45   A    
Cr2   O22   S    
C50   C98   S    
C58   C66   T    
C7    C11   S    
C100  H43   S    
C25   C29   S    
C70   O2    A    
C16   C96   S    
C29   C93   S    
C27   C31   S    
C51   C52   S    
C68   C84   S    
C12   C16   S    
C84   O44   A    
C10   C14   S    
C33   H29   S    
C91   C92   S    
C97   H34   S    
C19   C23   S    
C70   O38   A    
C39   C43   S    
C54   C62   T    
Cr10  O14   S    
Cr10  O18   S    
C34   H30   S    
C1    C32   S    
C33   C37   S    
C27   H23   S    
C46   O30   A    
C13   C93   S    
C2    C31   S    
C28   H24   S    
Cr1   O17   S    
C6    H2    S    
C3    C30   S    
C75   O51   A    
C5    C9    S    
C76   O52   A    
C45   O33   A    
Cr8   O28   S    
Cr4   O20   S    
C47   O31   A    
Cr12  O16   S    
C88   C91   T    
C36   C40   S    
C8    C12   S    
C97   H35   S    
Cr11  O19   S    
C74   O50   A    
C56   C64   T    
C33   C34   S    
Cr10  O34   S    
C48   C87   S    
C83   O43   A    
Cr4   O24   S    
C78   O10   A    
C93   H5    S    
Cr7   O27   S    
Cr5   O25   S    
C35   C44   S    
C36   H32   S    
Cr1   O1    S    
C43   C79   S    
C42   C50   S    
Cr3   O23   S    
C10   C70   S    
C14   C94   S    
Cr9   O37   S    
C32   C96   S    
C14   H10   S    
Cr1   O21   S    
Cr4   O4    S    
C8    C28   S    
C99   H41   S    
C5    C25   S    
C53   C76   S    
Cr7   O51   S    
C72   O40   A    
C77   O9    A    
C9    C21   S    
C77   O5    A    
C7    C95   S    
C48   O32   A    
C42   C78   S    
C23   H19   S    
C20   C32   S    
C100  H44   S    
Cr3   O3    S    
C72   O4    A    
C21   C25   S    
C19   H13   S    
C56   C73   S    
Cr11  O39   S    
C1    O25   A    
C34   C38   S    
Cr3   O43   S    
C52   C100  S    
C75   O47   A    
C24   C28   S    
C57   C65   T    
C86   C89   T    
C26   H22   S    
C6    C10   S    
C5    C93   S    
C85   C90   T    
Cr1   O41   S    
Cr12  O20   S    
C35   H31   S    
Cr2   O42   S    
C7    H3    S    
C40   C51   S    
Cr9   O9    S    
C82   O42   A    
C59   C63   S    
C13   C17   S    
C60   C64   S    
C47   C88   S    
C20   C24   S    
C18   C22   S    
C45   C86   S    
Cr11  O11   S    
Cr8   O8    S    
Cr2   O46   S    
Cr6   O6    S    
C66   C82   S    
C41   C77   S    
C37   C50   S    
C84   O16   A    
Cr7   O19   S    
C6    C26   S    
C71   O3    A    
Cr11  O35   S    
Cr6   O30   S    
C43   C51   S    
C31   C95   S    
Cr12  O36   S    
C11   C23   S    
Cr6   O50   S    
C8    H4    S    
C15   H11   S    
C79   O7    A    
C37   H25   S    
C38   H26   S    
C37   C41   S    
C12   C24   S    
Cr4   O44   S    
C47   O35   A    
C78   O6    A    
C1    O21   A    
C54   C75   S    
C82   O14   A    
C4    O28   A    
C80   O8    A    
C60   C68   T    
C30   C94   S    
C49   C50   S    
C22   C26   S    
C24   H20   S    
C65   C81   S    
C96   H8    S    
C36   C43   S    
C25   H21   S    
C5    H1    S    
C74   O46   A    
C89   C90   S    
C21   H17   S    
Cr10  O38   S    
Cr11  O15   S    
C45   O29   A    
C51   C99   S    
C18   H16   S    
Cr7   O7    S    
C48   O36   A    
C26   C30   S    
C17   C21   S    
