data_mof_unit_7017.cif
_audit_creation_date              2012-12-11T16:22:19-0500
_audit_creation_method            fapswitch 2.2
_symmetry_space_group_name_H-M    P1
_symmetry_Int_Tables_number       1
_space_group_crystal_system       triclinic
_cell_length_a                    16.869025
_cell_length_b                    16.861434
_cell_length_c                    19.468938
_cell_angle_alpha                 117.885471
_cell_angle_beta                  62.28921
_cell_angle_gamma                 100.773983
_cell_volume                      4329.96433163

loop_
_atom_site_label
_atom_site_type_symbol
_atom_type_description
_atom_site_fract_x
_atom_site_fract_y
_atom_site_fract_z
_atom_type_partial_charge
C1    C     C_R   0.023229 0.759938 0.027697 -0.126994
C2    C     C_R   0.237651 0.576418 0.835159 -0.144755
C3    C     C_R   0.194885 0.437366 0.036059 -0.129609
C4    C     C_R   0.748796 0.474088 0.171526 -0.127988
C5    C     C_R   0.042765 0.328092 0.751318 -0.127760
C6    C     C_R   0.276376 0.449121 0.975550 0.059526
C7    C     C_R   0.032806 0.241773 0.744440 0.034818
C8    C     C_R   0.237029 0.554516 0.757812 0.043426
C9    C     C_R   0.988760 0.233322 0.043103 0.064865
C10   C     C_R   0.058921 0.862909 0.458732 -0.167087
C11   C     C_R   0.034523 0.803097 0.393852 -0.175717
C12   C     C_R   0.740922 0.531656 0.253795 0.034747
C13   C     C_R   0.082984 0.796565 0.310147 0.143932
C14   C     C_R   0.160715 0.845376 0.290529 -0.166881
C15   C     C_R   0.185534 0.905210 0.355676 -0.182169
C16   C     C_R   0.816383 0.509301 0.912211 -0.137483
C17   C     C_R   0.132079 0.917619 0.441106 0.118086
C18   C     C_R   0.141050 0.082064 0.509565 -0.165090
C19   C     C_R   0.111438 0.161338 0.584784 -0.166629
C20   C     C_R   0.077129 0.160344 0.665274 0.144289
C21   C     C_R   0.082323 0.080327 0.668788 -0.164559
C22   C     C_R   0.112430 0.000685 0.593120 -0.182465
C23   C     C_R   0.742419 0.459037 0.934671 0.067098
C24   C     C_R   0.136422 0.000338 0.513556 0.116349
C25   C     C_R   0.496688 0.562660 0.407218 -0.165155
C26   C     C_R   0.575174 0.533447 0.331387 -0.166418
C27   C     C_R   0.656603 0.572299 0.330541 0.144071
C28   C     C_R   0.006695 0.660704 0.242055 -0.145206
C29   C     C_R   0.656595 0.647077 0.404638 -0.164914
C30   C     C_R   0.577619 0.676643 0.480782 -0.182434
C31   C     C_R   0.498240 0.631045 0.483681 0.116135
C32   C     C_R   0.448248 0.634198 0.625857 -0.167019
C33   C     C_R   0.385511 0.610294 0.689907 -0.173469
C34   C     C_R   0.051058 0.738698 0.244760 0.040368
C35   C     C_R   0.298848 0.589160 0.695803 0.143667
C36   C     C_R   0.273546 0.599646 0.641229 -0.167996
C37   C     C_R   0.336490 0.624125 0.577107 -0.182577
C38   C     C_R   0.425506 0.637119 0.566307 0.118525
C39   C     C_R   0.675624 0.431050 0.900179 0.130211
C40   C     C_R   0.749986 0.430828 0.987746 -0.136701
C41   C     C_R   0.362919 0.404699 0.939649 0.132062
C42   C     C_R   0.455485 0.329076 0.957531 -0.227934
C43   C     C_R   0.371453 0.348051 0.970782 -0.172007
C44   C     C_R   0.439952 0.429207 0.883079 -0.278845
C45   C     C_R   0.261484 0.515346 0.959129 -0.126129
C46   C     C_R   0.523362 0.416125 0.874769 0.188945
C47   C     C_R   0.530326 0.369460 0.916001 0.189907
C48   C     C_R   0.608130 0.374089 0.925108 -0.281968
C49   C     C_R   0.672481 0.468801 0.850578 -0.175713
C50   C     C_R   0.597131 0.459702 0.836358 -0.226455
C51   C     C_R   0.806212 0.184023 0.183745 0.103066
C52   C     C_R   0.074590 0.739206 0.166520 -0.134768
C53   C     C_R   0.927967 0.863136 0.027605 0.130537
C54   C     C_R   0.848240 0.951927 0.008237 -0.231288
C55   C     C_R   0.887607 0.870460 0.981656 -0.172397
C56   C     C_R   0.975459 0.248340 0.826605 -0.126684
C57   C     C_R   0.929589 0.939795 0.100178 -0.281441
C58   C     C_R   0.889736 0.021779 0.127587 0.188640
C59   C     C_R   0.848125 0.027692 0.081519 0.192217
C60   C     C_R   0.806441 0.109133 0.110172 -0.279889
C61   C     C_R   0.847836 0.178518 0.228904 -0.162638
C62   C     C_R   0.889544 0.097803 0.201105 -0.227277
C63   C     C_R   0.827280 0.544108 0.248700 -0.129024
C64   C     C_R   0.943913 0.690582 0.951269 -0.133452
C65   C     C_R   0.964843 0.775075 0.002064 0.055439
C66   C     C_R   0.159227 0.508871 0.759069 -0.135997
C67   C     C_R   0.027167 0.314283 0.075514 -0.136204
C68   C     C_R   0.949542 0.246161 0.000058 -0.130498
H1    H     H_    0.054842 0.809842 0.066117 0.093156
H2    H     H_    0.974444 0.765933 0.410604 0.108165
H3    H     H_    0.200894 0.839283 0.225739 0.109127
H4    H     H_    0.695843 0.451619 0.151088 0.094859
H5    H     H_    0.242858 0.946099 0.340521 0.114883
H6    H     H_    0.158366 0.084038 0.449410 0.113815
H7    H     H_    0.109350 0.221840 0.579450 0.106690
H8    H     H_    0.059423 0.078281 0.729874 0.112199
H9    H     H_    0.109934 0.938416 0.597407 0.114282
H10   H     H_    0.436908 0.525426 0.407471 0.114272
H11   H     H_    0.572425 0.476070 0.275447 0.106894
H12   H     H_    0.952431 0.193663 0.844395 0.090452
H13   H     H_    0.717932 0.680310 0.404996 0.110807
H14   H     H_    0.516578 0.642251 0.618418 0.113599
H15   H     H_    0.839627 0.530697 0.861818 0.082985
H16   H     H_    0.406808 0.602891 0.731250 0.107584
H17   H     H_    0.206266 0.586434 0.646202 0.107299
H18   H     H_    0.317246 0.627109 0.532454 0.114072
H19   H     H_    0.610663 0.341247 0.960261 0.115358
H20   H     H_    0.724792 0.510613 0.827830 0.113337
H21   H     H_    0.460384 0.291147 0.987639 0.125489
H22   H     H_    0.593112 0.494525 0.803234 0.124956
H23   H     H_    0.130747 0.493757 0.714911 0.083800
H24   H     H_    0.313505 0.323975 0.010861 0.115390
H25   H     H_    0.435150 0.468256 0.854091 0.116839
H26   H     H_    0.774000 0.115001 0.075989 0.119182
H27   H     H_    0.992745 0.630976 0.284978 0.090380
H28   H     H_    0.847504 0.236975 0.285665 0.120160
H29   H     H_    0.817156 0.955434 0.971909 0.124776
H30   H     H_    0.921113 0.094673 0.237214 0.127358
H31   H     H_    0.886195 0.813181 0.924972 0.113835
H32   H     H_    0.959581 0.935460 0.136927 0.121684
H33   H     H_    0.712144 0.380098 0.007622 0.084579
H34   H     H_    0.053313 0.332058 0.121879 0.091376
H35   H     H_    0.120880 0.783282 0.141434 0.085379
H36   H     H_    0.845913 0.585145 0.300773 0.092527
H37   H     H_    0.900614 0.676031 0.920156 0.092346
H38   H     H_    0.309367 0.543098 0.916496 0.092766
H39   H     H_    0.579932 0.730631 0.538844 0.114411
H40   H     H_    0.904112 0.200812 0.976229 0.089512
H41   H     H_    0.279473 0.625119 0.861981 0.089033
H42   H     H_    0.182042 0.392504 0.064862 0.090461
H43   H     H_    0.083825 0.349023 0.701097 0.094441
H44   H     H_    0.015373 0.871933 0.524071 0.114165
N1    N     N_R   0.034930 0.670790 0.995440 -0.039184
N2    N     N_R   0.867000 0.509260 0.948460 -0.037510
N3    N     N_R   0.003780 0.616410 0.165900 -0.036169
N4    N     N_R   0.825670 0.461520 0.995440 -0.038717
N5    N     N_R   0.045120 0.664150 0.118920 -0.036713
N6    N     N_R   0.884940 0.497570 0.165910 -0.038974
N7    N     N_R   0.985840 0.628110 0.948460 -0.039163
N8    N     N_R   0.174330 0.538480 0.004560 -0.040994
N9    N     N_R   0.954880 0.335850 0.881080 -0.038541
N10   N     N_R   0.115060 0.502430 0.834090 -0.036740
N11   N     N_R   0.014160 0.371890 0.051540 -0.039252
N12   N     N_R   0.965070 0.329210 0.004560 -0.039759
N13   N     N_R   0.164150 0.545120 0.881070 -0.035929
N14   N     N_R   0.133000 0.490740 0.051540 -0.039448
N15   N     N_R   0.996220 0.383590 0.834100 -0.039168
N16   N     N_R   0.835850 0.454880 0.118930 -0.039468
Ni1   Ni    Ni4+2 0.103690 0.603690 0.000000 0.211302
Ni2   Ni    Ni4+2 0.896310 0.396310 0.000000 0.210310
Ni3   Ni    Ni4+2 0.991110 0.505800 0.892250 0.209807
Ni4   Ni    Ni4+2 0.008890 0.494200 0.107750 0.212386

loop_
_geom_bond_atom_site_label_1
_geom_bond_atom_site_label_2
_ccdc_geom_bond_type
C25   C31   A    
C52   H35   S    
C58   C62   A    
C6    C45   A    
C30   H39   S    
C27   C29   A    
C14   H3    S    
C54   C55   A    
C35   C36   A    
C51   C61   A    
N9    Ni2   S    
C3    C6    A    
C68   N12   A    
C61   H28   S    
N11   N12   A    
C2    H41   S    
C8    C66   A    
C21   H8    S    
C26   C27   A    
C29   C30   A    
C64   N7    A    
N1    Ni1   S    
C28   H27   S    
C18   C24   A    
C36   C37   A    
N9    N15   A    
C30   C31   A    
N11   Ni4   S    
N8    N14   A    
C10   C17   A    
C23   C40   A    
C15   C17   A    
C18   C19   A    
N2    Ni3   S    
C44   H25   S    
C40   H33   S    
C62   H30   S    
C50   H22   S    
C19   C20   A    
N3    N5    A    
C6    C41   S    
N7    Ni3   S    
C66   N10   A    
C54   H29   S    
C10   H44   S    
C32   C38   A    
C4    C12   A    
C53   C65   S    
C16   N2    A    
N3    Ni4   S    
C52   N5    A    
C28   C34   A    
C59   C60   A    
C18   H6    S    
N1    N7    A    
C13   C14   A    
C41   C43   A    
C49   H20   S    
C1    N1    A    
C7    C56   A    
C44   C46   A    
C54   C59   A    
C53   C55   A    
C3    N14   A    
C17   C24   S    
C4    N16   A    
C12   C27   S    
N8    Ni1   S    
C37   H18   S    
C64   H37   S    
C5    C7    A    
C12   C63   A    
C53   C57   A    
C5    H43   S    
C25   C26   A    
C57   H32   S    
C16   H15   S    
C1    H1    S    
C25   H10   S    
C67   N11   A    
C8    C35   S    
C9    C67   A    
C29   H13   S    
C37   C38   A    
C28   N3    A    
C1    C65   A    
C47   C48   A    
N14   Ni4   S    
C5    N15   A    
C48   H19   S    
N12   Ni2   S    
C56   N9    A    
C45   N8    A    
C39   C49   A    
C49   C50   A    
C16   C23   A    
C41   C44   A    
C22   C24   A    
C42   C43   A    
N10   Ni3   S    
C4    H4    S    
N5    Ni1   S    
C45   H38   S    
C63   N6    A    
C46   C47   A    
C15   H5    S    
C3    H42   S    
C2    C8    A    
C26   H11   S    
C22   H9    S    
C63   H36   S    
N16   Ni2   S    
N2    N4    A    
C66   H23   S    
C36   H17   S    
C32   H14   S    
C46   C50   A    
C34   C52   A    
C43   H24   S    
C56   H12   S    
C31   C38   S    
C42   H21   S    
C32   C33   A    
N10   N13   A    
C19   H7    S    
C58   C59   A    
C9    C68   A    
C13   C34   S    
C64   C65   A    
C11   C13   A    
C57   C58   A    
C40   N4    A    
C23   C39   S    
C33   C35   A    
C42   C47   A    
C61   C62   A    
C33   H16   S    
N15   Ni3   S    
N6    Ni4   S    
C10   C11   A    
C11   H2    S    
C2    N13   A    
N13   Ni1   S    
N4    Ni2   S    
C20   C21   A    
C7    C20   S    
C55   H31   S    
C14   C15   A    
C51   C60   A    
C68   H40   S    
C21   C22   A    
N6    N16   A    
C67   H34   S    
C39   C48   A    
C60   H26   S    
