data_mof_unit_53227.cif
_audit_creation_date              2012-10-26T20:32:26-0400
_audit_creation_method            fapswitch 2.2
_symmetry_space_group_name_H-M    P1
_symmetry_Int_Tables_number       1
_space_group_crystal_system       triclinic
_cell_length_a                    19.355337
_cell_length_b                    10.831436
_cell_length_c                    9.537601
_cell_angle_alpha                 89.663672
_cell_angle_beta                  90.552065
_cell_angle_gamma                 89.974384
_cell_volume                      1999.39327757

loop_
_atom_site_label
_atom_site_type_symbol
_atom_type_description
_atom_site_fract_x
_atom_site_fract_y
_atom_site_fract_z
_atom_type_partial_charge
C1    C     C_R   0.498696 0.262489 0.500453 0.546934
C2    C     C_R   0.852228 0.497769 0.511424 0.036138
C3    C     C_R   0.499386 0.061877 0.624679 0.025697
C4    C     C_R   0.367137 0.501220 0.499170 0.545880
C5    C     C_R   0.490944 0.129930 0.501324 -0.005045
C6    C     C_R   0.469685 0.068414 0.379240 -0.138448
C7    C     C_R   0.467654 0.939004 0.375362 -0.030824
C8    C     C_R   0.488331 0.871117 0.497328 0.014628
C9    C     C_R   0.497771 0.935341 0.622485 -0.000284
C10   C     C_3   0.551175 0.923070 0.735876 -0.247639
C11   C     C_3   0.553029 0.063857 0.739420 -0.130377
C12   C     C_R   0.290465 0.503906 0.499303 0.010934
C13   C     C_R   0.531950 0.592813 0.074152 0.129068
C14   C     C_R   0.462029 0.416802 0.074229 -0.012078
C15   C     C_R   0.461664 0.417319 0.925254 -0.011181
C16   C     C_R   0.497043 0.737730 0.499036 0.541392
C17   C     C_R   0.534414 0.589620 0.927084 0.145381
C18   C     C_3   0.610369 0.618828 0.928969 -0.143907
C19   C     C_3   0.605695 0.630663 0.087349 -0.272864
C20   C     C_R   0.632056 0.501321 0.500492 0.538931
C21   C     C_R   0.257139 0.492468 0.629226 -0.149568
C22   C     C_R   0.185324 0.495228 0.638890 -0.017670
C23   C     C_R   0.928375 0.500559 0.514033 0.336121
C24   C     C_R   0.144689 0.508777 0.516193 0.007022
C25   C     C_R   0.177513 0.521502 0.386453 -0.105007
C26   C     C_R   0.249642 0.519466 0.375673 -0.016320
C27   C     C_3   0.445265 0.878725 0.240049 -0.372280
C28   C     C_3   0.622729 0.118281 0.696389 -0.403177
C29   C     C_1   0.654800 0.513757 0.891401 0.247508
C30   C     C_1   0.155435 0.488360 0.776996 0.218259
C31   C     C_3   0.280326 0.534780 0.231616 -0.369357
C32   C     C_3   0.848324 0.272687 0.596109 -0.368400
C33   C     C_3   0.710615 0.726886 0.412796 -0.407124
C34   C     C_R   0.068395 0.508654 0.518474 0.340692
C35   C     C_R   0.814073 0.391984 0.551822 0.003115
C36   C     C_R   0.741905 0.396516 0.546328 -0.093095
C37   C     C_R   0.707266 0.503135 0.501888 0.033815
C38   C     C_R   0.744802 0.608252 0.459898 -0.020566
C39   C     C_R   0.816971 0.603971 0.464627 -0.105100
Cu1   Cu    Cu3+1 0.500000 0.499980 0.640670 0.944975
Cu2   Cu    Cu3+1 0.500000 0.500020 0.359330 0.917864
H1    H     H_    0.287208 0.481738 0.725078 0.131648
H2    H     H_    0.146408 0.531537 0.291955 0.152398
H3    H     H_    0.712218 0.315995 0.575924 0.106766
H4    H     H_    0.845862 0.685276 0.433672 0.138783
H5    H     H_    0.457164 0.120897 0.285258 0.128533
H6    H     H_    0.404270 0.809466 0.260733 0.150923
H7    H     H_    0.423616 0.946974 0.164109 0.107549
H8    H     H_    0.490195 0.834426 0.189404 0.148318
H9    H     H_    0.638372 0.085247 0.591207 0.131333
H10   H     H_    0.619182 0.220407 0.694617 0.176282
H11   H     H_    0.662973 0.091230 0.774412 0.139547
H12   H     H_    0.529541 0.881619 0.832900 0.122770
H13   H     H_    0.309347 0.450352 0.202956 0.147442
H14   H     H_    0.239993 0.549383 0.149513 0.134278
H15   H     H_    0.314813 0.616636 0.229357 0.147444
H16   H     H_    0.810248 0.196660 0.607790 0.114853
H17   H     H_    0.886269 0.243941 0.516035 0.152203
H18   H     H_    0.874597 0.284430 0.699059 0.175442
H19   H     H_    0.653467 0.723441 0.417182 0.144824
H20   H     H_    0.728077 0.803612 0.481233 0.125246
H21   H     H_    0.725525 0.747934 0.303106 0.133436
H22   H     H_    0.599385 0.878707 0.698188 0.133405
H23   H     H_    0.532794 0.102547 0.838717 0.144235
H24   H     H_    0.432478 0.347810 0.129963 0.106853
H25   H     H_    0.431646 0.349010 0.869196 0.114162
H26   H     H_    0.623502 0.706426 0.874447 0.095131
H27   H     H_    0.638021 0.563648 0.147402 0.175674
H28   H     H_    0.610650 0.727591 0.123767 0.100626
N1    N     N_R   0.031821 0.569374 0.417376 -0.223986
N2    N     N_R   0.963152 0.565827 0.415519 -0.223799
N3    N     N_R   0.964883 0.440673 0.615643 -0.224014
N4    N     N_R   0.033549 0.444059 0.617396 -0.199051
N5    N     N_R   0.500440 0.500930 0.147930 -0.227104
N6    N     N_R   0.500440 0.500890 0.852020 -0.229311
N7    N     N_1   0.689867 0.431039 0.863642 -0.306837
N8    N     N_1   0.131715 0.482950 0.887804 -0.279941
O1    O     O_R   0.500000 0.319640 0.618810 -0.504865
O2    O     O_R   0.500010 0.319680 0.381230 -0.508259
O3    O     O_R   0.400140 0.499970 0.618830 -0.506861
O4    O     O_R   0.400150 0.500010 0.381250 -0.508325
O5    O     O_R   0.499990 0.680320 0.618770 -0.499533
O6    O     O_R   0.500000 0.680360 0.381190 -0.510831
O7    O     O_R   0.599850 0.499990 0.618750 -0.487129
O8    O     O_R   0.599860 0.500030 0.381170 -0.504304

loop_
_geom_bond_atom_site_label_1
_geom_bond_atom_site_label_2
_ccdc_geom_bond_type
C27   H7    S    
C2    C35   A    
C15   N6    A    
Cu1   O7    S    
C10   H22   S    
C32   H17   S    
C25   H2    S    
C7    C8    A    
C29   N7    T    
C1    C5    S    
C14   N5    A    
C36   C37   A    
C4    O3    A    
C5    C6    A    
C28   H10   S    
Cu2   O6    S    
C7    C27   S    
C18   C19   S    
C10   H12   S    
Cu2   N5    S    
C30   N8    T    
C28   H9    S    
C2    C39   A    
C4    O4    A    
C35   C36   A    
C33   H21   S    
Cu1   O3    S    
N1    N2    A    
C31   H15   S    
C4    C12   S    
C22   C30   S    
C9    C10   S    
C34   N1    A    
C39   H4    S    
C26   C31   S    
C8    C16   S    
C21   C22   A    
C1    O1    A    
C32   H16   S    
C13   C19   S    
C32   C35   S    
Cu1   O5    S    
C24   C25   A    
C11   H23   S    
C8    C9    A    
C25   C26   A    
C15   H25   S    
C12   C21   A    
C16   O6    A    
C24   C34   S    
C12   C26   A    
C37   C38   A    
C3    C9    A    
C23   N2    A    
Cu2   O4    S    
C20   O8    A    
C16   O5    A    
C17   C18   S    
C19   H27   S    
C18   C29   S    
Cu1   Cu2   S    
C33   H19   S    
C20   O7    A    
C1    O2    A    
Cu1   O1    S    
C36   H3    S    
C27   H6    S    
C19   H28   S    
C6    H5    S    
C23   N3    A    
N3    N4    A    
C3    C5    A    
Cu2   O2    S    
C6    C7    A    
Cu2   O8    S    
C33   C38   S    
Cu1   N6    S    
C13   C17   A    
C18   H26   S    
C20   C37   S    
C28   H11   S    
C38   C39   A    
C11   C28   S    
C14   H24   S    
C22   C24   A    
C31   H13   S    
C3    C11   S    
C10   C11   S    
C34   N4    A    
C21   H1    S    
C13   N5    A    
C33   H20   S    
C2    C23   S    
C17   N6    A    
C14   C15   A    
C32   H18   S    
C31   H14   S    
C27   H8    S    
