data_mof_unit_34023.cif
_audit_creation_date              2012-12-10T16:54:05-0500
_audit_creation_method            fapswitch 2.2
_symmetry_space_group_name_H-M    P1
_symmetry_Int_Tables_number       1
_space_group_crystal_system       triclinic
_cell_length_a                    9.749333
_cell_length_b                    10.860087
_cell_length_c                    13.546609
_cell_angle_alpha                 91.599201
_cell_angle_beta                  74.193425
_cell_angle_gamma                 93.155975
_cell_volume                      1377.84315251

loop_
_atom_site_label
_atom_site_type_symbol
_atom_type_description
_atom_site_fract_x
_atom_site_fract_y
_atom_site_fract_z
_atom_type_partial_charge
C1    C     C_R   0.504045 0.734630 0.500045 0.841830
C2    C     C_R   0.446674 0.536621 0.976228 0.012216
C3    C     C_R   0.492555 0.506943 0.869959 0.082217
C4    C     C_R   0.550681 0.545365 0.032254 0.078667
C5    C     C_R   0.697434 0.564287 0.980018 0.120794
C6    C     C_R   0.741817 0.542205 0.873771 0.004782
C7    C     C_R   0.640888 0.496447 0.825010 -0.201241
C8    C     C_R   0.514096 0.520623 0.137363 -0.143087
C9    C     C_R   0.756885 0.569859 0.142369 -0.177746
C10   C     C_R   0.388543 0.489790 0.813069 -0.098586
C11   C     C_2   0.613822 0.067412 0.426650 -0.068844
C12   C     C_R   0.425700 0.493865 0.699424 0.826492
C13   C     C_2   0.494097 0.132074 0.464796 -0.272853
C14   C     C_2   0.602923 0.930612 0.418774 -0.032414
C15   C     C_2   0.517681 0.867579 0.498861 -0.342879
C16   C     C_2   0.061341 0.576660 0.553363 -0.171413
C17   C     C_2   0.913058 0.587737 0.542135 0.039411
C18   C     C_R   0.499469 0.264880 0.490729 0.821789
C19   C     C_R   0.575386 0.506325 0.301603 0.809546
C20   C     C_R   0.796663 0.587858 0.037309 -0.127951
C21   C     C_R   0.617109 0.529708 0.191791 -0.061151
C22   C     C_R   0.244038 0.479431 0.866555 -0.165523
C23   C     C_R   0.200082 0.508880 0.970191 -0.146978
C24   C     C_R   0.298798 0.552849 0.022362 -0.044853
Cu1   Cu    Cu3+1 0.361370 0.499980 0.499980 1.004225
Cu2   Cu    Cu3+1 0.638630 0.500020 0.500020 1.011916
H1    H     H_    0.836324 0.584419 0.184434 0.214141
H2    H     H_    0.459735 0.915142 0.567972 0.159029
H3    H     H_    0.093488 0.635699 0.609922 0.197945
H4    H     H_    0.887868 0.415528 0.491758 0.202711
H5    H     H_    0.906309 0.614901 0.001736 0.194954
H6    H     H_    0.406362 0.488577 0.176336 0.172982
H7    H     H_    0.163467 0.456611 0.826747 0.177672
H8    H     H_    0.087293 0.507146 0.007507 0.166369
H9    H     H_    0.683654 0.450322 0.752888 0.173416
N1    N     N_2   0.152660 0.501340 0.501130 -0.292250
N2    N     N_2   0.846520 0.501370 0.501160 -0.284728
O1    O     O_R   0.382960 0.678040 0.499980 -0.564891
O2    O     O_R   0.617100 0.678080 0.500020 -0.565353
O3    O     O_R   0.325800 0.499940 0.650950 -0.577662
O4    O     O_R   0.559930 0.499980 0.650990 -0.559110
O5    O     O_R   0.382900 0.321920 0.499980 -0.573917
O6    O     O_R   0.617040 0.321960 0.500020 -0.574087
O7    O     O_R   0.440070 0.500020 0.349010 -0.588910
O8    O     O_R   0.674200 0.500060 0.349050 -0.555981
C25   C     C_2   0.349016 0.073486 0.472177 0.879201
O9    O     O_2   0.249069 0.094948 0.546576 -0.587018
O10   O     O_R   0.327239 0.995062 0.393540 -0.721015
H10   H     H_    0.224895 0.961056 0.407598 0.349181
C26   C     C_2   0.682226 0.867143 0.322609 0.490934
H11   H     H_    0.681748 0.767467 0.316848 0.042988
O11   O     O_2   0.747278 0.926245 0.247450 -0.495837
C27   C     C_2   0.137322 0.453586 0.405294 1.026138
O12   O     O_2   0.121149 0.523230 0.340702 -0.545797
O13   O     O_R   0.145986 0.327619 0.382826 -0.741883
H12   H     H_    0.151443 0.278454 0.443884 0.331135
C28   C     C_2   0.845694 0.702913 0.584089 0.489990
H13   H     H_    0.899666 0.790755 0.557523 0.065038
O14   O     O_2   0.736331 0.701372 0.654188 -0.511586
C29   C     C_2   0.893243 0.549380 0.812592 0.322239
H14   H     H_    0.932396 0.479005 0.754861 0.065642
O15   O     O_2   0.972839 0.637354 0.821165 -0.543033
C30   C     C_2   0.245441 0.633031 0.114561 0.887055
O16   O     O_2   0.118704 0.627939 0.160844 -0.568455
O17   O     O_R   0.337456 0.720997 0.144125 -0.731424
H15   H     H_    0.287825 0.770534 0.207032 0.362590
C31   C     C_2   0.759431 0.127664 0.392468 0.954052
O18   O     O_2   0.858311 0.084304 0.417057 -0.578472
O19   O     O_R   0.784683 0.229486 0.327828 -0.721282
H16   H     H_    0.888118 0.261315 0.309172 0.358924

loop_
_geom_bond_atom_site_label_1
_geom_bond_atom_site_label_2
_ccdc_geom_bond_type
Cu1   O5    S    
C12   O3    A    
C26   O11   D    
O13   H12   S    
C30   O17   S    
Cu2   N2    S    
C6    C7    A    
C1    C15   S    
Cu1   O1    S    
C9    C20   A    
C2    C4    A    
C14   C15   D    
C4    C8    A    
C23   H8    S    
C18   O5    A    
C2    C3    A    
C28   H13   S    
C3    C10   A    
C17   N2    D    
C27   O12   D    
C16   N1    D    
C11   C13   D    
C9    C21   A    
C15   H2    S    
C14   C26   S    
C10   C12   S    
C13   C18   S    
C1    O1    A    
Cu1   O7    S    
O10   H10   S    
C19   C21   S    
C11   C31   S    
Cu2   O6    S    
C26   H11   S    
C24   C30   S    
C3    C7    A    
O19   H16   S    
C27   O13   S    
Cu1   O3    S    
C2    C24   A    
C5    C6    A    
C11   C14   S    
C25   O10   S    
Cu2   O2    S    
C28   O14   D    
C16   H3    S    
C16   C17   S    
C1    O2    A    
Cu1   N1    S    
C30   O16   D    
C8    H6    S    
C6    C29   S    
Cu2   O4    S    
C19   O7    A    
C9    H1    S    
C12   O4    A    
C29   O15   D    
O17   H15   S    
C25   O9    D    
C5    C20   A    
C22   H7    S    
C13   C25   S    
C4    C5    A    
N1    C27   S    
C23   C24   A    
Cu2   O8    S    
Cu1   Cu2   S    
C18   O6    A    
C7    H9    S    
C22   C23   A    
C10   C22   A    
C19   O8    A    
C31   O18   D    
H4    N2    S    
C17   C28   S    
C29   H14   S    
C31   O19   S    
C20   H5    S    
C8    C21   A    
