data_mof_unit_65420.cif
_audit_creation_date              2013-03-05T15:58:54-0500
_audit_creation_method            fapswitch 2.2
_symmetry_space_group_name_H-M    P1
_symmetry_Int_Tables_number       1
_space_group_crystal_system       triclinic
_cell_length_a                    21.619773
_cell_length_b                    21.619702
_cell_length_c                    38.82824
_cell_angle_alpha                 89.999763
_cell_angle_beta                  89.99978
_cell_angle_gamma                 89.998767
_cell_volume                      18148.8260633

loop_
_atom_site_label
_atom_site_type_symbol
_atom_site_description
_atom_site_fract_x
_atom_site_fract_y
_atom_site_fract_z
_atom_type_partial_charge
O1    O     O_R   0.448370 0.908480 0.999910 -0.609898
O2    O     O_R   0.908480 0.551630 0.999910 -0.609891
O3    O     O_R   0.551630 0.091520 0.999910 -0.609871
O4    O     O_R   0.091520 0.448370 0.999910 -0.609858
O5    O     O_R   0.551630 0.908480 0.000090 -0.609854
O6    O     O_R   0.091520 0.551630 0.000090 -0.609870
O7    O     O_R   0.448370 0.091520 0.000090 -0.609856
O8    O     O_R   0.908480 0.448370 0.000090 -0.609863
O9    O     O_R   0.948370 0.408480 0.499910 -0.608876
O10   O     O_R   0.408480 0.051630 0.499910 -0.609842
O11   O     O_R   0.051630 0.591520 0.499910 -0.609867
O12   O     O_R   0.591520 0.948370 0.499910 -0.609858
O13   O     O_R   0.051630 0.408480 0.500090 -0.610116
O14   O     O_R   0.591520 0.051630 0.500090 -0.609867
O15   O     O_R   0.948370 0.591520 0.500090 -0.609921
O16   O     O_R   0.408480 0.948370 0.500090 -0.609878
C1    C     C_R   0.500000 0.879971 1.000000 1.055166
C2    C     C_R   0.879971 0.500001 1.000000 1.055170
C3    C     C_R   0.499999 0.120029 1.000000 1.055173
C4    C     C_R   0.120029 0.499999 0.000000 1.055175
C5    C     C_R   0.000003 0.379972 0.500011 1.055270
C6    C     C_R   0.379971 0.000000 0.500000 1.055168
C7    C     C_R   0.999999 0.620029 0.500000 1.055079
C8    C     C_R   0.620029 0.999999 0.500000 1.055169
O17   O     O_R   0.448370 0.000090 0.948970 -0.599228
O18   O     O_R   0.000090 0.551630 0.948970 -0.599229
O19   O     O_R   0.551630 0.999910 0.948970 -0.599228
O20   O     O_R   0.999910 0.448370 0.948970 -0.599226
O21   O     O_R   0.551630 0.000090 0.051030 -0.599225
O22   O     O_R   0.999910 0.551630 0.051030 -0.599226
O23   O     O_R   0.448370 0.999910 0.051030 -0.599226
O24   O     O_R   0.000090 0.448370 0.051030 -0.599230
O25   O     O_R   0.948370 0.500090 0.448970 -0.599160
O26   O     O_R   0.500090 0.051630 0.448970 -0.599223
O27   O     O_R   0.051630 0.499910 0.448970 -0.599223
O28   O     O_R   0.499910 0.948370 0.448970 -0.599227
O29   O     O_R   0.051630 0.500090 0.551030 -0.599265
O30   O     O_R   0.499910 0.051630 0.551030 -0.599225
O31   O     O_R   0.948370 0.499910 0.551030 -0.599247
O32   O     O_R   0.500090 0.948370 0.551030 -0.599228
C9    C     C_R   0.500000 0.000000 0.932658 1.011310
C10   C     C_R   0.000000 0.500000 0.932658 1.011313
C11   C     C_R   0.500000 0.000000 0.067341 1.011314
C12   C     C_R   1.000000 0.500000 0.067341 1.011317
C13   C     C_R   0.000000 0.500000 0.432658 1.011276
C14   C     C_R   0.500000 0.000000 0.432658 1.011311
C15   C     C_R   1.000000 0.500000 0.567342 1.011136
C16   C     C_R   0.500000 1.000000 0.567342 1.011305
Zn1   Zn    Zn3+2 0.431020 0.000000 0.000000 1.075897
Zn2   Zn    Zn3+2 1.000000 0.568980 0.000000 1.075894
Zn3   Zn    Zn3+2 0.568980 0.000000 0.000000 1.075912
Zn4   Zn    Zn3+2 1.000000 0.431020 0.000000 1.075914
Zn5   Zn    Zn3+2 0.931020 0.500000 0.500000 1.076592
Zn6   Zn    Zn3+2 0.500000 0.068980 0.500000 1.075943
Zn7   Zn    Zn3+2 0.068980 0.500000 0.500000 1.075900
Zn8   Zn    Zn3+2 0.500000 0.931020 0.500000 1.075923
C17   C     C_R   0.539092 0.958881 0.876787 0.277487
C18   C     C_R   0.958882 0.460911 0.876787 0.277487
C19   C     C_R   0.460909 0.041119 0.876787 0.277487
C20   C     C_R   0.041119 0.539091 0.876787 0.277488
C21   C     C_R   0.460909 0.958882 0.123213 0.277488
C22   C     C_R   0.041117 0.460908 0.123213 0.277486
C23   C     C_R   0.539090 0.041118 0.123213 0.277490
C24   C     C_R   0.958879 0.539090 0.123213 0.277489
C25   C     C_R   0.039106 0.458896 0.376786 0.277485
C26   C     C_R   0.458883 0.960909 0.376787 0.277485
C27   C     C_R   0.960897 0.541108 0.376787 0.277476
C28   C     C_R   0.541116 0.039092 0.376787 0.277507
C29   C     C_R   0.960901 0.458893 0.623214 0.277446
C30   C     C_R   0.541117 0.960907 0.623213 0.277486
C31   C     C_R   0.039096 0.541114 0.623213 0.277500
C32   C     C_R   0.458882 0.039092 0.623213 0.277487
C33   C     C_R   0.539248 0.960105 0.840847 -0.194960
C34   C     C_R   0.960106 0.460756 0.840847 -0.194959
C35   C     C_R   0.460753 0.039895 0.840847 -0.194962
C36   C     C_R   0.039895 0.539248 0.840847 -0.194962
C37   C     C_R   0.460753 0.960106 0.159153 -0.194968
C38   C     C_R   0.039892 0.460752 0.159153 -0.194974
C39   C     C_R   0.539246 0.039895 0.159153 -0.194973
C40   C     C_R   0.960102 0.539246 0.159153 -0.194971
C41   C     C_R   0.039260 0.460119 0.340846 -0.195038
C42   C     C_R   0.460106 0.960753 0.340847 -0.194972
C43   C     C_R   0.960739 0.539883 0.340847 -0.194988
C44   C     C_R   0.539892 0.039248 0.340846 -0.194990
C45   C     C_R   0.960745 0.460117 0.659154 -0.194965
C46   C     C_R   0.539893 0.960751 0.659153 -0.194961
C47   C     C_R   0.039252 0.539891 0.659153 -0.194977
C48   C     C_R   0.460106 0.039248 0.659153 -0.194961
H1    H     H_    0.569144 0.928427 0.827071 0.201753
H2    H     H_    0.928428 0.430862 0.827071 0.201753
H3    H     H_    0.430857 0.071573 0.827071 0.201752
H4    H     H_    0.071573 0.569143 0.827071 0.201752
H5    H     H_    0.430858 0.928429 0.172929 0.201750
H6    H     H_    0.071570 0.430856 0.172929 0.201749
H7    H     H_    0.569141 0.071572 0.172929 0.201746
H8    H     H_    0.928423 0.569141 0.172929 0.201749
H9    H     H_    0.069166 0.428451 0.327070 0.201745
H10   H     H_    0.428429 0.930858 0.327071 0.201750
H11   H     H_    0.930833 0.571552 0.327071 0.201750
H12   H     H_    0.571569 0.069144 0.327070 0.201738
H13   H     H_    0.930844 0.428446 0.672930 0.201752
H14   H     H_    0.571570 0.930854 0.672929 0.201753
H15   H     H_    0.069153 0.571564 0.672929 0.201753
H16   H     H_    0.428429 0.069145 0.672929 0.201752
C49   C     C_R   0.500000 1.000000 0.822713 -0.044407
C50   C     C_R   0.000000 0.500003 0.822714 -0.044407
C51   C     C_R   0.499999 0.000001 0.177286 -0.044406
C52   C     C_R   0.999996 0.499998 0.177286 -0.044407
C53   C     C_R   0.999998 0.500000 0.322713 -0.044403
C54   C     C_R   0.499999 0.000001 0.322713 -0.044402
C55   C     C_R   0.999999 0.500004 0.677287 -0.044401
C56   C     C_R   0.500000 0.999999 0.677287 -0.044407
C57   C     C_R   0.500000 0.000000 0.895003 -0.279256
C58   C     C_R   0.000000 0.500001 0.895003 -0.279258
C59   C     C_R   0.500000 0.000000 0.104997 -0.279258
C60   C     C_R   0.999999 0.500000 0.104997 -0.279258
C61   C     C_R   0.000001 0.500001 0.395002 -0.279242
C62   C     C_R   0.500000 0.000000 0.395002 -0.279256
C63   C     C_R   0.999999 0.500002 0.604998 -0.279208
C64   C     C_R   0.500000 0.999999 0.604997 -0.279255
N1    N     N_R   0.461803 0.038196 0.767105 -0.156563
N2    N     N_R   0.038198 0.538197 0.767105 -0.156563
N3    N     N_R   0.538197 0.961804 0.767105 -0.156562
N4    N     N_R   0.961801 0.461811 0.767106 -0.156563
N5    N     N_R   0.538195 0.038196 0.232894 -0.156579
N6    N     N_R   0.961794 0.538189 0.232894 -0.156572
N7    N     N_R   0.461803 0.961806 0.232895 -0.156568
N8    N     N_R   0.038198 0.461808 0.232894 -0.156579
N9    N     N_R   0.961792 0.538187 0.267105 -0.156574
N10   N     N_R   0.538193 0.038198 0.267105 -0.156583
N11   N     N_R   0.038201 0.461810 0.267105 -0.156585
N12   N     N_R   0.461805 0.961804 0.267105 -0.156568
N13   N     N_R   0.038200 0.538195 0.732895 -0.156563
N14   N     N_R   0.461805 0.038198 0.732895 -0.156563
N15   N     N_R   0.961799 0.461814 0.732895 -0.156562
N16   N     N_R   0.538195 0.961802 0.732895 -0.156562
C65   C     C_R   0.500000 0.999999 0.715129 0.345547
C66   C     C_R   0.999999 0.500005 0.715129 0.345547
C67   C     C_R   0.499999 0.000001 0.284871 0.345544
C68   C     C_R   0.999996 0.499999 0.284870 0.345531
C69   C     C_R   0.999996 0.499998 0.215129 0.345541
C70   C     C_R   0.499999 0.000001 0.215129 0.345545
C71   C     C_R   1.000000 0.500004 0.784871 0.345546
C72   C     C_R   0.500000 1.000000 0.784871 0.345547
C73   C     C_R   0.533033 0.782412 0.025677 0.485853
C74   C     C_R   0.782413 0.466970 0.025678 0.485856
C75   C     C_R   0.466967 0.217588 0.025677 0.485847
C76   C     C_R   0.217587 0.533030 0.025678 0.485841
C77   C     C_R   0.466969 0.782412 0.974322 0.485832
C78   C     C_R   0.217588 0.466967 0.974323 0.485847
C79   C     C_R   0.533029 0.217587 0.974322 0.485839
C80   C     C_R   0.782411 0.533034 0.974323 0.485833
C81   C     C_R   0.033002 0.282409 0.525691 0.485515
C82   C     C_R   0.282413 0.966972 0.525679 0.485833
C83   C     C_R   0.966974 0.717588 0.525680 0.485825
C84   C     C_R   0.717586 0.033027 0.525679 0.485830
C85   C     C_R   0.967013 0.282439 0.474305 0.486283
C86   C     C_R   0.717588 0.966970 0.474322 0.485835
C87   C     C_R   0.033022 0.717586 0.474319 0.485836
C88   C     C_R   0.282412 0.033031 0.474322 0.485854
C89   C     C_R   0.530793 0.718244 0.026232 -0.269822
C90   C     C_R   0.718245 0.469209 0.026232 -0.269820
C91   C     C_R   0.469208 0.281755 0.026233 -0.269828
C92   C     C_R   0.281754 0.530790 0.026233 -0.269817
C93   C     C_R   0.469210 0.718245 0.973767 -0.269789
C94   C     C_R   0.281756 0.469207 0.973768 -0.269824
C95   C     C_R   0.530790 0.281755 0.973767 -0.269816
C96   C     C_R   0.718244 0.530793 0.973768 -0.269792
C97   C     C_R   0.030750 0.218244 0.526246 -0.269773
C98   C     C_R   0.218245 0.969212 0.526233 -0.269813
C99   C     C_R   0.969215 0.781755 0.526235 -0.269805
C100  C     C_R   0.781754 0.030787 0.526234 -0.269819
C101  C     C_R   0.969250 0.218257 0.473750 -0.270813
C102  C     C_R   0.781756 0.969210 0.473767 -0.269881
C103  C     C_R   0.030783 0.781754 0.473765 -0.269832
C104  C     C_R   0.218245 0.030790 0.473767 -0.269843
H17   H     H_    0.553692 0.693160 0.046753 0.181980
H18   H     H_    0.693163 0.446310 0.046754 0.181981
H19   H     H_    0.446311 0.306839 0.046755 0.181979
H20   H     H_    0.306837 0.553688 0.046754 0.181983
H21   H     H_    0.446309 0.693163 0.953246 0.181996
H22   H     H_    0.306840 0.446309 0.953246 0.181980
H23   H     H_    0.553688 0.306838 0.953245 0.181985
H24   H     H_    0.693161 0.553692 0.953246 0.181995
H25   H     H_    0.053617 0.193158 0.546778 0.182008
H26   H     H_    0.193162 0.946315 0.546756 0.181985
H27   H     H_    0.946322 0.806839 0.546759 0.181993
H28   H     H_    0.806837 0.053682 0.546756 0.181984
H29   H     H_    0.946424 0.193156 0.453212 0.181545
H30   H     H_    0.806840 0.946315 0.453244 0.181976
H31   H     H_    0.053675 0.806837 0.453241 0.181981
H32   H     H_    0.193161 0.053686 0.453244 0.181964
C105  C     C_R   0.500001 0.686637 1.000000 -0.167968
C106  C     C_R   0.686637 0.500000 0.000000 -0.167968
C107  C     C_R   0.499999 0.313363 0.000000 -0.167956
C108  C     C_R   0.313363 0.499999 0.000000 -0.167955
C109  C     C_R   0.999995 0.186642 0.499999 -0.167575
C110  C     C_R   0.186637 0.000001 0.500000 -0.167954
C111  C     C_R   1.000000 0.813363 0.500000 -0.167968
C112  C     C_R   0.813363 0.999999 0.500000 -0.167965
C113  C     C_R   0.500001 0.813915 0.999999 -0.220941
C114  C     C_R   0.813915 0.500002 0.000000 -0.220943
C115  C     C_R   0.499998 0.186085 1.000000 -0.220926
C116  C     C_R   0.186085 0.499998 0.000001 -0.220927
C117  C     C_R   0.000011 0.313917 0.500001 -0.220445
C118  C     C_R   0.313915 0.000001 0.500000 -0.220918
C119  C     C_R   0.999998 0.686085 0.500000 -0.220907
C120  C     C_R   0.686085 0.999998 0.500000 -0.220918
O33   O     O_R   0.408360 0.500090 0.028640 -0.620498
O34   O     O_R   0.500090 0.591640 0.028640 -0.620497
O35   O     O_R   0.591640 0.499910 0.028640 -0.620498
O36   O     O_R   0.499910 0.408360 0.028640 -0.620498
O37   O     O_R   0.591640 0.500090 0.971360 -0.620494
O38   O     O_R   0.499910 0.591640 0.971360 -0.620494
O39   O     O_R   0.408360 0.499910 0.971360 -0.620494
O40   O     O_R   0.500090 0.408360 0.971360 -0.620497
O41   O     O_R   0.908360 0.000090 0.528640 -0.620483
O42   O     O_R   0.000090 0.091640 0.528640 -0.620519
O43   O     O_R   0.091640 0.999910 0.528640 -0.620491
O44   O     O_R   0.999910 0.908360 0.528640 -0.620494
O45   O     O_R   0.091640 0.000090 0.471360 -0.620502
O46   O     O_R   0.999910 0.091640 0.471360 -0.620565
O47   O     O_R   0.908360 0.999910 0.471360 -0.620544
O48   O     O_R   0.000090 0.908360 0.471360 -0.620499
C121  C     C_R   0.379588 0.500000 0.000000 0.922909
C122  C     C_R   0.500000 0.620412 1.000000 0.922912
C123  C     C_R   0.620412 0.500000 1.000000 0.922909
C124  C     C_R   0.500000 0.379588 0.000000 0.922910
C125  C     C_R   0.879588 1.000000 0.500000 0.922928
C126  C     C_R   0.999996 0.120414 0.499999 0.922927
C127  C     C_R   0.120412 0.000000 0.500000 0.922933
C128  C     C_R   1.000000 0.879588 0.500000 0.922934
Zn9   Zn    Zn3+2 0.500000 0.500000 0.038290 1.000252
Zn10  Zn    Zn3+2 0.500000 0.500000 0.961710 1.000270
Zn11  Zn    Zn3+2 1.000000 1.000000 0.538290 1.000257
Zn12  Zn    Zn3+2 0.000000 0.000000 0.461710 1.000100
N17   N     N_R   0.577182 0.914154 0.894197 0.220889
O49   O     O_R   0.554635 0.881286 0.919300 -0.372629
O50   O     O_R   0.631021 0.899437 0.881645 -0.366457
N18   N     N_R   0.914154 0.422822 0.894197 0.220889
O51   O     O_R   0.881286 0.445370 0.919300 -0.372629
O52   O     O_R   0.899438 0.368983 0.881645 -0.366459
N19   N     N_R   0.422818 0.085847 0.894197 0.220888
O53   O     O_R   0.445365 0.118714 0.919300 -0.372628
O54   O     O_R   0.368979 0.100564 0.881645 -0.366461
N20   N     N_R   0.085847 0.577180 0.894197 0.220888
O55   O     O_R   0.118714 0.554630 0.919300 -0.372629
O56   O     O_R   0.100564 0.631018 0.881646 -0.366458
N21   N     N_R   0.422820 0.914155 0.105803 0.220887
O57   O     O_R   0.445368 0.881286 0.080701 -0.372633
O58   O     O_R   0.368981 0.899439 0.118355 -0.366468
N22   N     N_R   0.085846 0.422818 0.105803 0.220887
O59   O     O_R   0.118714 0.445366 0.080701 -0.372631
O60   O     O_R   0.100564 0.368979 0.118355 -0.366475
N23   N     N_R   0.577180 0.085845 0.105803 0.220887
O61   O     O_R   0.554632 0.118714 0.080700 -0.372631
O62   O     O_R   0.631018 0.100561 0.118354 -0.366476
N24   N     N_R   0.914151 0.577181 0.105802 0.220886
O63   O     O_R   0.881285 0.554634 0.080699 -0.372636
O64   O     O_R   0.899433 0.631019 0.118354 -0.366470
N25   N     N_R   0.077217 0.414183 0.394195 0.220878
O65   O     O_R   0.054684 0.381304 0.419297 -0.372597
O66   O     O_R   0.131062 0.399490 0.381643 -0.366485
N26   N     N_R   0.414157 0.922818 0.394197 0.220888
O67   O     O_R   0.381287 0.945365 0.419299 -0.372629
O68   O     O_R   0.399443 0.868979 0.381646 -0.366464
N27   N     N_R   0.922796 0.585827 0.394197 0.220890
O69   O     O_R   0.945338 0.618705 0.419296 -0.372628
O70   O     O_R   0.868951 0.600526 0.381647 -0.366465
N28   N     N_R   0.585843 0.077183 0.394196 0.220876
O71   O     O_R   0.618712 0.054635 0.419299 -0.372665
O72   O     O_R   0.600557 0.131022 0.381645 -0.366544
N29   N     N_R   0.922801 0.414173 0.605805 0.220922
O73   O     O_R   0.945343 0.381296 0.580704 -0.372504
O74   O     O_R   0.868958 0.399471 0.618356 -0.366374
N30   N     N_R   0.585844 0.922814 0.605803 0.220890
O75   O     O_R   0.618712 0.945361 0.580700 -0.372622
O76   O     O_R   0.600559 0.868975 0.618355 -0.366453
N31   N     N_R   0.077193 0.585834 0.605802 0.220895
O77   O     O_R   0.054649 0.618709 0.580701 -0.372604
O78   O     O_R   0.131035 0.600540 0.618353 -0.366458
N32   N     N_R   0.414156 0.077184 0.605803 0.220890
O79   O     O_R   0.381287 0.054638 0.580701 -0.372624
O80   O     O_R   0.399440 0.131024 0.618355 -0.366454
O81   O     O_3   0.561870 0.814927 0.051899 -0.572295
C129  C     C_3   0.626414 0.806477 0.049421 -0.224243
H33   H     H_    0.643891 0.817546 0.023135 0.161310
H34   H     H_    0.639911 0.758714 0.056875 0.156061
H35   H     H_    0.649297 0.838669 0.067656 0.202015
O82   O     O_3   0.814929 0.438133 0.051900 -0.572296
C130  C     C_3   0.806486 0.373588 0.049420 -0.224250
H36   H     H_    0.817562 0.356115 0.023135 0.161318
H37   H     H_    0.758723 0.360088 0.056871 0.156057
H38   H     H_    0.838678 0.350706 0.067656 0.202013
O83   O     O_3   0.438131 0.185072 0.051900 -0.572297
C131  C     C_3   0.373588 0.193526 0.049425 -0.224244
H39   H     H_    0.356108 0.182465 0.023140 0.161303
H40   H     H_    0.360095 0.241288 0.056883 0.156066
H41   H     H_    0.350705 0.161330 0.067659 0.202015
O84   O     O_3   0.185071 0.561867 0.051900 -0.572295
C132  C     C_3   0.193513 0.626411 0.049421 -0.224246
H42   H     H_    0.182431 0.643884 0.023137 0.161322
H43   H     H_    0.241277 0.639911 0.056868 0.156053
H44   H     H_    0.161326 0.649293 0.067659 0.202015
O85   O     O_3   0.438132 0.814926 0.948099 -0.572293
C133  C     C_3   0.373587 0.806507 0.950592 -0.224252
H45   H     H_    0.356130 0.817634 0.976873 0.161360
H46   H     H_    0.360068 0.758737 0.943169 0.156029
H47   H     H_    0.350706 0.838673 0.932341 0.202017
O86   O     O_3   0.185073 0.438130 0.948101 -0.572295
C134  C     C_3   0.193526 0.373586 0.950577 -0.224237
H48   H     H_    0.182466 0.356107 0.976863 0.161301
H49   H     H_    0.241288 0.360092 0.943119 0.156068
H50   H     H_    0.161330 0.350703 0.932344 0.202017
O87   O     O_3   0.561865 0.185071 0.948099 -0.572296
C135  C     C_3   0.626409 0.193513 0.950578 -0.224239
H51   H     H_    0.643883 0.182434 0.976863 0.161317
H52   H     H_    0.639910 0.241277 0.943129 0.156058
H53   H     H_    0.649291 0.161324 0.932341 0.202016
O88   O     O_3   0.814924 0.561872 0.948100 -0.572291
C136  C     C_3   0.806498 0.626417 0.950590 -0.224252
H54   H     H_    0.817619 0.643876 0.976871 0.161355
H55   H     H_    0.758727 0.639933 0.943166 0.156031
H56   H     H_    0.838664 0.649298 0.932341 0.202018
O89   O     O_3   0.061807 0.314918 0.551927 -0.572318
C137  C     C_3   0.126354 0.306477 0.549468 -0.224262
H57   H     H_    0.143856 0.317572 0.523191 0.161316
H58   H     H_    0.139849 0.258708 0.556912 0.156075
H59   H     H_    0.149214 0.338655 0.567720 0.202029
O90   O     O_3   0.314928 0.938137 0.551902 -0.572299
C138  C     C_3   0.306489 0.873593 0.549423 -0.224234
H60   H     H_    0.317572 0.856119 0.523139 0.161323
H61   H     H_    0.258725 0.860090 0.556870 0.156057
H62   H     H_    0.338676 0.850712 0.567662 0.202019
O91   O     O_3   0.938144 0.685074 0.551905 -0.572307
C139  C     C_3   0.873599 0.693511 0.549427 -0.224238
H63   H     H_    0.856124 0.682414 0.523146 0.161334
H64   H     H_    0.860094 0.741278 0.556866 0.156050
H65   H     H_    0.850722 0.661332 0.567672 0.202025
O92   O     O_3   0.685069 0.061860 0.551902 -0.572307
C140  C     C_3   0.693520 0.126404 0.549430 -0.224190
H66   H     H_    0.682459 0.143887 0.523145 0.161297
H67   H     H_    0.741281 0.139897 0.556889 0.156081
H68   H     H_    0.661323 0.149285 0.567664 0.202023
O93   O     O_3   0.938230 0.315051 0.448091 -0.572439
C141  C     C_3   0.873736 0.305736 0.450087 -0.223854
H69   H     H_    0.855621 0.315081 0.476469 0.159808
H70   H     H_    0.860963 0.258256 0.441686 0.157063
H71   H     H_    0.850801 0.338712 0.432303 0.201971
O94   O     O_3   0.685073 0.938136 0.448099 -0.572311
C142  C     C_3   0.693526 0.873592 0.450572 -0.224233
H72   H     H_    0.682464 0.856110 0.476857 0.161312
H73   H     H_    0.741288 0.860099 0.443114 0.156065
H74   H     H_    0.661331 0.850711 0.432338 0.202015
O95   O     O_3   0.061851 0.685069 0.448094 -0.572314
C143  C     C_3   0.126395 0.693520 0.450563 -0.224230
H75   H     H_    0.143883 0.682460 0.476847 0.161306
H76   H     H_    0.139886 0.741281 0.443102 0.156067
H77   H     H_    0.149272 0.661322 0.432328 0.202020
O96   O     O_3   0.314930 0.061865 0.448099 -0.572306
C144  C     C_3   0.306463 0.126407 0.450566 -0.224244
H78   H     H_    0.317500 0.143897 0.476851 0.161292
H79   H     H_    0.258707 0.139889 0.443095 0.156076
H80   H     H_    0.338669 0.149291 0.432338 0.202013

loop_
_geom_bond_atom_site_label_1
_geom_bond_atom_site_label_2
_geom_bond_distance
_ccdc_geom_bond_type
N23   O62   1.301381 A    
O25   C13   1.283399 A    
C130  H36   1.114318 S    
C86   O94   1.385476 S    
C109  C126  1.431830 S    
O46   Zn12  2.016349 S    
N32   O79   1.301002 A    
C82   O90   1.385469 S    
C83   C119  1.402813 A    
O18   Zn2   2.016604 S    
O10   Zn6   2.013894 S    
C82   C98   1.388294 A    
C38   C52   1.399864 A    
O24   Zn4   2.016600 S    
N11   C68   1.356344 A    
C86   C102  1.388299 A    
C21   C59   1.415898 A    
O3    C3    1.275097 A    
C137  H57   1.114304 S    
C129  H35   1.109271 S    
C23   C59   1.415898 A    
O15   C7    1.275096 A    
C77   O85   1.385463 S    
C42   H10   1.083004 S    
C49   C72   1.469369 S    
C144  H80   1.109261 S    
O90   C138  1.410605 S    
C44   H12   1.083006 S    
C85   C117  1.402739 A    
O92   C140  1.410608 S    
C16   C64   1.462112 S    
O17   C9    1.283393 A    
N6    N9    1.328341 A    
C132  H42   1.114289 S    
C20   C36   1.395746 A    
C143  H77   1.109271 S    
C135  H51   1.114296 S    
C106  C123  1.431763 S    
C88   O96   1.385478 S    
C26   C42   1.395746 A    
C144  H79   1.111361 S    
O95   C143  1.410608 S    
C19   C57   1.415895 A    
C137  H59   1.109274 S    
C3    C115  1.428107 S    
C133  H45   1.114270 S    
O13   C5    1.275046 A    
C1    C113  1.428109 S    
C47   H15   1.083006 S    
C131  H39   1.114307 S    
C76   O84   1.385470 S    
O26   Zn6   2.016604 S    
O7    C3    1.275099 A    
O45   Zn12  2.016355 S    
N28   O72   1.301381 A    
C89   H17   1.083557 S    
O27   C13   1.283390 A    
O84   C132  1.410603 S    
O31   C15   1.283394 A    
C132  H44   1.109263 S    
O32   C16   1.283389 A    
N4    N15   1.328341 A    
C7    C119  1.428102 S    
C95   C107  1.395563 A    
C9    C57   1.462108 S    
C139  H63   1.114283 S    
C87   C119  1.402811 A    
C29   N29   1.438823 S    
N6    C69   1.356345 A    
C31   C63   1.415900 A    
C34   H2    1.083007 S    
C75   C115  1.402812 A    
C129  H34   1.111403 S    
O9    C5    1.275125 A    
C73   C89   1.388298 A    
C38   H6    1.083005 S    
C79   C95   1.388293 A    
O11   C7    1.275097 A    
N31   O78   1.301381 A    
O94   C142  1.410609 S    
C84   C120  1.402814 A    
C81   O89   1.385465 S    
C88   C118  1.402814 A    
O91   C139  1.410602 S    
O4    C4    1.275098 A    
O5    C1    1.275101 A    
C12   C60   1.462105 S    
C136  H54   1.114273 S    
O5    Zn3   2.013888 S    
C5    C117  1.428087 S    
C17   N17   1.438825 S    
N22   O59   1.301006 A    
C27   C43   1.395742 A    
C20   C58   1.415897 A    
C142  H72   1.114308 S    
C94   H22   1.083556 S    
O41   Zn11  2.016357 S    
C142  H74   1.109271 S    
N12   C67   1.356345 A    
C28   N28   1.438826 S    
N21   O57   1.301001 A    
O40   C124  1.274199 A    
O23   C11   1.283392 A    
C135  H53   1.109269 S    
C130  H37   1.111408 S    
C94   C108  1.395563 A    
O42   Zn11  2.016346 S    
N25   O65   1.301002 A    
C78   C94   1.388301 A    
C6    C118  1.428111 S    
O34   Zn9   2.016346 S    
O14   C8    1.275094 A    
O2    Zn2   2.013894 S    
C28   C62   1.415899 A    
C33   C49   1.399862 A    
C10   C58   1.462108 S    
C131  H41   1.109272 S    
C30   C64   1.415899 A    
N26   O67   1.301003 A    
O28   C14   1.283390 A    
O26   C14   1.283389 A    
C84   O92   1.385471 S    
O8    Zn4   2.013878 S    
O30   C16   1.283390 A    
C35   H3    1.083007 S    
C78   O86   1.385473 S    
N17   O49   1.301002 A    
C79   O87   1.385472 S    
O34   C122  1.274198 A    
N1    C72   1.356345 A    
O45   C127  1.274201 A    
N2    C71   1.356343 A    
C139  H65   1.109260 S    
O96   C144  1.410593 S    
C48   H16   1.083006 S    
O19   Zn3   2.016604 S    
C140  H67   1.111402 S    
C30   N30   1.438827 S    
C101  C109  1.395626 A    
C76   C92   1.388296 A    
O43   Zn11  2.016352 S    
C77   C93   1.388285 A    
C110  C127  1.431767 S    
C17   C57   1.415898 A    
C84   C100  1.388300 A    
C31   N31   1.438822 S    
O35   Zn9   2.016352 S    
C48   C56   1.399864 A    
O16   Zn8   2.013878 S    
C87   C103  1.388297 A    
C141  H70   1.111928 S    
C136  H56   1.109256 S    
C32   C64   1.415898 A    
C143  H76   1.111399 S    
O29   C15   1.283395 A    
C89   C105  1.395564 A    
C82   C118  1.402815 A    
O6    Zn2   2.013876 S    
C103  C111  1.395566 A    
C81   C117  1.402778 A    
C134  H49   1.111398 S    
C91   H19   1.083558 S    
C46   H14   1.083006 S    
N8    N11   1.328337 A    
C29   C45   1.395742 A    
C18   C34   1.395742 A    
C141  H71   1.109501 S    
C97   C109  1.395543 A    
O21   Zn3   2.016598 S    
C13   C61   1.462120 S    
N20   O55   1.301003 A    
C36   C50   1.399862 A    
C22   C38   1.395742 A    
C25   N25   1.438824 S    
C104  C110  1.395566 A    
N16   C65   1.356344 A    
N27   O69   1.301005 A    
C92   C108  1.395562 A    
O12   C8    1.275097 A    
N32   O80   1.301379 A    
C86   C120  1.402810 A    
N24   O63   1.301004 A    
C74   C114  1.402816 A    
C75   C91   1.388299 A    
C22   N22   1.438826 S    
N18   O51   1.301004 A    
N29   O74   1.301381 A    
C100  C112  1.395564 A    
C138  H62   1.109270 S    
C90   H18   1.083558 S    
O47   Zn12  2.016355 S    
O29   Zn7   2.016598 S    
N13   C66   1.356344 A    
N30   O75   1.301001 A    
O46   C126  1.274202 A    
C21   N21   1.438826 S    
C18   C58   1.415896 A    
C25   C61   1.415903 A    
C137  H58   1.111402 S    
C24   C60   1.415897 A    
C19   C35   1.395746 A    
O40   Zn10  2.016348 S    
O44   Zn11  2.016351 S    
C78   C116  1.402815 A    
C80   C114  1.402817 A    
N14   C65   1.356342 A    
C50   C71   1.469365 S    
O10   C6    1.275097 A    
C74   C90   1.388298 A    
C76   C116  1.402814 A    
C53   C68   1.469365 S    
O15   Zn5   2.013886 S    
C54   C67   1.469369 S    
C47   C55   1.399862 A    
N19   O53   1.301006 A    
C14   C62   1.462112 S    
C135  H52   1.111390 S    
O82   C130  1.410610 S    
O42   C126  1.274229 A    
C108  C121  1.431763 S    
O32   Zn8   2.016600 S    
N3    C72   1.356343 A    
C133  H46   1.111367 S    
N31   O77   1.301005 A    
N4    C71   1.356342 A    
N1    N14   1.328341 A    
C73   O81   1.385474 S    
N8    C69   1.356342 A    
C92   H20   1.083557 S    
C131  H40   1.111398 S    
O22   Zn2   2.016597 S    
O87   C135  1.410602 S    
C43   H11   1.083007 S    
O21   C11   1.283393 A    
C24   C40   1.395745 A    
O22   C12   1.283390 A    
O38   Zn10  2.016349 S    
O39   Zn10  2.016355 S    
O33   C121  1.274201 A    
O23   Zn1   2.016601 S    
C26   N26   1.438825 S    
N10   C67   1.356342 A    
C52   C69   1.469369 S    
C80   C96   1.388290 A    
C83   O91   1.385469 S    
C132  H43   1.111383 S    
C133  H47   1.109259 S    
C28   C44   1.395742 A    
C4    C116  1.428111 S    
C139  H64   1.111380 S    
O43   C127  1.274200 A    
O83   C131  1.410611 S    
O3    Zn3   2.013870 S    
C8    C120  1.428111 S    
O8    C2    1.275097 A    
O39   C121  1.274200 A    
C111  C128  1.431765 S    
C39   H7    1.083006 S    
O81   C129  1.410611 S    
O37   C123  1.274200 A    
C87   O95   1.385474 S    
C25   C41   1.395741 A    
O30   Zn6   2.016597 S    
C91   C107  1.395563 A    
C98   H26   1.083559 S    
C39   C51   1.399861 A    
C2    C114  1.428114 S    
C27   C61   1.415901 A    
C102  H30   1.083557 S    
C31   C47   1.395745 A    
C41   C53   1.399862 A    
O9    Zn5   2.013872 S    
C112  C125  1.431767 S    
O37   Zn10  2.016355 S    
O11   Zn7   2.013870 S    
N22   O60   1.301380 A    
C40   C52   1.399860 A    
O86   C134  1.410607 S    
O16   C6    1.275094 A    
O1    C1    1.275095 A    
C56   C65   1.469369 S    
C45   C55   1.399862 A    
C142  H73   1.111400 S    
O6    C4    1.275095 A    
C102  C112  1.395565 A    
O48   Zn12  2.016348 S    
C33   H1    1.083005 S    
N27   O70   1.301380 A    
O31   Zn5   2.016601 S    
C75   O83   1.385474 S    
C37   H5    1.083005 S    
C29   C63   1.415899 A    
O18   C10   1.283389 A    
O89   C137  1.410605 S    
O17   Zn1   2.016602 S    
O36   C124  1.274200 A    
N26   O68   1.301382 A    
O85   C133  1.410593 S    
C81   C97   1.388244 A    
N28   O71   1.301004 A    
O47   C125  1.274200 A    
C55   C66   1.469365 S    
C85   C101  1.388613 A    
O13   Zn7   2.013888 S    
N15   C66   1.356343 A    
C134  H48   1.114307 S    
C20   N20   1.438824 S    
O2    C2    1.275096 A    
O20   Zn4   2.016601 S    
C138  H60   1.114302 S    
O36   Zn9   2.016351 S    
C23   C39   1.395746 A    
C140  H66   1.114309 S    
C107  C124  1.431758 S    
O4    Zn4   2.013892 S    
O28   Zn8   2.016601 S    
C42   C54   1.399862 A    
C105  C122  1.431758 S    
O48   C128  1.274199 A    
C103  H31   1.083556 S    
C129  H33   1.114309 S    
C104  H32   1.083555 S    
C17   C33   1.395746 A    
C19   N19   1.438825 S    
C101  H29   1.083489 S    
N7    N12   1.328337 A    
C99   C111  1.395563 A    
C11   C59   1.462108 S    
N5    N10   1.328341 A    
C23   N23   1.438824 S    
C96   H24   1.083560 S    
C43   C53   1.399861 A    
C40   H8    1.083006 S    
O41   C125  1.274201 A    
C85   O93   1.385747 S    
C96   C106  1.395563 A    
C88   C104  1.388305 A    
C18   N18   1.438826 S    
C32   C48   1.395742 A    
C24   N24   1.438826 S    
O25   Zn5   2.016602 S    
N20   O56   1.301381 A    
N21   O58   1.301383 A    
O44   C128  1.274200 A    
O27   Zn7   2.016604 S    
C37   C51   1.399865 A    
C130  H38   1.109275 S    
O7    Zn1   2.013886 S    
C80   O88   1.385464 S    
C21   C37   1.395742 A    
N25   O66   1.301379 A    
C136  H55   1.111372 S    
C44   C54   1.399863 A    
N7    C70   1.356345 A    
C46   C56   1.399864 A    
N2    N13   1.328341 A    
C22   C60   1.415897 A    
C34   C50   1.399863 A    
C27   N27   1.438824 S    
O19   C9    1.283392 A    
N5    C70   1.356344 A    
C90   C106  1.395561 A    
N18   O52   1.301382 A    
N29   O73   1.301002 A    
O24   C12   1.283389 A    
C51   C70   1.469369 S    
C138  H61   1.111395 S    
O12   Zn8   2.013892 S    
C36   H4    1.083006 S    
O14   Zn6   2.013876 S    
N30   O76   1.301382 A    
N17   O50   1.301381 A    
C32   N32   1.438826 S    
N23   O61   1.301004 A    
C30   C46   1.395742 A    
C77   C113  1.402817 A    
N24   O64   1.301380 A    
C98   C110  1.395562 A    
C45   H13   1.083004 S    
C15   C63   1.462116 S    
C140  H68   1.109272 S    
C95   H23   1.083556 S    
C79   C115  1.402813 A    
C93   C105  1.395560 A    
C35   C49   1.399863 A    
C144  H78   1.114274 S    
C99   H27   1.083557 S    
N3    N16   1.328341 A    
C93   H21   1.083559 S    
O88   C136  1.410600 S    
C97   H25   1.083558 S    
C73   C113  1.402814 A    
C74   O82   1.385469 S    
C141  H69   1.115117 S    
N9    C68   1.356342 A    
C41   H9    1.083006 S    
C100  H28   1.083555 S    
O20   C10   1.283390 A    
C143  H75   1.114311 S    
O38   C122  1.274199 A    
O33   Zn9   2.016357 S    
C83   C99   1.388292 A    
C26   C62   1.415897 A    
C134  H50   1.109271 S    
O35   C123  1.274199 A    
N19   O54   1.301381 A    
O93   C141  1.410953 S    
O1    Zn1   2.013872 S    
