data_mof_unit_29211.cif
_audit_creation_date              2012-12-11T14:14:58-0500
_audit_creation_method            fapswitch 2.2
_symmetry_space_group_name_H-M    P1
_symmetry_Int_Tables_number       1
_space_group_crystal_system       triclinic
_cell_length_a                    24.541835
_cell_length_b                    17.206574
_cell_length_c                    15.513326
_cell_angle_alpha                 90.000126
_cell_angle_beta                  128.664586
_cell_angle_gamma                 90.000022
_cell_volume                      5115.11567206

loop_
_atom_site_label
_atom_site_type_symbol
_atom_type_description
_atom_site_fract_x
_atom_site_fract_y
_atom_site_fract_z
_atom_type_partial_charge
C1    C     C_R   0.332782 0.396001 0.199060 -0.124732
C2    C     C_R   0.677378 0.631560 0.497908 0.070334
C3    C     C_R   0.822623 0.131562 0.502091 0.070343
C4    C     C_R   0.177377 0.131563 0.497909 0.070354
C5    C     C_R   0.380955 0.681997 0.208419 0.131593
C6    C     C_R   0.619044 0.681998 0.791579 0.131592
C7    C     C_R   0.880956 0.181998 0.208421 0.131594
C8    C     C_R   0.119046 0.181996 0.791584 0.131593
C9    C     C_2   0.746755 0.645236 0.433858 -0.116548
C10   C     C_2   0.253245 0.645236 0.566144 -0.116574
C11   C     C_2   0.246752 0.145238 0.433857 -0.116513
C12   C     C_R   0.667218 0.396001 0.800939 -0.124732
C13   C     C_2   0.753245 0.145237 0.566141 -0.116537
C14   C     C_2   0.732533 0.666357 0.501265 -0.171547
C15   C     C_2   0.267468 0.666356 0.498737 -0.171523
C16   C     C_2   0.232532 0.166360 0.501266 -0.171596
C17   C     C_2   0.767467 0.166359 0.498734 -0.171560
C18   C     C_2   0.288757 0.197231 0.421282 -0.103320
C19   C     C_2   0.711241 0.197230 0.578715 -0.103314
C20   C     C_2   0.788759 0.697230 0.421284 -0.103311
C21   C     C_2   0.211241 0.697230 0.578717 -0.103306
C22   C     C_2   0.342300 0.235017 0.509634 -0.193431
C23   C     C_R   0.832782 0.896001 0.199060 -0.124732
C24   C     C_2   0.657699 0.235017 0.490364 -0.193429
C25   C     C_2   0.842301 0.735017 0.509635 -0.193429
C26   C     C_2   0.157699 0.735017 0.490365 -0.193424
C27   C     C_2   0.694285 0.351087 0.980240 -0.206354
C28   C     C_2   0.305714 0.351088 0.019758 -0.206354
C29   C     C_2   0.194285 0.851088 0.980241 -0.206355
C30   C     C_2   0.805714 0.851089 0.019758 -0.206355
C31   C     C_2   0.763299 0.347271 0.037391 -0.108436
C32   C     C_2   0.236701 0.347272 0.962608 -0.108437
C33   C     C_2   0.263299 0.847271 0.037390 -0.108437
C34   C     C_R   0.167218 0.896001 0.800939 -0.124733
C35   C     C_2   0.736700 0.847273 0.962608 -0.108437
C36   C     C_2   0.355939 0.754623 0.146108 -0.215166
C37   C     C_2   0.644060 0.754625 0.853888 -0.215170
C38   C     C_2   0.855940 0.254624 0.146112 -0.215162
C39   C     C_2   0.144062 0.254622 0.853894 -0.215163
C40   C     C_R   0.588988 0.358649 0.406659 -0.002914
C41   C     C_R   0.411011 0.358649 0.593340 -0.002916
C42   C     C_R   0.088988 0.858648 0.406659 -0.002912
C43   C     C_R   0.911012 0.858649 0.593340 -0.002913
C44   C     C_2   0.303599 0.794091 0.130567 -0.105368
C45   C     C_R   0.389301 0.610063 0.593268 0.186763
C46   C     C_2   0.696399 0.794093 0.869430 -0.105366
C47   C     C_2   0.803599 0.294091 0.130568 -0.105368
C48   C     C_2   0.196400 0.294091 0.869433 -0.105369
C49   C     C_R   0.658907 0.354739 0.590333 -0.113514
C50   C     C_R   0.341092 0.354739 0.409666 -0.113517
C51   C     C_R   0.158907 0.854739 0.590333 -0.113512
C52   C     C_R   0.841093 0.854739 0.409667 -0.113513
C53   C     C_R   0.578950 0.395521 0.804718 -0.160703
C54   C     C_R   0.421050 0.395521 0.195281 -0.160709
C55   C     C_R   0.078950 0.895521 0.804719 -0.160711
C56   C     C_R   0.610698 0.610066 0.406732 0.186772
C57   C     C_R   0.921049 0.895522 0.195281 -0.160715
C58   C     C_R   0.351541 0.377005 0.134713 0.129913
C59   C     C_R   0.648458 0.377004 0.865286 0.129909
C60   C     C_R   0.851541 0.877005 0.134712 0.129916
C61   C     C_R   0.148458 0.877005 0.865287 0.129915
C62   C     C_R   0.634966 0.311699 0.496800 0.033726
C63   C     C_R   0.365033 0.311699 0.503199 0.033724
C64   C     C_R   0.134966 0.811699 0.496801 0.033725
C65   C     C_R   0.865033 0.811699 0.503199 0.033726
C66   C     C_R   0.315550 0.610743 0.409811 -0.204066
C67   C     C_R   0.889302 0.110068 0.593267 0.186769
C68   C     C_R   0.684449 0.610744 0.590189 -0.204070
C69   C     C_R   0.815551 0.110744 0.409811 -0.204069
C70   C     C_R   0.184449 0.110745 0.590189 -0.204061
C71   C     C_R   0.439919 0.641883 0.240749 -0.148496
C72   C     C_R   0.560080 0.641884 0.759248 -0.148499
C73   C     C_R   0.939920 0.141884 0.240752 -0.148489
C74   C     C_R   0.060082 0.141882 0.759253 -0.148495
C75   C     C_R   0.651343 0.638793 0.759492 -0.109258
C76   C     C_R   0.348656 0.638793 0.240507 -0.109259
C77   C     C_R   0.151344 0.138792 0.759494 -0.109259
C78   C     C_R   0.110698 0.110068 0.406732 0.186749
C79   C     C_R   0.848657 0.138793 0.240508 -0.109259
C80   C     C_2   0.570695 0.349112 0.297119 0.430294
C81   C     C_2   0.429304 0.349113 0.702880 0.430291
C82   C     C_2   0.070693 0.849109 0.297119 0.430294
C83   C     C_2   0.929305 0.849112 0.702880 0.430294
C84   C     C_3   0.414544 0.667401 0.760259 -0.967033
C85   C     C_3   0.585469 0.667412 0.239753 -0.967174
C86   C     C_3   0.914524 0.167418 0.760241 -0.967205
C87   C     C_3   0.085487 0.167418 0.239766 -0.967122
C88   C     C_R   0.322622 0.631557 0.502093 0.070312
H1    H     H_    0.280548 0.400156 0.173177 0.083266
H2    H     H_    0.731739 0.213358 0.661657 0.124944
H3    H     H_    0.768261 0.713357 0.338342 0.124942
H4    H     H_    0.231738 0.713358 0.661658 0.124936
H5    H     H_    0.363793 0.213501 0.591056 0.121631
H6    H     H_    0.636207 0.213502 0.408942 0.121630
H7    H     H_    0.863793 0.713502 0.591057 0.121629
H8    H     H_    0.136208 0.713502 0.408943 0.121628
H9    H     H_    0.282950 0.777519 0.172704 0.129716
H10   H     H_    0.717049 0.777520 0.827294 0.129715
H11   H     H_    0.782949 0.277519 0.172703 0.129715
H12   H     H_    0.719452 0.400156 0.826822 0.083266
H13   H     H_    0.217049 0.277520 0.827295 0.129715
H14   H     H_    0.787927 0.371242 0.004648 0.125648
H15   H     H_    0.212073 0.371244 0.995350 0.125648
H16   H     H_    0.287927 0.871242 0.004648 0.125647
H17   H     H_    0.712073 0.871244 0.995351 0.125647
H18   H     H_    0.376004 0.771469 0.103078 0.131582
H19   H     H_    0.623993 0.771471 0.896918 0.131582
H20   H     H_    0.876007 0.271471 0.103082 0.131581
H21   H     H_    0.123997 0.271468 0.896926 0.131582
H22   H     H_    0.670234 0.326156 0.013626 0.136369
H23   H     H_    0.780548 0.900156 0.173177 0.083265
H24   H     H_    0.329765 0.326156 0.986373 0.136369
H25   H     H_    0.170234 0.826157 0.013626 0.136370
H26   H     H_    0.829765 0.826158 0.986372 0.136370
H27   H     H_    0.696576 0.336491 0.675037 0.101254
H28   H     H_    0.303424 0.336491 0.324962 0.101255
H29   H     H_    0.196576 0.836491 0.675038 0.101253
H30   H     H_    0.803424 0.836490 0.324962 0.101254
H31   H     H_    0.553512 0.402693 0.840806 0.161465
H32   H     H_    0.446488 0.402694 0.159194 0.161463
H33   H     H_    0.053512 0.902694 0.840806 0.161462
H34   H     H_    0.219452 0.900156 0.826822 0.083265
H35   H     H_    0.946487 0.902695 0.159193 0.161462
H36   H     H_    0.267238 0.609797 0.326079 0.114201
H37   H     H_    0.732761 0.609798 0.673922 0.114202
H38   H     H_    0.767239 0.109798 0.326078 0.114201
H39   H     H_    0.232761 0.109799 0.673922 0.114199
H40   H     H_    0.475270 0.660190 0.226662 0.146611
H41   H     H_    0.524727 0.660192 0.773331 0.146607
H42   H     H_    0.975273 0.160193 0.226669 0.146598
H43   H     H_    0.024732 0.160188 0.773341 0.146611
H44   H     H_    0.699749 0.651525 0.774907 0.089260
H45   H     H_    0.759281 0.714927 0.557820 0.138496
H46   H     H_    0.300251 0.651523 0.225093 0.089260
H47   H     H_    0.199750 0.151523 0.774909 0.089259
H48   H     H_    0.800251 0.151524 0.225093 0.089259
H49   H     H_    0.720206 0.596696 0.377597 0.142240
H50   H     H_    0.279793 0.596697 0.622405 0.142218
H51   H     H_    0.220202 0.096698 0.377594 0.142260
H52   H     H_    0.779796 0.096698 0.622404 0.142249
H53   H     H_    0.560896 0.291888 0.260859 0.004800
H54   H     H_    0.439099 0.291889 0.739139 0.004799
H55   H     H_    0.060892 0.791885 0.260858 0.004803
H56   H     H_    0.240721 0.714926 0.442183 0.138495
H57   H     H_    0.939103 0.791888 0.739140 0.004802
H58   H     H_    0.395143 0.549221 0.714624 0.220064
H59   H     H_    0.466004 0.669977 0.843770 0.254746
H60   H     H_    0.374567 0.663291 0.772212 0.252235
H61   H     H_    0.406826 0.722124 0.715657 0.260274
H62   H     H_    0.604827 0.549223 0.285348 0.220087
H63   H     H_    0.534007 0.670021 0.156261 0.254757
H64   H     H_    0.625426 0.663276 0.227766 0.252254
H65   H     H_    0.593225 0.722125 0.284382 0.260323
H66   H     H_    0.895184 0.049225 0.714662 0.220095
H67   H     H_    0.259281 0.214930 0.557821 0.138498
H68   H     H_    0.965990 0.170045 0.843723 0.254759
H69   H     H_    0.874578 0.163267 0.772248 0.252258
H70   H     H_    0.906746 0.222127 0.715595 0.260340
H71   H     H_    0.104800 0.049221 0.285326 0.220097
H72   H     H_    0.034007 0.170076 0.156300 0.254737
H73   H     H_    0.125413 0.163236 0.227713 0.252237
H74   H     H_    0.093309 0.222129 0.284447 0.260341
H75   H     H_    0.740719 0.214928 0.442179 0.138496
H76   H     H_    0.268258 0.213359 0.338340 0.124948
N1    N     N_R   0.389060 0.424180 0.294540 -0.046331
N2    N     N_R   0.374530 0.423490 0.443400 -0.054852
N3    N     N_R   0.125470 0.923490 0.556600 -0.054851
N4    N     N_R   0.874530 0.923490 0.443400 -0.054851
N5    N     N_R   0.555250 0.423100 0.705420 -0.044665
N6    N     N_R   0.444750 0.423100 0.294580 -0.044666
N7    N     N_R   0.055250 0.923100 0.705420 -0.044665
N8    N     N_R   0.944750 0.923100 0.294580 -0.044667
N9    N     N_R   0.375210 0.577180 0.443400 -0.053351
N10   N     N_R   0.624790 0.577180 0.556600 -0.053351
N11   N     N_R   0.875210 0.077180 0.443400 -0.053349
N12   N     N_R   0.610940 0.424180 0.705460 -0.046331
N13   N     N_R   0.124790 0.077180 0.556600 -0.053349
N14   N     N_R   0.445430 0.577570 0.294580 -0.039876
N15   N     N_R   0.554570 0.577570 0.705420 -0.039872
N16   N     N_R   0.945430 0.077570 0.294580 -0.039879
N17   N     N_R   0.054570 0.077570 0.705420 -0.039877
N18   N     N_R   0.611620 0.576500 0.705460 -0.044797
N19   N     N_R   0.388380 0.576500 0.294540 -0.044797
N20   N     N_R   0.111620 0.076500 0.705460 -0.044796
N21   N     N_R   0.888380 0.076500 0.294540 -0.044796
N22   N     N_R   0.421010 0.576890 0.556640 -0.068678
N23   N     N_R   0.889060 0.924180 0.294540 -0.046330
N24   N     N_R   0.578990 0.576890 0.443360 -0.068683
N25   N     N_R   0.921010 0.076890 0.556640 -0.068684
N26   N     N_R   0.078990 0.076890 0.443360 -0.068685
N27   N     N_2   0.412212 0.599500 0.702388 -0.112200
N28   N     N_2   0.587783 0.599512 0.297609 -0.112218
N29   N     N_2   0.912219 0.099518 0.702393 -0.112226
N30   N     N_2   0.087779 0.099522 0.297606 -0.112240
N31   N     N_R   0.110940 0.924180 0.705460 -0.046330
N32   N     N_R   0.579670 0.423790 0.443360 -0.049489
N33   N     N_R   0.420330 0.423790 0.556640 -0.049486
N34   N     N_R   0.079670 0.923790 0.443360 -0.049491
N35   N     N_R   0.920330 0.923790 0.556640 -0.049489
N36   N     N_R   0.625470 0.423490 0.556600 -0.054852
Ni1   Ni    Ni4+2 0.383200 0.500680 0.370150 0.202414
Ni2   Ni    Ni4+2 0.616800 0.500680 0.629850 0.202415
Ni3   Ni    Ni4+2 0.883200 0.000680 0.370150 0.202416
Ni4   Ni    Ni4+2 0.116800 0.000680 0.629850 0.202416
Ni5   Ni    Ni4+2 0.512440 0.500680 0.370150 0.253507
Ni6   Ni    Ni4+2 0.487560 0.500680 0.629850 0.253519
Ni7   Ni    Ni4+2 0.012440 0.000680 0.370150 0.253496
Ni8   Ni    Ni4+2 0.987560 0.000680 0.629850 0.253505
O1    O     O_2   0.569541 0.405376 0.248172 -0.612171
O2    O     O_2   0.430459 0.405379 0.751828 -0.612163
O3    O     O_2   0.069541 0.905372 0.248171 -0.612180
O4    O     O_2   0.930459 0.905377 0.751828 -0.612174

loop_
_geom_bond_atom_site_label_1
_geom_bond_atom_site_label_2
_ccdc_geom_bond_type
C34   N31   A    
C70   H39   S    
H71   N30   S    
C21   C26   D    
C56   N28   S    
C11   C18   S    
N20   Ni4   S    
N4    N35   A    
C54   H32   S    
C33   H16   S    
C43   C83   S    
C54   N6    A    
C51   N3    A    
C42   C82   S    
N32   N36   A    
C55   H33   S    
C53   C59   A    
C47   H11   S    
C6    C75   A    
C7    C73   A    
C74   N17   A    
C28   H24   S    
C85   N28   S    
C6    C72   A    
C79   H48   S    
C30   C35   D    
C71   N14   A    
C3    C69   A    
C31   H14   S    
C37   H19   S    
C2    C68   A    
C10   C15   D    
C86   N29   S    
C66   C88   A    
C45   N22   A    
N17   N20   A    
C20   C25   D    
N8    N23   A    
C5    C36   S    
N23   Ni3   S    
N10   Ni2   S    
C77   N20   A    
C40   C62   A    
C87   H72   S    
C84   N27   S    
N9    Ni1   S    
C11   C16   D    
C55   N7    A    
N32   Ni5   S    
C11   H51   S    
C86   H68   S    
C29   C33   D    
C17   H75   S    
N10   N24   A    
C22   C63   S    
C83   H57   S    
C12   C59   A    
C9    H49   S    
N3    N34   A    
C56   N24   A    
C27   H22   S    
C6    C37   S    
C78   N26   A    
C50   N2    A    
C24   C62   S    
C40   C80   S    
C66   N9    A    
C49   C62   A    
C8    C39   S    
C76   N19   A    
C26   C64   S    
C83   O4    D    
C53   N5    A    
C12   N12   A    
N15   N18   A    
C84   H61   S    
C81   O2    D    
C46   H10   S    
N15   Ni6   S    
C34   H34   S    
N18   Ni2   S    
C74   H43   S    
C42   N34   A    
C50   C63   A    
C32   C48   S    
N33   Ni6   S    
C18   H76   S    
C2    C14   S    
C4    C70   A    
C7    C38   S    
C45   N27   S    
C84   H60   S    
C10   C21   S    
C26   H8    S    
C23   C60   A    
N24   Ni5   S    
C20   H3    S    
C29   C61   S    
N9    N22   A    
C32   H15   S    
C12   H12   S    
N22   Ni6   S    
C27   C31   D    
N19   Ni1   S    
C13   H52   S    
N12   Ni2   S    
C28   C32   D    
C45   C88   A    
C25   C65   S    
N6    Ni5   S    
C41   N33   A    
N5    Ni6   S    
C13   C19   S    
C57   C60   A    
N31   Ni4   S    
C36   H18   S    
C34   C61   A    
C30   C60   S    
N2    Ni1   S    
C4    C16   S    
C9    C14   D    
C85   H63   S    
C4    C78   A    
C35   H17   S    
C24   H6    S    
C57   H35   S    
C68   N10   A    
C44   H9    S    
C30   H26   S    
C9    C20   S    
C1    N1    A    
C43   C65   A    
C41   C81   S    
N17   Ni8   S    
C16   H67   S    
C8    C74   A    
N13   Ni4   S    
C85   H65   S    
N3    Ni4   S    
C86   H70   S    
C38   C47   D    
N7    N31   A    
C81   H54   S    
C49   H27   S    
C69   H38   S    
C25   H7    S    
C78   N30   S    
C8    C77   A    
C22   H5    S    
C66   H36   S    
H58   N27   S    
C36   C44   D    
C41   C63   A    
N16   Ni7   S    
C42   C64   A    
C53   H31   S    
C76   H46   S    
C77   H47   S    
C75   H44   S    
C7    C79   A    
C82   O3    D    
C54   C58   A    
C84   H59   S    
C72   H41   S    
N1    N6    A    
H66   N29   S    
C29   H25   S    
C73   H42   S    
C1    H1    S    
N13   N26   A    
C79   N21   A    
C87   H73   S    
N34   Ni7   S    
C18   C22   D    
C33   C44   S    
N8    Ni7   S    
C3    C67   A    
C51   C64   A    
N14   N19   A    
C87   N30   S    
N1    Ni1   S    
C82   H55   S    
C39   C48   D    
N11   N25   A    
C43   N35   A    
C67   N25   A    
C70   N13   A    
C40   N32   A    
C14   H45   S    
C28   C58   S    
C23   H23   S    
N4    Ni3   S    
C13   C17   D    
C69   N11   A    
N21   Ni3   S    
C5    C76   A    
C19   C24   D    
N7    Ni8   S    
C85   H64   S    
N11   Ni3   S    
C5    C71   A    
C19   H2    S    
C27   C59   S    
C1    C58   A    
C52   N4    A    
C23   N23   A    
C75   N18   A    
N25   Ni8   S    
C57   N8    A    
C48   H13   S    
C55   C61   A    
N35   Ni8   S    
C51   H29   S    
N5    N12   A    
C3    C17   S    
C50   H28   S    
C38   H20   S    
C71   H40   S    
C86   H69   S    
N14   Ni5   S    
N2    N33   A    
N16   N21   A    
H62   N28   S    
C15   H56   S    
C31   C47   S    
N26   Ni7   S    
C39   H21   S    
C87   H74   S    
N36   Ni2   S    
C80   H53   S    
C15   C88   S    
C2    C56   A    
C10   H50   S    
C72   N15   A    
C37   C46   D    
C67   N29   S    
C35   C46   S    
C68   H37   S    
C49   N36   A    
C52   C65   A    
C52   H30   S    
C80   O1    D    
C21   H4    S    
C73   N16   A    
