data_mof_unit_41211.cif
_audit_creation_date              2012-12-10T20:35:51-0500
_audit_creation_method            fapswitch 2.2
_symmetry_space_group_name_H-M    P1
_symmetry_Int_Tables_number       1
_space_group_crystal_system       triclinic
_cell_length_a                    15.766615
_cell_length_b                    10.720858
_cell_length_c                    9.901904
_cell_angle_alpha                 89.416242
_cell_angle_beta                  92.365387
_cell_angle_gamma                 90.910141
_cell_volume                      1672.0218549

loop_
_atom_site_label
_atom_site_type_symbol
_atom_type_description
_atom_site_fract_x
_atom_site_fract_y
_atom_site_fract_z
_atom_type_partial_charge
C1    C     C_R   0.500608 0.259930 0.500320 0.920996
C2    C     C_R   0.512282 0.128648 0.497676 -0.130328
C3    C     C_R   0.506844 0.067669 0.373092 -0.209637
C4    C     C_R   0.338256 0.499800 0.497692 0.916849
C5    C     C_R   0.517069 0.939722 0.367452 -0.066808
C6    C     C_R   0.526716 0.871610 0.491473 -0.172015
C7    C     C_R   0.552333 0.937769 0.607197 0.114928
C8    C     C_3   0.542433 0.923176 0.756360 -0.346541
C9    C     C_3   0.525743 0.064389 0.757512 -0.325389
C10   C     C_R   0.429536 0.461828 0.066756 0.065993
C11   C     C_R   0.567297 0.545259 0.076617 -0.036995
C12   C     C_3   0.955260 0.424365 0.629038 0.171679
C13   C     C_R   0.567036 0.547996 0.933647 0.429000
C14   C     C_R   0.429743 0.461585 0.924195 0.202674
C15   C     C_3   0.389405 0.335575 0.915637 0.167975
C16   C     C_R   0.507458 0.739854 0.498682 0.872487
C17   C     C_3   0.388496 0.335256 0.070053 -0.339484
C18   C     C_R   0.661576 0.500608 0.502607 0.911069
C19   C     C_3   0.052833 0.415081 0.615517 -0.506155
C20   C     C_3   0.040529 0.443030 0.354676 0.250003
C21   C     C_3   0.941208 0.427965 0.372228 0.708479
C22   C     C_1   0.750328 0.501008 0.508808 -0.066106
C23   C     C_3   0.916723 0.498308 0.504508 0.033511
C24   C     C_3   0.081842 0.494525 0.492531 0.009391
C25   C     C_2   0.517017 0.884508 0.231081 1.028712
C26   C     C_2   0.624687 0.884201 0.827366 0.991478
C27   C     C_2   0.586637 0.143974 0.843187 0.988884
C28   C     C_2   0.301808 0.337778 0.127466 1.042015
C29   C     C_2   0.077355 0.319483 0.309756 0.915208
C30   C     C_3   0.953868 0.634390 0.510856 0.198957
C31   C     C_3   0.051945 0.630328 0.512341 -0.447199
C32   C     C_1   0.825503 0.500529 0.510441 0.151021
C33   C     C_1   0.173790 0.496676 0.492113 0.016045
C34   C     C_1   0.249174 0.498368 0.493117 -0.090694
C35   C     C_R   0.543510 0.063910 0.610399 0.094737
H1    H     H_    0.928283 0.327881 0.629942 0.232243
H2    H     H_    0.078123 0.666410 0.610851 0.167803
H3    H     H_    0.076982 0.693684 0.433100 0.239643
H4    H     H_    0.934496 0.678241 0.606252 0.144052
H5    H     H_    0.972973 0.547912 0.774274 0.353751
H6    H     H_    0.936884 0.796667 0.425773 0.361624
H7    H     H_    0.461586 0.874292 0.044163 0.346418
H8    H     H_    0.746639 0.832902 0.813010 0.369872
H9    H     H_    0.620684 0.204051 0.030344 0.350695
H10   H     H_    0.615382 0.637473 0.788738 0.370366
H11   H     H_    0.288320 0.252886 0.843812 0.339346
H12   H     H_    0.087324 0.446433 0.709846 0.241239
H13   H     H_    0.185939 0.413687 0.119675 0.351807
H14   H     H_    0.116404 0.549016 0.247622 0.334524
H15   H     H_    0.081377 0.191786 0.161827 0.362307
H16   H     H_    0.908643 0.262107 0.300312 0.400788
H17   H     H_    0.907753 0.559604 0.237857 0.425126
H18   H     H_    0.493602 0.118705 0.279795 0.206503
H19   H     H_    0.486480 0.864800 0.782637 0.154171
H20   H     H_    0.458036 0.084315 0.773659 0.138362
H21   H     H_    0.622020 0.581017 0.134139 0.222598
H22   H     H_    0.069602 0.315738 0.603448 0.230506
H23   H     H_    0.431670 0.265991 0.873107 0.106702
H24   H     H_    0.430710 0.263680 0.117526 0.158312
N1    N     N_R   0.499430 0.499140 0.142800 -0.165292
N2    N     N_R   0.499430 0.499180 0.857150 -0.210001
O1    O     O_R   0.500010 0.316790 0.614690 -0.615656
O2    O     O_3   0.922212 0.708694 0.403132 -0.734006
O3    O     O_2   0.573908 0.814658 0.202410 -0.566797
O4    O     O_R   0.454550 0.917548 0.133466 -0.790521
O5    O     O_2   0.628931 0.876368 0.950473 -0.543949
O6    O     O_R   0.695856 0.857867 0.753205 -0.781400
O7    O     O_2   0.642197 0.206923 0.791368 -0.574540
O8    O     O_R   0.577744 0.146329 0.982969 -0.796793
O9    O     O_3   0.636349 0.600204 0.874794 -0.703019
O10   O     O_3   0.309139 0.340556 0.849526 -0.687389
O11   O     O_2   0.281968 0.259537 0.211527 -0.606711
O12   O     O_R   0.500000 0.316760 0.385350 -0.626565
O13   O     O_R   0.244127 0.428611 0.083379 -0.747545
O14   O     O_3   0.054635 0.530862 0.250272 -0.737367
O15   O     O_2   0.126779 0.260335 0.383032 -0.609493
O16   O     O_R   0.053352 0.273662 0.181798 -0.742314
O17   O     O_3   0.919167 0.300496 0.390419 -0.817036
O18   O     O_3   0.893655 0.471374 0.256742 -0.682166
O19   O     O_R   0.377150 0.500020 0.614720 -0.575012
O20   O     O_R   0.377140 0.499990 0.385380 -0.613145
O21   O     O_R   0.500000 0.683240 0.614650 -0.656802
O22   O     O_R   0.499990 0.683210 0.385310 -0.599375
O23   O     O_R   0.622860 0.500010 0.614620 -0.590715
O24   O     O_R   0.622850 0.499980 0.385280 -0.613283
O25   O     O_3   0.933747 0.476981 0.752935 -0.692658
Zn1   Zn    Zn3+2 0.500010 0.500020 0.653130 1.003973
Zn2   Zn    Zn3+2 0.499990 0.499980 0.346870 1.002078

loop_
_geom_bond_atom_site_label_1
_geom_bond_atom_site_label_2
_ccdc_geom_bond_type
C2    C35   A    
C8    C26   S    
O23   Zn1   S    
C28   O13   S    
C1    O1    A    
N1    Zn2   S    
C7    C8    S    
C29   O15   D    
C19   H22   S    
C12   C23   S    
C22   C32   T    
C26   O6    S    
C4    O19   A    
O19   Zn1   S    
C5    C6    A    
C19   H12   S    
C13   O9    S    
C10   C17   S    
O21   Zn1   S    
C11   C13   A    
C1    C2    S    
H5    O25   S    
C27   O7    D    
N2    Zn1   S    
C4    O20   A    
C20   C24   S    
C8    C9    S    
C21   O17   S    
H7    O4    S    
C18   O23   A    
H14   O14   S    
C9    H20   S    
C12   H1    S    
H17   O18   S    
C27   O8    S    
O22   Zn2   S    
C30   O2    S    
C28   O11   D    
C20   C29   S    
C4    C34   S    
C18   O24   A    
C26   O5    D    
C23   C30   S    
H13   O13   S    
C25   O4    S    
C10   C14   A    
C8    H19   S    
C14   N2    A    
C16   O22   A    
C31   H2    S    
C20   O14   S    
C25   O3    D    
C10   N1    A    
O12   Zn2   S    
C21   O18   S    
C16   O21   A    
C33   C34   T    
C13   N2    A    
H9    O8    S    
H11   O10   S    
C17   H24   S    
C5    C25   S    
C21   C23   S    
C15   H23   S    
H6    O2    S    
C11   N1    A    
H15   O16   S    
C9    C27   S    
O24   Zn2   S    
C15   C17   S    
H10   O9    S    
C18   C22   S    
C17   C28   S    
C7    C35   A    
C3    C5    A    
C6    C7    A    
C15   O10   S    
O1    Zn1   S    
C24   C33   S    
C31   H3    S    
C12   O25   S    
C1    O12   A    
C23   C32   S    
C19   C24   S    
H16   O17   S    
C3    H18   S    
C30   C31   S    
C12   C19   S    
C30   H4    S    
C2    C3    A    
C24   C31   S    
O20   Zn2   S    
C6    C16   S    
C29   O16   S    
C20   C21   S    
H8    O6    S    
C9    C35   S    
C14   C15   S    
C11   H21   S    
