data_mof_unit_51675.cif
_audit_creation_date              2012-12-10T17:37:22-0500
_audit_creation_method            fapswitch 2.2
_symmetry_space_group_name_H-M    P1
_symmetry_Int_Tables_number       1
_space_group_crystal_system       triclinic
_cell_length_a                    12.07071
_cell_length_b                    12.913425
_cell_length_c                    17.0672
_cell_angle_alpha                 91.868398
_cell_angle_beta                  81.590871
_cell_angle_gamma                 92.641967
_cell_volume                      2628.03727135

loop_
_atom_site_label
_atom_site_type_symbol
_atom_type_description
_atom_site_fract_x
_atom_site_fract_y
_atom_site_fract_z
_atom_type_partial_charge
C1    C     C_R   0.521604 0.700162 0.498593 0.928521
C2    C     C_R   0.560239 0.132290 0.504348 -0.131833
C3    C     C_R   0.446452 0.974702 0.499292 -0.012780
C4    C     C_R   0.553246 0.025351 0.502289 -0.013115
C5    C     C_R   0.970554 0.416564 0.417314 -0.243538
C6    C     C_R   0.029448 0.583474 0.582666 -0.254050
C7    C     C_R   0.853419 0.421506 0.424344 0.556840
C8    C     C_R   0.146576 0.578485 0.575661 0.562130
C9    C     C_R   0.851642 0.533505 0.537748 -0.064212
C10   C     C_R   0.148361 0.466531 0.462233 -0.063855
C11   C     C_R   0.970058 0.529625 0.530296 0.002931
C12   C     C_R   0.478385 0.299845 0.501494 0.929219
C13   C     C_R   0.029946 0.470419 0.469682 0.000790
C14   C     C_R   0.485587 0.501341 0.652887 0.916087
C15   C     C_R   0.514427 0.498753 0.347109 0.921025
C16   C     C_R   0.482614 0.497148 0.737528 -0.088187
C17   C     C_R   0.517488 0.503515 0.262483 -0.092139
C18   C     C_R   0.578707 0.533009 0.768965 -0.236482
C19   C     C_R   0.421289 0.468326 0.230893 -0.231413
C20   C     C_R   0.590282 0.513674 0.846457 0.466258
C21   C     C_R   0.409937 0.488208 0.153455 0.465214
C22   C     C_R   0.500417 0.462894 0.894291 -0.023520
C23   C     C_R   0.465562 0.188756 0.502237 -0.137735
C24   C     C_R   0.500092 0.538857 0.105813 -0.024768
C25   C     C_R   0.404227 0.427055 0.863165 -0.135798
C26   C     C_R   0.596348 0.574104 0.137099 -0.133296
C27   C     C_R   0.395583 0.443433 0.784391 -0.130159
C28   C     C_R   0.604784 0.557192 0.215831 -0.126376
C29   C     C_2   0.499102 0.457058 0.978581 -0.061450
C30   C     C_2   0.501705 0.544801 0.021501 -0.059674
C31   C     C_R   0.534336 0.811277 0.498412 -0.138446
C32   C     C_R   0.650276 0.967643 0.502769 0.401345
C33   C     C_R   0.349441 0.032396 0.498722 0.398006
C34   C     C_R   0.639071 0.860421 0.500931 -0.266758
C35   C     C_R   0.360805 0.139602 0.499835 -0.269079
C36   C     C_R   0.439545 0.867772 0.496832 -0.130376
H1    H     H_    0.646904 0.573105 0.731920 0.200151
H2    H     H_    0.665329 0.613292 0.100186 0.213977
H3    H     H_    0.639697 0.172912 0.507191 0.239078
H4    H     H_    0.360140 0.827173 0.493741 0.239372
H5    H     H_    0.288095 0.185065 0.498258 0.202626
H6    H     H_    0.711924 0.814922 0.501847 0.201865
H7    H     H_    0.193924 0.420173 0.415293 0.164457
H8    H     H_    0.806081 0.579876 0.584681 0.158032
H9    H     H_    0.141525 0.755118 0.747610 0.401901
H10   H     H_    0.858496 0.244681 0.252519 0.403725
H11   H     H_    0.108771 0.428156 0.175745 0.411044
H12   H     H_    0.352872 0.428285 0.267768 0.202960
H13   H     H_    0.891275 0.574791 0.823694 0.410265
H14   H     H_    0.874916 0.911134 0.559459 0.369666
H15   H     H_    0.101048 0.089238 0.553833 0.370045
H16   H     H_    0.016920 0.372879 0.369113 0.223665
H17   H     H_    0.983079 0.627169 0.630861 0.218306
H18   H     H_    0.677195 0.588522 0.240669 0.200449
H19   H     H_    0.323257 0.411634 0.759681 0.196723
H20   H     H_    0.511518 0.620109 0.994124 0.191780
H21   H     H_    0.489205 0.381771 0.005999 0.191180
H22   H     H_    0.335481 0.387749 0.900221 0.213088
N1    N     N_R   0.206400 0.519440 0.514690 -0.173307
N2    N     N_R   0.793600 0.480560 0.485310 -0.171124
O1    O     O_R   0.421320 0.658850 0.503920 -0.579889
O2    O     O_2   0.314213 0.695650 0.635691 -0.272456
O3    O     O_3   0.113549 0.732409 0.697799 -0.528355
O4    O     O_2   0.685744 0.304280 0.364372 -0.272123
O5    O     O_2   0.791735 0.436913 0.281442 -0.317253
O6    O     O_3   0.886402 0.267396 0.302354 -0.514425
O7    O     O_2   0.256051 0.526423 0.059367 -0.266003
O8    O     O_2   0.286432 0.344626 0.084602 -0.298998
O9    O     O_3   0.176660 0.454382 0.197623 -0.538013
O10   O     O_2   0.713429 0.658032 0.914844 -0.301486
O11   O     O_2   0.744657 0.476525 0.940429 -0.266549
O12   O     O_R   0.578680 0.341150 0.496080 -0.580394
O13   O     O_3   0.823402 0.548223 0.801952 -0.543757
O14   O     O_2   0.818721 0.091431 0.434018 -0.186835
O15   O     O_2   0.786342 0.092475 0.578837 -0.308115
O16   O     O_3   0.882422 0.934414 0.504124 -0.457360
O17   O     O_2   0.213712 0.909639 0.421537 -0.226981
O18   O     O_2   0.181168 0.906563 0.566262 -0.261840
O19   O     O_3   0.117235 0.065612 0.497680 -0.456116
O20   O     O_R   0.609840 0.646370 0.494500 -0.642354
O21   O     O_R   0.390160 0.353630 0.505500 -0.643992
O22   O     O_R   0.394600 0.506990 0.621070 -0.549148
O23   O     O_R   0.605400 0.493010 0.378930 -0.547915
O24   O     O_R   0.583120 0.494520 0.611640 -0.645235
O25   O     O_R   0.416880 0.505480 0.388360 -0.643778
O26   O     O_2   0.208296 0.562877 0.718531 -0.318826
S1    S     S_3+6 0.201907 0.641889 0.656897 0.066336
S2    S     S_3+6 0.798072 0.357994 0.343153 0.069575
S3    S     S_3+6 0.280546 0.452518 0.120291 0.035813
S4    S     S_3+6 0.719669 0.550028 0.879387 0.031496
S5    S     S_3+6 0.786486 0.025209 0.505229 0.066731
S6    S     S_3+6 0.213261 0.974829 0.496144 0.069636
Zn1   Zn    Zn3+2 0.374120 0.508330 0.506290 1.034207
Zn2   Zn    Zn3+2 0.625880 0.491670 0.493710 1.035146

loop_
_geom_bond_atom_site_label_1
_geom_bond_atom_site_label_2
_ccdc_geom_bond_type
O17   S6    D    
C22   C29   S    
C34   H6    S    
C14   O24   A    
C21   S3    S    
C12   C23   S    
C19   C21   A    
C18   H1    S    
C24   C26   A    
O13   S4    S    
H10   O6    S    
C8    N1    A    
O6    S2    S    
C27   H19   S    
C32   S5    S    
C3    C33   A    
C1    C31   S    
C18   C20   A    
H11   O9    S    
C17   C19   A    
O25   Zn1   S    
C2    H3    S    
C22   C25   A    
C5    H16   S    
C5    C13   A    
O15   S5    D    
C15   O25   A    
O12   Zn2   S    
C16   C27   A    
C12   O12   A    
O22   Zn1   S    
O10   S4    D    
O9    S3    S    
H15   O19   S    
C36   H4    S    
C33   S6    S    
C6    C11   A    
C5    C7    A    
C28   H18   S    
C19   H12   S    
C26   H2    S    
C6    C8    A    
O18   S6    D    
O23   Zn2   S    
C20   S4    S    
H9    O3    S    
C32   C34   A    
O14   S5    D    
C2    C4    A    
C29   C30   D    
H14   O16   S    
O21   Zn1   S    
C7    S2    S    
O8    S3    D    
C31   C34   A    
O24   Zn2   S    
C9    C11   A    
O19   S6    S    
C4    C32   A    
C29   H21   S    
C23   C35   A    
H13   O13   S    
C25   H22   S    
C14   O22   A    
C6    H17   S    
O20   Zn2   S    
C3    C4    A    
C7    N2    A    
O5    S2    D    
C15   C17   S    
C9    H8    S    
O3    S1    S    
C10   H7    S    
O26   S1    D    
C17   C28   A    
C20   C22   A    
C10   C13   A    
C1    O1    A    
C15   O23   A    
C25   C27   A    
O2    S1    D    
C26   C28   A    
C8    S1    S    
C9    N2    A    
C10   N1    A    
C11   C13   A    
O11   S4    D    
C30   H20   S    
C3    C36   A    
C33   C35   A    
C12   O21   A    
C14   C16   S    
C35   H5    S    
C24   C30   S    
O16   S5    S    
C16   C18   A    
C21   C24   A    
C2    C23   A    
O7    S3    D    
C31   C36   A    
C1    O20   A    
N1    Zn1   S    
O1    Zn1   S    
O4    S2    D    
N2    Zn2   S    
