data_mof_unit_54826.cif
_audit_creation_date              2012-12-11T15:39:31-0500
_audit_creation_method            fapswitch 2.2
_symmetry_space_group_name_H-M    P1
_symmetry_Int_Tables_number       1
_space_group_crystal_system       triclinic
_cell_length_a                    14.343143
_cell_length_b                    14.784423
_cell_length_c                    33.197852
_cell_angle_alpha                 97.524067
_cell_angle_beta                  90.318704
_cell_angle_gamma                 118.928565
_cell_volume                      6089.03621496

loop_
_atom_site_label
_atom_site_type_symbol
_atom_type_description
_atom_site_fract_x
_atom_site_fract_y
_atom_site_fract_z
_atom_type_partial_charge
C1    C     C_R   0.617486 0.909869 0.437115 0.540856
C2    C     C_R   0.712453 0.438203 0.949115 0.533019
C3    C     C_R   0.747898 0.816349 0.765058 -0.116827
C4    C     C_R   0.737004 0.835496 0.725924 -0.120710
C5    C     C_R   0.676179 0.752543 0.694809 0.029677
C6    C     C_R   0.628848 0.649257 0.703101 -0.111230
C7    C     C_R   0.639395 0.629844 0.742632 -0.113569
C8    C     C_R   0.698648 0.713576 0.773995 0.032494
C9    C     C_R   0.555021 0.757205 0.641062 0.005454
C10   C     C_R   0.544066 0.797469 0.606574 -0.119664
C11   C     C_R   0.735228 0.877500 0.599194 -0.014561
C12   C     C_3   0.503697 0.686910 0.393829 -0.382411
C13   C     C_R   0.743669 0.716501 0.945942 0.567577
C14   C     C_3   0.517987 0.656241 0.304283 -0.402029
C15   C     C_3   0.458029 0.699297 0.663985 -0.400947
C16   C     C_3   0.832919 0.939760 0.577445 -0.387250
C17   C     C_R   0.830873 0.443929 0.165902 -0.119234
C18   C     C_R   0.828444 0.455622 0.124964 -0.125591
C19   C     C_R   0.783143 0.361110 0.247377 -0.114824
C20   C     C_R   0.775947 0.348284 0.288262 -0.112226
C21   C     C_R   0.734395 0.399641 0.314817 0.032276
C22   C     C_R   0.705890 0.468629 0.300311 -0.115595
C23   C     C_R   0.712508 0.480931 0.259373 -0.113705
C24   C     C_R   0.748224 0.424854 0.232429 0.030667
C25   C     C_R   0.743508 0.428801 0.188496 0.032121
C26   C     C_R   0.607999 0.349025 0.369305 -0.119265
C27   C     C_R   0.594130 0.205749 0.456664 0.544204
C28   C     C_R   0.573231 0.301028 0.403772 -0.126932
C29   C     C_R   0.741184 0.301495 0.413225 -0.130364
C30   C     C_R   0.776095 0.349892 0.378838 -0.123311
C31   C     C_R   0.708130 0.370271 0.355690 0.033750
C32   C     C_R   0.637858 0.273077 0.425055 0.021942
C33   C     C_R   0.244769 0.878206 0.393435 0.019731
C34   C     C_R   0.233012 0.959680 0.380761 -0.127929
C35   C     C_R   0.208843 0.957179 0.339673 -0.114272
C36   C     C_R   0.746004 0.835839 0.633506 -0.113143
C37   C     C_R   0.195478 0.873075 0.310863 0.040312
C38   C     C_R   0.200145 0.788579 0.323490 -0.111385
C39   C     C_R   0.295630 0.892855 0.434401 0.543059
C40   C     C_R   0.224419 0.790894 0.364550 -0.125715
C41   C     C_R   0.194716 0.806962 0.163298 -0.112605
C42   C     C_R   0.167048 0.785765 0.121436 -0.125714
C43   C     C_R   0.089517 0.900277 0.129680 -0.128618
C44   C     C_R   0.116776 0.920906 0.171663 -0.114550
C45   C     C_R   0.165953 0.871265 0.188633 0.039673
C46   C     C_1   0.176940 0.876701 0.232030 -0.029776
C47   C     C_R   0.657412 0.777231 0.654866 0.026763
C48   C     C_1   0.184548 0.876299 0.268127 -0.029363
C49   C     C_R   0.109996 0.828598 0.104459 0.020291
C50   C     C_R   0.640108 0.879058 0.395505 0.020320
C51   C     C_R   0.613824 0.904613 0.551558 0.539710
C52   C     C_R   0.578779 0.777191 0.372716 0.008549
C53   C     C_R   0.587526 0.762092 0.329880 0.039456
C54   C     C_R   0.660069 0.848184 0.311451 0.043241
C55   C     C_R   0.727147 0.944065 0.335071 -0.137938
C56   C     C_R   0.717617 0.959396 0.376444 -0.144208
C57   C     C_R   0.776203 0.915464 0.174968 -0.114723
C58   C     C_R   0.632959 0.859453 0.585913 0.018733
C59   C     C_R   0.792580 0.904464 0.133616 -0.129021
C60   C     C_R   0.616069 0.751945 0.120645 -0.124901
C61   C     C_R   0.599859 0.763256 0.161920 -0.115453
C62   C     C_R   0.681409 0.842601 0.189239 0.040002
C63   C     C_R   0.589780 0.199593 0.570823 0.541581
C64   C     C_1   0.671748 0.843376 0.232101 -0.036276
C65   C     C_1   0.665475 0.843673 0.268148 -0.032171
C66   C     C_R   0.714425 0.819688 0.106422 0.022156
C67   C     C_R   0.623955 0.251829 0.613463 0.019557
C68   C     C_R   0.560170 0.285366 0.635744 -0.129519
C69   C     C_R   0.052033 0.781237 0.063811 0.544355
C70   C     C_R   0.577878 0.311879 0.678071 -0.117066
C71   C     C_R   0.659491 0.305404 0.698478 0.041157
C72   C     C_R   0.728089 0.279429 0.676378 -0.114687
C73   C     C_R   0.710815 0.253210 0.634038 -0.129931
C74   C     C_R   0.764736 0.350390 0.844525 -0.115661
C75   C     C_R   0.288793 0.886599 0.548424 0.542608
C76   C     C_R   0.773489 0.374424 0.886930 -0.128955
C77   C     C_R   0.594641 0.352718 0.884583 -0.126486
C78   C     C_R   0.586137 0.328675 0.842190 -0.113710
C79   C     C_R   0.672575 0.331200 0.822102 0.042112
C80   C     C_R   0.744037 0.487082 0.066310 0.546312
C81   C     C_1   0.669646 0.322198 0.778559 -0.032132
C82   C     C_1   0.666428 0.315859 0.742065 -0.032942
C83   C     C_R   0.690336 0.380535 0.907263 0.021612
C84   C     C_R   0.065138 0.751973 0.907732 0.022495
C85   C     C_R   0.101346 0.850320 0.895699 -0.142580
C86   C     C_R   0.118003 0.862177 0.854989 -0.127813
C87   C     C_R   0.738345 0.451871 0.106114 0.020699
C88   C     C_R   0.098831 0.775842 0.825945 0.032025
C89   C     C_R   0.069632 0.679315 0.838575 -0.117856
C90   C     C_R   0.053502 0.667605 0.879211 -0.120529
C91   C     C_R   0.742650 0.789178 0.066312 0.553314
C92   C     C_R   0.149928 0.735103 0.757322 -0.114467
C93   C     C_R   0.153796 0.741691 0.715983 -0.112111
C94   C     C_R   0.111774 0.797626 0.698864 0.032977
C95   C     C_R   0.064521 0.845846 0.723646 -0.111093
C96   C     C_R   0.060974 0.839523 0.765147 -0.109432
C97   C     C_R   0.104153 0.784475 0.782307 0.033133
C98   C     C_R   0.173875 0.917063 0.647056 -0.123680
C99   C     C_R   0.648466 0.429848 0.128204 -0.123740
C100  C     C_R   0.218557 0.939319 0.610076 -0.131691
C101  C     C_R   0.165593 0.756213 0.589866 -0.131714
C102  C     C_R   0.021539 0.732114 0.947364 0.532682
C103  C     C_R   0.120319 0.733920 0.626676 -0.125097
C104  C     C_R   0.129709 0.815156 0.656405 0.030873
C105  C     C_R   0.219962 0.859913 0.582281 0.020483
C106  C     C_R   0.728437 0.701698 0.901142 0.016573
C107  C     C_R   0.630325 0.633091 0.878658 -0.124810
C108  C     C_R   0.620776 0.631387 0.836344 -0.116148
C109  C     C_R   0.709606 0.697085 0.816390 0.033102
C110  C     C_R   0.808839 0.757954 0.838673 -0.114479
C111  C     C_R   0.651243 0.418812 0.169078 -0.120014
C112  C     C_R   0.817746 0.761022 0.880423 -0.122265
Cr1   Cr    Cr6+3 0.424820 0.846020 0.489780 1.002484
Cr2   Cr    Cr6+3 0.657880 0.078580 0.505700 1.002387
Cr3   Cr    Cr6+3 0.417280 0.075360 0.504550 1.007642
Cr4   Cr    Cr6+3 0.903360 0.812540 0.006510 1.004010
Cr5   Cr    Cr6+3 0.914630 0.587050 0.006280 1.004628
Cr6   Cr    Cr6+3 0.673560 0.582680 0.008540 1.009222
H1    H     H_    0.577717 0.426088 0.114516 0.129166
H2    H     H_    0.094139 0.970793 0.191069 0.105444
H3    H     H_    0.044769 0.933696 0.117594 0.123793
H4    H     H_    0.899049 0.472832 0.108743 0.128121
H5    H     H_    0.205020 0.022780 0.330187 0.106032
H6    H     H_    0.869274 0.957401 0.123590 0.119702
H7    H     H_    0.839609 0.977320 0.196060 0.103723
H8    H     H_    0.784099 0.009457 0.321055 0.110207
H9    H     H_    0.767165 0.037386 0.392996 0.136344
H10   H     H_    0.526078 0.706883 0.172791 0.102919
H11   H     H_    0.554338 0.686112 0.100344 0.120858
H12   H     H_    0.493393 0.280463 0.412291 0.125149
H13   H     H_    0.848366 0.395720 0.903405 0.123671
H14   H     H_    0.854360 0.367190 0.369308 0.100775
H15   H     H_    0.831886 0.352073 0.829154 0.103174
H16   H     H_    0.791684 0.274557 0.691998 0.105746
H17   H     H_    0.761354 0.227739 0.617807 0.126647
H18   H     H_    0.492893 0.285426 0.620803 0.123466
H19   H     H_    0.514289 0.313459 0.824986 0.103443
H20   H     H_    0.529316 0.357071 0.899201 0.125992
H21   H     H_    0.524747 0.332491 0.695013 0.099054
H22   H     H_    0.111080 0.916442 0.917318 0.116470
H23   H     H_    0.902619 0.451331 0.180363 0.104044
H24   H     H_    0.024499 0.590619 0.887648 0.124099
H25   H     H_    0.084454 0.654376 0.633054 0.105204
H26   H     H_    0.796941 0.293353 0.298472 0.101552
H27   H     H_    0.193533 0.706418 0.697704 0.100473
H28   H     H_    0.185091 0.693510 0.769938 0.100856
H29   H     H_    0.142700 0.937894 0.845998 0.104011
H30   H     H_    0.031765 0.889430 0.711006 0.098238
H31   H     H_    0.024471 0.877609 0.783729 0.091023
H32   H     H_    0.182237 0.981039 0.669599 0.102494
H33   H     H_    0.259266 0.019839 0.604740 0.126305
H34   H     H_    0.793331 0.282152 0.429420 0.120495
H35   H     H_    0.053556 0.611346 0.816707 0.102442
H36   H     H_    0.163659 0.693284 0.568453 0.125232
H37   H     H_    0.560648 0.584847 0.893850 0.122330
H38   H     H_    0.810636 0.317012 0.227026 0.103186
H39   H     H_    0.894521 0.813232 0.896877 0.137198
H40   H     H_    0.824536 0.851735 0.644587 0.110456
H41   H     H_    0.773320 0.915617 0.720175 0.105264
H42   H     H_    0.792695 0.882596 0.788716 0.102588
H43   H     H_    0.543275 0.583242 0.819702 0.100719
H44   H     H_    0.582850 0.584114 0.679190 0.105426
H45   H     H_    0.183826 0.730284 0.102797 0.123935
H46   H     H_    0.601760 0.549968 0.748688 0.102118
H47   H     H_    0.465546 0.783851 0.596698 0.134780
H48   H     H_    0.878995 0.807366 0.824067 0.104479
H49   H     H_    0.581994 0.404580 0.185804 0.104837
H50   H     H_    0.675140 0.510256 0.320319 0.101636
H51   H     H_    0.687318 0.532323 0.248506 0.108326
H52   H     H_    0.553483 0.362954 0.351822 0.100491
H53   H     H_    0.539734 0.693518 0.424506 0.133573
H54   H     H_    0.426567 0.686795 0.396721 0.149696
H55   H     H_    0.487516 0.609966 0.377422 0.111058
H56   H     H_    0.233053 0.768396 0.176167 0.107441
H57   H     H_    0.526148 0.656840 0.271136 0.130483
H58   H     H_    0.540247 0.598702 0.312874 0.116784
H59   H     H_    0.432591 0.629389 0.309193 0.125696
H60   H     H_    0.386274 0.698394 0.650684 0.118517
H61   H     H_    0.439489 0.616941 0.662860 0.123443
H62   H     H_    0.472902 0.737578 0.696221 0.145341
H63   H     H_    0.903846 0.937501 0.589736 0.115633
H64   H     H_    0.818549 0.907135 0.544519 0.141125
H65   H     H_    0.852114 0.022808 0.581279 0.151980
H66   H     H_    0.189551 0.722919 0.301364 0.107242
H67   H     H_    0.233241 0.727153 0.373221 0.123432
H68   H     H_    0.248368 0.028154 0.402176 0.123951
O1    O     O_R   0.318160 0.824460 0.443680 -0.521331
O2    O     O_R   0.668160 0.499860 0.053480 -0.516882
O3    O     O_R   0.689170 0.693840 0.050110 -0.495123
O4    O     O_R   0.525040 0.857250 0.449830 -0.498650
O5    O     O_R   0.803860 0.812940 0.962540 -0.511583
O6    O     O_R   0.982950 0.787950 0.964120 -0.527363
O7    O     O_R   0.007050 0.649970 0.960540 -0.517048
O8    O     O_R   0.807910 0.482370 0.965590 -0.504402
O9    O     O_R   0.643310 0.460980 0.963840 -0.526352
O10   O     O_R   0.666140 0.657800 0.967020 -0.499654
O11   O     O_3   0.830520 0.660760 0.007110 -0.260749
O12   O     O_R   0.645130 0.163230 0.552140 -0.502396
O13   O     O_R   0.684760 0.998800 0.456360 -0.523314
O14   O     O_R   0.647540 0.166310 0.470260 -0.502577
O15   O     O_R   0.500960 0.181750 0.467450 -0.519986
O16   O     O_R   0.331100 0.981120 0.457080 -0.501290
O17   O     O_R   0.315560 0.821140 0.532010 -0.522882
O18   O     O_R   0.522630 0.854180 0.531710 -0.504740
O19   O     O_R   0.682160 0.995480 0.544690 -0.517105
O20   O     O_R   0.498360 0.178430 0.555780 -0.519991
O21   O     O_R   0.328690 0.978040 0.538950 -0.501361
O22   O     O_3   0.499990 0.999990 0.500010 -0.231093
O23   O     O_R   0.828710 0.851830 0.052170 -0.515160
O24   O     O_R   0.005980 0.823990 0.047210 -0.500933
O25   O     O_R   0.031900 0.688850 0.050170 -0.514906
O26   O     O_R   0.830940 0.518420 0.048680 -0.498097

loop_
_geom_bond_atom_site_label_1
_geom_bond_atom_site_label_2
_ccdc_geom_bond_type
C38   C40   A    
C41   H56   S    
C74   H15   S    
C93   C94   A    
C15   H61   S    
C84   C102  S    
C41   C42   A    
C20   H26   S    
C95   C96   A    
C91   O23   A    
C86   H29   S    
C81   C82   T    
C16   H65   S    
C7    C8    A    
C12   H54   S    
C54   C65   S    
C106  C112  A    
C77   C78   A    
C44   C45   A    
Cr1   O4    S    
C91   O3    A    
C100  C105  A    
C37   C38   A    
C74   C76   A    
C21   C22   A    
C11   C36   A    
C10   C58   A    
C2    O9    A    
C29   C32   A    
Cr3   O21   S    
C59   C66   A    
C57   H7    S    
C5    C6    A    
Cr6   O3    S    
C86   C88   A    
C57   C59   A    
C4    H41   S    
C106  C107  A    
C44   H2    S    
Cr1   O1    S    
Cr3   O16   S    
C38   H66   S    
C108  C109  A    
C36   C47   A    
C17   H23   S    
C34   C35   A    
C56   H9    S    
C34   H68   S    
C62   C64   S    
Cr5   O8    S    
C75   O21   A    
C6    C7    A    
C19   C20   A    
C53   C54   A    
C63   O20   A    
C50   C52   A    
C107  C108  A    
C93   H27   S    
C70   C71   A    
C67   C73   A    
C11   C58   A    
Cr6   O10   S    
C9    C10   A    
C43   H3    S    
C28   H12   S    
C88   C97   S    
C36   H40   S    
C80   O26   A    
C71   C82   S    
C39   O1    A    
C1    O4    A    
Cr4   O6    S    
C60   C66   A    
C26   C31   A    
C101  C103  A    
C49   C69   S    
C15   H62   S    
C19   H38   S    
C102  O7    A    
C2    C83   S    
C1    O13   A    
C84   C90   A    
C76   C83   A    
C12   C52   S    
C92   C97   A    
C17   C18   A    
C12   H53   S    
C87   C99   A    
C100  H33   S    
C101  C105  A    
C63   C67   S    
C33   C40   A    
C112  H39   S    
C27   O14   A    
C7    H46   S    
C92   H28   S    
C67   C68   A    
C5    C47   S    
Cr1   O22   S    
C73   H17   S    
C28   C32   A    
C84   C85   A    
C3    C8    A    
C79   C81   S    
Cr6   O2    S    
C42   H45   S    
C43   C49   A    
C40   H67   S    
C57   C62   A    
C85   C86   A    
C4    C5    A    
Cr4   O24   S    
C13   O10   A    
C50   C56   A    
C89   H35   S    
C60   C61   A    
C2    O8    A    
C14   H57   S    
C43   C44   A    
C29   C30   A    
C1    C50   S    
C21   C31   S    
C11   C16   S    
C72   H16   S    
C23   H51   S    
C55   H8    S    
Cr5   O25   S    
C23   C24   A    
C99   C111  A    
C96   C97   A    
C55   C56   A    
C27   O15   A    
C33   C34   A    
C80   O2    A    
C94   C95   A    
C51   C58   S    
C33   C39   S    
C52   C53   A    
C24   C25   S    
C68   H18   S    
Cr6   O9    S    
C85   H22   S    
C90   H24   S    
C18   H4    S    
Cr2   O19   S    
C69   O25   A    
Cr4   O5    S    
C9    C47   A    
C98   C100  A    
C74   C79   A    
C3    H42   S    
C15   H60   S    
C111  H49   S    
C3    C4    A    
C78   H19   S    
C13   C106  S    
Cr5   O11   S    
C51   O18   A    
C98   H32   S    
C59   H6    S    
Cr1   O18   S    
C54   C55   A    
C75   O17   A    
C35   C37   A    
C27   C32   S    
C78   C79   A    
C22   H50   S    
Cr5   O26   S    
C6    H44   S    
C95   H30   S    
C72   C73   A    
Cr4   O23   S    
C103  H25   S    
C60   H11   S    
C39   O16   A    
C51   O19   A    
C75   C105  S    
C66   C91   S    
C80   C87   S    
C99   H1    S    
C108  H43   S    
C26   C28   A    
C18   C87   A    
C13   O5    A    
C63   O12   A    
Cr2   O13   S    
C77   H20   S    
C64   C65   T    
C16   H63   S    
C35   H5    S    
C19   C24   A    
C9    C15   S    
C17   C25   A    
C71   C72   A    
C41   C45   A    
C8    C109  S    
C29   H34   S    
C37   C48   S    
Cr4   O11   S    
C110  H48   S    
C30   C31   A    
C101  H36   S    
C10   H47   S    
C30   H14   S    
C96   H31   S    
Cr3   O15   S    
C92   C93   A    
C76   H13   S    
Cr2   O22   S    
C61   H10   S    
C16   H64   S    
C102  O6    A    
Cr1   O17   S    
C61   C62   A    
C110  C112  A    
C14   H59   S    
Cr5   O7    S    
C25   C111  A    
C42   C49   A    
C94   C104  S    
C46   C48   T    
C45   C46   S    
C70   H21   S    
C14   C53   S    
C20   C21   A    
C26   H52   S    
C68   C70   A    
Cr2   O12   S    
Cr3   O20   S    
C109  C110  A    
C103  C104  A    
C77   C83   A    
C22   C23   A    
Cr2   O14   S    
C69   O24   A    
C89   C90   A    
Cr3   O22   S    
Cr6   O11   S    
C98   C104  A    
C107  H37   S    
C88   C89   A    
C12   H55   S    
C14   H58   S    
