data_mof_unit_10907.cif
_audit_creation_date              2012-12-11T16:47:56-0500
_audit_creation_method            fapswitch 2.2
_symmetry_space_group_name_H-M    P1
_symmetry_Int_Tables_number       1
_space_group_crystal_system       monoclinic
_cell_length_a                    26.18305
_cell_length_b                    7.155445
_cell_length_c                    23.983592
_cell_angle_alpha                 90.0
_cell_angle_beta                  101.739633
_cell_angle_gamma                 90.0
_cell_volume                      4399.36819944

loop_
_atom_site_label
_atom_site_type_symbol
_atom_type_description
_atom_site_fract_x
_atom_site_fract_y
_atom_site_fract_z
_atom_type_partial_charge
O1    O     O_R   0.797620 0.601060 0.203310 -0.503175
O2    O     O_R   0.202380 0.398940 0.796690 -0.503174
O3    O     O_R   0.702380 0.101060 0.296690 -0.503175
O4    O     O_R   0.297620 0.898940 0.703310 -0.503175
O5    O     O_R   0.692070 0.267810 0.186600 -0.529976
O6    O     O_R   0.307930 0.732190 0.813400 -0.529975
O7    O     O_R   0.807930 0.767810 0.313400 -0.529976
O8    O     O_R   0.192070 0.232190 0.686600 -0.529975
C1    C     C_R   0.673765 0.439872 0.171408 0.715225
C2    C     C_R   0.326235 0.560128 0.828592 0.715225
C3    C     C_R   0.826235 0.939872 0.328592 0.715226
C4    C     C_R   0.173765 0.060128 0.671408 0.715226
O9    O     O_R   0.796590 0.271120 0.196480 -0.548118
O10   O     O_R   0.203410 0.728880 0.803520 -0.548118
O11   O     O_R   0.703410 0.771120 0.303520 -0.548118
O12   O     O_R   0.296590 0.228880 0.696480 -0.548118
O13   O     O_R   0.807640 0.104280 0.306650 -0.536138
O14   O     O_R   0.192360 0.895720 0.693350 -0.536138
O15   O     O_R   0.692360 0.604280 0.193350 -0.536138
O16   O     O_R   0.307640 0.395720 0.806650 -0.536138
C5    C     C_R   0.813041 0.440418 0.185016 0.707178
C6    C     C_R   0.186959 0.559582 0.814984 0.707177
C7    C     C_R   0.686959 0.940418 0.314984 0.707178
C8    C     C_R   0.313041 0.059582 0.685016 0.707178
O17   O     O_3   0.753500 0.435660 0.286130 -0.370189
O18   O     O_3   0.246500 0.564340 0.713870 -0.370189
O19   O     O_3   0.746500 0.935660 0.213870 -0.370190
O20   O     O_3   0.253500 0.064340 0.786130 -0.370189
V1    V     V_3+5 0.749350 0.159470 0.243300 1.493977
V2    V     V_3+5 0.250650 0.840530 0.756700 1.493977
V3    V     V_3+5 0.750650 0.659470 0.256700 1.493977
V4    V     V_3+5 0.249350 0.340530 0.743300 1.493977
C9    C     C_R   0.381411 0.881232 0.644621 0.367406
C10   C     C_R   0.618589 0.118768 0.355378 0.367406
C11   C     C_R   0.118589 0.381232 0.855379 0.367406
C12   C     C_R   0.881411 0.618768 0.144621 0.367407
C13   C     C_R   0.417239 0.873391 0.608017 -0.232827
C14   C     C_R   0.582761 0.126609 0.391983 -0.232827
C15   C     C_R   0.082761 0.373391 0.891983 -0.232827
C16   C     C_R   0.917239 0.626609 0.108017 -0.232827
H1    H     H_    0.439924 0.747444 0.606751 0.101871
H2    H     H_    0.560076 0.252556 0.393249 0.101871
H3    H     H_    0.060076 0.247444 0.893249 0.101871
H4    H     H_    0.939924 0.752556 0.106751 0.101871
C17   C     C_R   0.424975 0.026794 0.574252 0.062843
C18   C     C_R   0.575025 0.973206 0.425748 0.062843
C19   C     C_R   0.075025 0.526794 0.925748 0.062843
C20   C     C_R   0.924975 0.473206 0.074252 0.062843
C21   C     C_R   0.396525 0.191290 0.578008 -0.151192
C22   C     C_R   0.603475 0.808710 0.421992 -0.151193
C23   C     C_R   0.103475 0.691290 0.921992 -0.151192
C24   C     C_R   0.896525 0.308710 0.078008 -0.151193
H5    H     H_    0.401311 0.311940 0.552302 0.115470
H6    H     H_    0.598689 0.688060 0.447697 0.115470
H7    H     H_    0.098689 0.811940 0.947697 0.115470
H8    H     H_    0.901311 0.188060 0.052303 0.115470
C25   C     C_R   0.360686 0.201161 0.614060 -0.243446
C26   C     C_R   0.639314 0.798839 0.385940 -0.243446
C27   C     C_R   0.139314 0.701161 0.885940 -0.243446
C28   C     C_R   0.860686 0.298839 0.114060 -0.243446
H9    H     H_    0.339112 0.329755 0.615199 0.155387
H10   H     H_    0.660887 0.670245 0.384801 0.155387
H11   H     H_    0.160887 0.829755 0.884801 0.155387
H12   H     H_    0.839112 0.170244 0.115199 0.155387
C29   C     C_R   0.352144 0.046891 0.647462 -0.077857
C30   C     C_R   0.647855 0.953109 0.352538 -0.077856
C31   C     C_R   0.147856 0.546890 0.852538 -0.077858
C32   C     C_R   0.852144 0.453109 0.147462 -0.077857
C33   C     C_R   0.495373 0.166119 0.529310 -0.154139
C34   C     C_R   0.504627 0.833881 0.470690 -0.154139
C35   C     C_R   0.004627 0.666119 0.970690 -0.154139
C36   C     C_R   0.995373 0.333880 0.029310 -0.154139
H13   H     H_    0.493186 0.295076 0.552335 0.108948
H14   H     H_    0.506814 0.704924 0.447665 0.108948
H15   H     H_    0.006814 0.795076 0.947665 0.108948
H16   H     H_    0.993186 0.204924 0.052335 0.108948
C37   C     C_R   0.531848 0.152187 0.494148 -0.151899
C38   C     C_R   0.468151 0.847813 0.505852 -0.151899
C39   C     C_R   0.968151 0.652187 0.005852 -0.151899
C40   C     C_R   0.031849 0.347813 0.994148 -0.151899
H17   H     H_    0.556633 0.271238 0.490995 0.108095
H18   H     H_    0.443366 0.728762 0.509004 0.108095
H19   H     H_    0.943366 0.771238 0.009004 0.108095
H20   H     H_    0.056633 0.228762 0.990996 0.108095
C41   C     C_R   0.536933 0.985969 0.464268 0.105673
C42   C     C_R   0.463066 0.014031 0.535732 0.105673
C43   C     C_R   0.963066 0.485969 0.035732 0.105673
C44   C     C_R   0.036933 0.514031 0.964268 0.105673
C45   C     C_3   0.956817 0.014281 0.522702 -0.253410
C46   C     C_3   0.043183 0.985719 0.477298 -0.253410
C47   C     C_3   0.543183 0.514281 0.977298 -0.253410
C48   C     C_3   0.456817 0.485719 0.022702 -0.253410
C49   C     C_3   0.999733 0.163277 0.524730 0.422045
C50   C     C_3   0.000267 0.836723 0.475270 0.422045
C51   C     C_3   0.500266 0.663277 0.975270 0.422045
C52   C     C_3   0.499733 0.336723 0.024730 0.422046
H21   H     H_    0.921615 0.029887 0.541427 0.138735
H22   H     H_    0.078385 0.970113 0.458573 0.138735
H23   H     H_    0.578385 0.529887 0.958573 0.138735
H24   H     H_    0.421615 0.470113 0.041426 0.138735
H25   H     H_    0.999157 0.251311 0.429577 0.161948
H26   H     H_    0.000843 0.748689 0.570423 0.161948
H27   H     H_    0.500843 0.751311 0.070423 0.161948
H28   H     H_    0.499157 0.248689 0.929577 0.161948
C53   C     C_1   0.128063 0.049373 0.625456 -0.169481
C54   C     C_1   0.871936 0.950627 0.374544 -0.169481
C55   C     C_1   0.371936 0.549373 0.874544 -0.169482
C56   C     C_1   0.628063 0.450627 0.125456 -0.169482
C57   C     C_3   0.000282 0.863220 0.539095 -0.238474
C58   C     C_3   0.999718 0.136780 0.460904 -0.238474
C59   C     C_3   0.499718 0.363219 0.960905 -0.238474
C60   C     C_3   0.500282 0.636780 0.039095 -0.238474
C61   C     C_3   0.042612 0.016105 0.541173 0.086973
C62   C     C_3   0.957388 0.983895 0.458827 0.086973
C63   C     C_3   0.457388 0.516105 0.958827 0.086973
C64   C     C_3   0.542612 0.483895 0.041173 0.086973
C65   C     C_1   0.089642 0.036046 0.587378 0.021632
C66   C     C_1   0.910358 0.963954 0.412622 0.021632
C67   C     C_1   0.410357 0.536046 0.912622 0.021632
C68   C     C_1   0.589642 0.463954 0.087378 0.021632
O21   O     O_3   0.375474 0.729800 0.678543 -0.640398
H29   H     H_    0.398420 0.626390 0.671126 0.277981
O22   O     O_3   0.624525 0.270199 0.321457 -0.640397
H30   H     H_    0.601580 0.373610 0.328874 0.277981
O23   O     O_3   0.124525 0.229801 0.821457 -0.640398
H31   H     H_    0.101580 0.126390 0.828874 0.277981
O24   O     O_3   0.875474 0.770199 0.178543 -0.640397
H32   H     H_    0.898420 0.873610 0.171126 0.277981
O25   O     O_3   0.000146 0.336712 0.551626 -0.644247
H33   H     H_    0.967765 0.400332 0.532188 0.293577
O26   O     O_3   0.999854 0.663288 0.448374 -0.644247
H34   H     H_    0.032235 0.599668 0.467812 0.293577
O27   O     O_3   0.499854 0.836712 0.948374 -0.644247
H35   H     H_    0.532235 0.900332 0.967812 0.293577
O28   O     O_3   0.500146 0.163288 0.051626 -0.644247
H36   H     H_    0.467765 0.099668 0.032188 0.293577

loop_
_geom_bond_atom_site_label_1
_geom_bond_atom_site_label_2
_ccdc_geom_bond_type
C26   H10   S    
C39   H19   S    
O1    C5    A    
C10   O22   S    
C34   C38   A    
O13   V1    S    
C56   C68   T    
O3    C7    A    
O1    V3    S    
C36   H16   S    
O15   V3    S    
C10   C30   A    
C35   C39   A    
C50   C62   S    
C9    C29   A    
O22   H30   S    
C1    C56   S    
O7    C3    A    
O5    C1    A    
C22   H6    S    
C51   O27   S    
C7    C30   S    
O9    V1    S    
C14   H2    S    
C51   C60   S    
C4    C53   S    
O4    C8    A    
O19   V1    S    
C45   C57   S    
C48   C52   S    
C21   C25   A    
C47   C64   S    
O2    V4    S    
C46   C61   S    
C47   C59   S    
O3    V1    S    
C12   C16   A    
C24   C28   A    
C11   O23   S    
C33   C37   A    
C26   C30   A    
C51   C63   S    
C34   H14   S    
C33   H13   S    
O14   V2    S    
C11   C31   A    
C58   C62   S    
C16   H4    S    
C57   C61   S    
C49   C58   S    
C18   C41   S    
C27   C31   A    
C38   C42   A    
O11   C7    A    
C37   C41   A    
O12   C8    A    
C39   C43   A    
C54   C66   T    
C9    O21   S    
C53   C65   T    
C2    C55   S    
O10   V2    S    
C49   O25   S    
C55   C67   T    
C1    O15   A    
C46   C50   S    
C52   O28   S    
O5    V1    S    
C52   C59   S    
O7    V3    S    
C40   H20   S    
O8    V4    S    
O28   H36   S    
C2    O16   A    
O18   V4    S    
C48   C60   S    
C19   C23   A    
H25   C58   S    
C45   C49   S    
C9    C13   A    
C64   C68   S    
C45   H21   S    
H27   C60   S    
C22   C26   A    
C11   C15   A    
O2    C6    A    
C38   H18   S    
C37   H17   S    
O8    C4    A    
C3    C54   S    
C17   C21   A    
C20   C43   S    
O9    C5    A    
C49   C61   S    
O11   V3    S    
O21   H29   S    
C62   C66   S    
C8    C29   S    
C61   C65   S    
O6    V2    S    
C63   C67   S    
C5    C32   S    
O27   H35   S    
C12   O24   S    
C23   C27   A    
C46   C58   S    
C13   C17   A    
O24   H32   S    
C60   C64   S    
C36   C43   A    
C48   H24   S    
C15   C19   A    
O25   H33   S    
O16   V4    S    
C16   C20   A    
C45   C62   S    
C3    O13   A    
C10   C14   A    
O17   V3    S    
C25   C29   A    
O6    C2    A    
H28   C59   S    
C15   H3    S    
C12   C32   A    
C25   H9    S    
O12   V4    S    
C18   C22   A    
C50   C57   S    
C27   H11   S    
C50   O26   S    
C28   H12   S    
C19   C44   S    
O10   C6    A    
O20   V2    S    
C17   C42   S    
C36   C40   A    
C35   H15   S    
O23   H31   S    
C21   H5    S    
C23   H7    S    
C13   H1    S    
C48   C63   S    
C6    C31   S    
C14   C18   A    
C47   C51   S    
C35   C44   A    
C24   H8    S    
C20   C24   A    
C28   C32   A    
C40   C44   A    
C4    O14   A    
C52   C64   S    
H26   C57   S    
C59   C63   S    
C47   H23   S    
C34   C41   A    
C46   H22   S    
O4    V2    S    
C33   C42   A    
O26   H34   S    
