data_mof_unit_12003.cif
_audit_creation_date              2012-12-10T19:06:28-0500
_audit_creation_method            fapswitch 2.2
_symmetry_space_group_name_H-M    P1
_symmetry_Int_Tables_number       1
_space_group_crystal_system       triclinic
_cell_length_a                    23.520498
_cell_length_b                    10.821555
_cell_length_c                    9.531883
_cell_angle_alpha                 89.932397
_cell_angle_beta                  89.938369
_cell_angle_gamma                 90.161382
_cell_volume                      2426.12184886

loop_
_atom_site_label
_atom_site_type_symbol
_atom_type_description
_atom_site_fract_x
_atom_site_fract_y
_atom_site_fract_z
_atom_type_partial_charge
C1    C     C_R   0.501018 0.262258 0.500012 0.804994
C2    C     C_R   0.970480 0.276580 0.552545 -0.160360
C3    C     C_R   0.029801 0.277169 0.553278 -0.161029
C4    C     C_R   0.060054 0.387108 0.527957 -0.015241
C5    C     C_R   0.030101 0.497326 0.501931 -0.016848
C6    C     C_R   0.060010 0.608034 0.476103 -0.015443
C7    C     C_R   0.029716 0.717518 0.450789 -0.160880
C8    C     C_R   0.970397 0.717083 0.450802 -0.160209
C9    C     C_R   0.119692 0.389850 0.527482 0.533646
C10   C     C_R   0.119648 0.606174 0.476448 0.533966
C11   C     C_R   0.238707 0.510164 0.374645 -0.102889
C12   C     C_R   0.390901 0.499797 0.500124 0.800944
C13   C     C_R   0.297993 0.510297 0.374004 -0.214098
C14   C     C_R   0.328286 0.499410 0.500477 -0.042111
C15   C     C_R   0.298173 0.488053 0.627385 -0.218161
C16   C     C_R   0.238895 0.487395 0.627624 -0.102268
C17   C     C_R   0.209019 0.498593 0.501361 0.359703
C18   C     C_R   0.761145 0.488562 0.368764 0.213168
C19   C     C_R   0.701629 0.490300 0.371277 -0.216086
C20   C     C_R   0.671833 0.497355 0.498900 -0.076239
C21   C     C_R   0.702418 0.501555 0.625123 -0.215451
C22   C     C_R   0.761608 0.500531 0.623754 -0.144916
C23   C     C_R   0.501055 0.737721 0.499866 0.806676
C24   C     C_R   0.791255 0.494615 0.496586 0.367894
C25   C     C_R   0.508530 0.063384 0.625565 0.140620
C26   C     C_R   0.506732 0.129201 0.499630 -0.096468
C27   C     C_R   0.513118 0.064623 0.372645 -0.208929
C28   C     C_R   0.513102 0.935827 0.372546 -0.209170
C29   C     C_R   0.506751 0.870799 0.499429 -0.096461
C30   C     C_R   0.508510 0.936205 0.625442 0.121193
C31   C     C_3   0.470258 0.929124 0.750424 -0.456995
C32   C     C_3   0.470358 0.069430 0.750726 -0.479483
C33   C     C_R   0.520177 0.599822 0.073473 0.254916
C34   C     C_R   0.609140 0.499360 0.499812 0.811540
C35   C     C_R   0.474309 0.407960 0.074642 -0.081213
C36   C     C_R   0.474232 0.408062 0.925693 -0.081644
C37   C     C_R   0.520201 0.599761 0.926089 0.255362
C38   C     C_3   0.578754 0.652444 0.919925 -0.497672
C39   C     C_3   0.578718 0.652647 0.079218 -0.498087
C40   C     C_R   0.880530 0.604231 0.475614 0.534415
C41   C     C_R   0.880560 0.387549 0.524752 0.533621
C42   C     C_R   0.940189 0.385950 0.526679 -0.017452
C43   C     C_R   0.970100 0.496804 0.501542 -0.018280
C44   C     C_R   0.940152 0.607110 0.475860 -0.018811
Cu1   Cu    Cu3+1 0.500000 0.499980 0.640670 0.945057
Cu2   Cu    Cu3+1 0.500000 0.500020 0.359330 0.944006
H1    H     H_    0.948480 0.190201 0.572172 0.190470
H2    H     H_    0.678724 0.485186 0.272986 0.155250
H3    H     H_    0.680749 0.505705 0.725067 0.155395
H4    H     H_    0.784669 0.504650 0.721929 0.146045
H5    H     H_    0.515259 0.112856 0.273129 0.162621
H6    H     H_    0.515146 0.887949 0.272986 0.158498
H7    H     H_    0.428023 0.888241 0.725544 0.205937
H8    H     H_    0.491906 0.888611 0.843233 0.192201
H9    H     H_    0.428163 0.110265 0.726316 0.199708
H10   H     H_    0.492230 0.109440 0.843561 0.194659
H11   H     H_    0.454356 0.332355 0.130472 0.141309
H12   H     H_    0.051832 0.191222 0.573487 0.190555
H13   H     H_    0.454060 0.332823 0.870129 0.138870
H14   H     H_    0.610064 0.587106 0.874781 0.212268
H15   H     H_    0.579463 0.746722 0.873579 0.195805
H16   H     H_    0.610105 0.587649 0.124876 0.213789
H17   H     H_    0.579329 0.747109 0.124771 0.192198
H18   H     H_    0.051713 0.803847 0.430856 0.190517
H19   H     H_    0.948361 0.803069 0.430833 0.190535
H20   H     H_    0.215758 0.518653 0.276697 0.139937
H21   H     H_    0.320030 0.519282 0.274683 0.159818
H22   H     H_    0.320347 0.479284 0.726400 0.158319
H23   H     H_    0.216099 0.478576 0.725905 0.139918
N1    N     N_R   0.852186 0.495455 0.498969 -0.471801
N2    N     N_R   0.148092 0.498202 0.501814 -0.471377
N3    N     N_R   0.500360 0.500930 0.147930 -0.183792
N4    N     N_R   0.500360 0.500890 0.852020 -0.182768
O1    O     O_R   0.500000 0.319640 0.618810 -0.582187
O2    O     O_2   0.851101 0.282263 0.547725 -0.526693
O3    O     O_2   0.149124 0.285075 0.551442 -0.530898
O4    O     O_2   0.149036 0.711397 0.452496 -0.530063
O5    O     O_R   0.500010 0.319680 0.381230 -0.590022
O6    O     O_R   0.417880 0.499940 0.618820 -0.583607
O7    O     O_R   0.417880 0.499980 0.381240 -0.580385
O8    O     O_R   0.499990 0.680320 0.618770 -0.578909
O9    O     O_R   0.500000 0.680360 0.381190 -0.583898
O10   O     O_R   0.582120 0.500020 0.618760 -0.580917
O11   O     O_R   0.582120 0.500060 0.381180 -0.583935
O12   O     O_2   0.851027 0.708944 0.451874 -0.525410
C45   C     C_3   0.790710 0.479420 0.228965 -0.820663
H24   H     H_    0.837617 0.474880 0.238730 0.237918
H25   H     H_    0.776263 0.394650 0.173820 0.230418
H26   H     H_    0.779867 0.561206 0.163936 0.235543

loop_
_geom_bond_atom_site_label_1
_geom_bond_atom_site_label_2
_ccdc_geom_bond_type
C23   O9    A    
C28   H6    S    
C41   C42   A    
C35   C36   A    
C36   H13   S    
C21   H3    S    
C24   N1    S    
C7    C8    A    
Cu1   Cu2   S    
C5    C6    A    
C26   C27   A    
C29   C30   A    
C40   N1    A    
C18   C24   A    
C1    O1    A    
C23   C29   S    
C28   C29   A    
C30   C31   S    
C45   H25   S    
C15   C16   A    
C12   O6    A    
Cu1   N4    S    
C18   C19   A    
C33   N3    A    
Cu2   O9    S    
C33   C39   S    
C19   C20   A    
C16   C17   A    
C9    O3    S    
C32   H9    S    
Cu2   N3    S    
C11   H20   S    
C22   H4    S    
C38   H15   S    
C20   C34   S    
C10   N2    A    
C25   C32   S    
C5    C43   A    
C8    H19   S    
C21   C22   A    
C1    O5    A    
Cu1   O10   S    
C34   O11   A    
C10   O4    S    
C27   H5    S    
C9    N2    A    
Cu2   O5    S    
C45   H24   S    
C25   C26   A    
C33   C37   A    
Cu1   O1    S    
C40   O12   S    
C43   C44   A    
C37   C38   S    
C41   O2    S    
C31   C32   S    
Cu1   O6    S    
C18   C45   S    
C31   H7    S    
C38   H14   S    
C12   C14   S    
C35   N3    A    
C17   N2    S    
C1    C26   S    
Cu2   O11   S    
C42   C43   A    
C3    C4    A    
C13   H21   S    
C25   C30   A    
C39   H16   S    
C37   N4    A    
C11   C17   A    
C23   O8    A    
C19   H2    S    
Cu1   O8    S    
C16   H23   S    
C8    C44   A    
C4    C5    A    
C45   H26   S    
C6    C10   A    
C6    C7    A    
C2    H1    S    
C39   H17   S    
C35   H11   S    
C2    C3    A    
Cu2   O7    S    
C11   C13   A    
C38   C39   S    
C2    C42   A    
C15   H22   S    
C12   O7    A    
C22   C24   A    
C31   H8    S    
C7    H18   S    
C36   N4    A    
C3    H12   S    
C40   C44   A    
C20   C21   A    
C34   O10   A    
C27   C28   A    
C14   C15   A    
C4    C9    A    
C13   C14   A    
C32   H10   S    
C41   N1    A    
