data_mof_unit_66003.cif
_audit_creation_date              2012-12-10T19:33:52-0500
_audit_creation_method            fapswitch 2.2
_symmetry_space_group_name_H-M    P1
_symmetry_Int_Tables_number       1
_space_group_crystal_system       triclinic
_cell_length_a                    11.159191
_cell_length_b                    15.826583
_cell_length_c                    17.05296
_cell_angle_alpha                 96.073664
_cell_angle_beta                  91.469474
_cell_angle_gamma                 78.910429
_cell_volume                      2938.88510932

loop_
_atom_site_label
_atom_site_type_symbol
_atom_type_description
_atom_site_fract_x
_atom_site_fract_y
_atom_site_fract_z
_atom_type_partial_charge
C1    C     C_R   0.501114 0.489691 0.348471 0.818223
C2    C     C_R   0.498894 0.510307 0.651529 0.817836
C3    C     C_R   0.492974 0.408769 0.215337 -0.195898
C4    C     C_R   0.506918 0.591251 0.784667 -0.195911
C5    C     C_R   0.435461 0.760142 0.463249 0.008012
C6    C     C_R   0.564518 0.239864 0.536764 0.008069
C7    C     C_R   0.429588 0.850213 0.466706 0.066082
C8    C     C_R   0.570383 0.149794 0.533315 0.066085
C9    C     C_R   0.509107 0.889621 0.518416 0.337926
C10   C     C_R   0.490878 0.110381 0.481598 0.337940
C11   C     C_R   0.589187 0.836586 0.565319 -0.332460
C12   C     C_R   0.410819 0.163412 0.434682 -0.332545
C13   C     C_R   0.591773 0.747053 0.560068 0.129234
C14   C     C_R   0.408241 0.252944 0.439927 0.129315
C15   C     C_R   0.265345 0.535828 0.502218 0.821695
C16   C     C_R   0.734646 0.464172 0.497951 0.821717
C17   C     C_2   0.132005 0.557480 0.496833 -0.245255
C18   C     C_2   0.867899 0.442478 0.503905 -0.244817
C19   C     C_2   0.063605 0.500297 0.516043 -0.072172
C20   C     C_2   0.936686 0.499296 0.484418 -0.072117
C21   C     C_R   0.508645 0.484166 0.262249 -0.048438
C22   C     C_R   0.491394 0.515820 0.737753 -0.048373
C23   C     C_R   0.535716 0.554132 0.226445 -0.241635
C24   C     C_R   0.464510 0.445797 0.773557 -0.241696
C25   C     C_R   0.545131 0.549779 0.144710 -0.023559
C26   C     C_R   0.455134 0.450128 0.855293 -0.023576
C27   C     C_R   0.524524 0.474768 0.097548 0.333018
C28   C     C_R   0.475594 0.525179 0.902458 0.333015
C29   C     C_R   0.501492 0.404189 0.133606 -0.171845
C30   C     C_R   0.498438 0.595811 0.866398 -0.171863
Cu1   Cu    Cu3+1 0.494060 0.416090 0.496220 0.978464
Cu2   Cu    Cu3+1 0.505940 0.583910 0.503780 0.978444
H1    H     H_    0.448892 0.387993 0.737835 0.179200
H2    H     H_    0.551454 0.611903 0.262169 0.179148
H3    H     H_    0.487890 0.345936 0.097944 0.170252
H4    H     H_    0.511919 0.654095 0.902060 0.170224
H5    H     H_    0.473596 0.353553 0.241670 0.174909
H6    H     H_    0.526145 0.646512 0.758335 0.174887
H7    H     H_    0.626519 0.269708 0.575281 0.165266
H8    H     H_    0.373448 0.730302 0.424739 0.165247
H9    H     H_    0.649259 0.865380 0.606502 0.187245
H10   H     H_    0.350759 0.134615 0.393491 0.187213
N1    N     N_2   0.528397 0.467151 0.014236 -0.242154
N2    N     N_2   0.471739 0.532793 0.985772 -0.242161
N3    N     N_R   0.514860 0.709950 0.509460 -0.207404
N4    N     N_R   0.485140 0.290050 0.490540 -0.207368
N5    N     N_2   0.505303 0.981234 0.530715 -0.174673
N6    N     N_2   0.494679 0.018769 0.469300 -0.174700
O1    O     O_R   0.494450 0.421340 0.382530 -0.584987
O2    O     O_R   0.505550 0.578660 0.617470 -0.585079
O3    O     O_R   0.504470 0.563060 0.388920 -0.588419
O4    O     O_R   0.495530 0.436940 0.611080 -0.588487
O5    O     O_R   0.317520 0.455180 0.497990 -0.568919
O6    O     O_R   0.682480 0.544820 0.502010 -0.568870
O7    O     O_R   0.327540 0.596900 0.504370 -0.582374
O8    O     O_R   0.672460 0.403100 0.495630 -0.582433
C31   C     C_1   0.887212 0.555593 0.424215 0.306352
N7    N     N_1   0.846996 0.599636 0.376148 -0.253451
C32   C     C_1   0.113694 0.443452 0.575699 0.306723
N8    N     N_1   0.154467 0.398983 0.623332 -0.253192
C33   C     C_1   0.675314 0.695770 0.610085 0.322778
N9    N     N_1   0.742832 0.654898 0.650445 -0.289843
C34   C     C_1   0.324722 0.304223 0.389897 0.322597
N10   N     N_1   0.257221 0.345093 0.349526 -0.289854
C35   C     C_1   0.918409 0.359955 0.532782 0.280909
N11   N     N_1   0.957512 0.293710 0.555458 -0.220505
C36   C     C_1   0.080790 0.640418 0.468981 0.281458
N12   N     N_1   0.041057 0.706982 0.447123 -0.220653
C37   C     C_1   0.419870 0.378481 0.888779 0.302188
N13   N     N_1   0.391572 0.321063 0.915548 -0.252765
C38   C     C_1   0.580582 0.621353 0.111215 0.302168
N14   N     N_1   0.609032 0.678712 0.084437 -0.252756
I1    I     I_    0.709832 0.079651 0.601209 -0.285190
I2    I     I_    0.290110 0.920366 0.398835 -0.285440

loop_
_geom_bond_atom_site_label_1
_geom_bond_atom_site_label_2
_ccdc_geom_bond_type
Cu1   N4    S    
C2    C22   S    
C12   H10   S    
N1    N2    D    
C16   O8    A    
Cu2   O3    S    
C1    C21   S    
C25   C38   S    
C24   H1    S    
C27   N1    S    
Cu1   O8    S    
C27   C29   A    
C4    C22   A    
Cu2   N3    S    
C29   H3    S    
Cu2   O7    S    
C26   C28   A    
C19   C20   S    
C30   H4    S    
Cu1   O4    S    
C23   H2    S    
C7    C9    A    
C16   O6    A    
C28   C30   A    
C38   N14   T    
C14   N4    A    
C15   O7    A    
C23   C25   A    
Cu1   O5    S    
C18   C35   S    
C13   N3    A    
C1    O3    A    
C24   C26   A    
Cu2   O2    S    
C31   N7    T    
C37   N13   T    
C2    O4    A    
Cu1   O1    S    
C11   C13   A    
C14   C34   S    
C10   C12   A    
Cu2   O6    S    
C8    I1    S    
C17   C19   D    
C12   C14   A    
C11   H9    S    
C7    I2    S    
C18   C20   D    
C9    C11   A    
C21   C23   A    
C10   N6    S    
C33   N9    T    
C22   C24   A    
C3    C21   A    
C9    N5    S    
C17   C36   S    
C36   N12   T    
N5    N6    D    
C15   O5    A    
C32   N8    T    
C3    C29   A    
C13   C33   S    
C3    H5    S    
C16   C18   S    
C35   N11   T    
C5    H8    S    
C2    O2    A    
C5    C7    A    
C26   C37   S    
C6    H7    S    
C6    C8    A    
C6    N4    A    
C19   C32   S    
C20   C31   S    
C15   C17   S    
C5    N3    A    
C28   N2    S    
C8    C10   A    
C4    C30   A    
Cu1   Cu2   S    
C4    H6    S    
C34   N10   T    
C25   C27   A    
C1    O1    A    
