data_mof_unit_45367.cif
_audit_creation_date              2013-03-05T15:56:55-0500
_audit_creation_method            fapswitch 2.2
_symmetry_space_group_name_H-M    P1
_symmetry_Int_Tables_number       1
_space_group_crystal_system       triclinic
_cell_length_a                    6.955169
_cell_length_b                    14.546781
_cell_length_c                    16.085454
_cell_angle_alpha                 90.022969
_cell_angle_beta                  90.049045
_cell_angle_gamma                 89.976811
_cell_volume                      1627.45009992

loop_
_atom_site_label
_atom_site_type_symbol
_atom_site_description
_atom_site_fract_x
_atom_site_fract_y
_atom_site_fract_z
_atom_type_partial_charge
O1    O     O_R   0.505680 0.583900 0.413320 -0.573957
O2    O     O_R   0.176010 0.594950 0.586080 -0.608213
O3    O     O_R   0.005680 0.416100 0.586680 -0.601419
C1    C     C_R   0.345110 0.617738 0.614506 0.991559
O4    O     O_R   0.175960 0.594930 0.413930 -0.585307
O5    O     O_R   0.005640 0.416080 0.413300 -0.602176
C2    C     C_R   0.344810 0.614922 0.383298 0.982170
O6    O     O_R   0.505720 0.583920 0.586700 -0.585262
O7    O     O_3   0.339190 0.441320 0.500000 -0.276902
V1    V     V_3+5 0.064350 0.510890 0.500000 1.207448
O8    O     O_R   0.675920 0.405050 0.413920 -0.589857
C3    C     C_R   0.844951 0.382816 0.385055 0.985175
O9    O     O_R   0.675960 0.405070 0.586070 -0.563786
C4    C     C_R   0.844651 0.384028 0.615706 0.957545
V2    V     V_3+5 0.564340 0.489110 0.500000 1.230196
O10   O     O_3   0.839370 0.558680 0.500000 -0.280007
C5    C     C_R   0.008850 0.316820 0.742278 0.097844
C6    C     C_R   0.852027 0.319477 0.687278 -0.232000
C7    C     C_R   0.699445 0.258227 0.703116 -0.049204
H1    H     H_    0.576141 0.256843 0.662339 0.141464
C8    C     C_R   0.710116 0.193956 0.768575 -0.137628
H2    H     H_    0.594860 0.146025 0.777970 0.167107
C9    C     C_R   0.875487 0.186104 0.817941 -0.191048
C10   C     C_R   0.024492 0.247230 0.801802 0.130848
C11   C     C_3   0.226782 0.226110 0.778379 -0.166778
C12   C     C_3   0.217573 0.310579 0.722591 0.087032
H3    H     H_    0.326820 0.231553 0.832036 0.180200
H4    H     H_    0.248580 0.298057 0.655730 0.114281
C13   C     C_R   0.046408 0.224483 0.217771 -0.126388
H5    H     H_    0.186804 0.205703 0.194188 0.123650
C14   C     C_R   0.035239 0.288042 0.283021 -0.111882
H6    H     H_    0.167621 0.316406 0.307487 0.130145
C15   C     C_R   0.856115 0.314588 0.316092 -0.122337
C16   C     C_R   0.688463 0.275927 0.281897 -0.082644
H7    H     H_    0.548069 0.294763 0.305447 0.122785
C17   C     C_R   0.699629 0.212369 0.216647 -0.130610
H8    H     H_    0.567241 0.184044 0.192155 0.124085
C18   C     C_R   0.878772 0.185697 0.183665 -0.127048
C19   C     C_R   0.188709 0.725708 0.716673 -0.120014
H9    H     H_    0.048455 0.707742 0.692352 0.118909
C20   C     C_R   0.199789 0.789203 0.781970 -0.088891
H10   H     H_    0.067520 0.818365 0.805725 0.125430
C21   C     C_R   0.378726 0.814731 0.815941 -0.126629
C22   C     C_R   0.546283 0.775113 0.782615 -0.120929
H11   H     H_    0.686544 0.793081 0.806928 0.123306
C23   C     C_R   0.535202 0.711631 0.717310 -0.088980
H12   H     H_    0.667476 0.682497 0.693533 0.123141
C24   C     C_R   0.356259 0.686035 0.683395 -0.126146
C25   C     C_R   0.209602 0.746127 0.300701 -0.088785
H13   H     H_    0.086858 0.747751 0.342072 0.146895
C26   C     C_R   0.219833 0.811064 0.236595 -0.104271
H14   H     H_    0.103901 0.860238 0.229785 0.123401
C27   C     C_R   0.379369 0.813944 0.183130 -0.181564
C28   C     C_R   0.526451 0.749010 0.194032 -0.240163
H15   H     H_    0.647349 0.748433 0.151600 0.173829
C29   C     C_R   0.514274 0.680869 0.255942 0.387108
C30   C     C_R   0.356299 0.680697 0.312102 -0.294123
O11   O     O_R   0.229200 0.915950 0.913350 -0.589955
O12   O     O_R   0.559090 0.905000 0.086080 -0.599577
O13   O     O_R   0.729280 0.083880 0.086680 -0.598339
C31   C     C_R   0.390179 0.882979 0.115043 0.945891
O14   O     O_R   0.558920 0.904980 0.913920 -0.600562
O15   O     O_R   0.729110 0.083860 0.913300 -0.597958
C32   C     C_R   0.389880 0.882874 0.884958 0.954952
O16   O     O_R   0.229360 0.915970 0.086730 -0.595819
O17   O     O_3   0.395680 0.058580 0.000030 -0.271569
V3    V     V_3+5 0.670570 0.989070 0.999990 1.172983
O18   O     O_R   0.058820 0.094950 0.913870 -0.578939
C33   C     C_R   0.889566 0.116269 0.884707 0.982657
O19   O     O_R   0.058990 0.094970 0.086020 -0.603250
C34   C     C_R   0.889967 0.117228 0.114876 0.919756
V4    V     V_3+5 0.170560 0.010930 0.999930 1.181259
O20   O     O_3   0.895590 0.941310 0.999960 -0.275297
N1    N     N_R   0.656551 0.609279 0.257033 0.233957
O21   O     O_R   0.835339 0.628446 0.240816 -0.413249
O22   O     O_R   0.602788 0.523617 0.258032 -0.407894
I1    I     I_    0.238230 0.100366 0.706005 -0.489005
N2    N     N_R   0.321343 0.389265 0.757641 0.243896
O23   O     O_R   0.302483 0.411661 0.835625 -0.383037
O24   O     O_R   0.423316 0.441507 0.709487 -0.401510

loop_
_geom_bond_atom_site_label_1
_geom_bond_atom_site_label_2
_geom_bond_distance
_ccdc_geom_bond_type
C20   H10   1.082794 S    
C9    C33   1.481751 S    
C7    H1    1.079427 S    
C1    O6    1.300051 A    
C19   C20   1.400492 A    
C27   C28   1.403041 A    
C12   N2    1.465748 S    
N1    O22   1.301259 A    
O14   V3    2.003416 S    
C11   I1    2.169282 S    
C5    C12   1.488832 S    
C17   H8    1.082763 S    
C7    C8    1.410276 A    
C16   H7    1.082774 S    
O5    C3    1.299626 A    
N2    O24   1.297070 A    
V2    O10   2.164453 S    
C25   C30   1.406982 A    
C29   C30   1.423023 A    
C6    C7    1.409401 A    
C4    C6    1.486773 S    
O14   C32   1.304596 A    
O12   V3    2.004600 S    
C23   H12   1.082793 S    
O8    V2    2.003607 S    
O17   V4    1.712574 S    
O15   C33   1.296428 A    
O13   V3    2.002824 S    
O18   C33   1.304174 A    
C25   C26   1.400592 A    
C13   C18   1.406383 A    
C9    C10   1.390501 A    
C14   C15   1.408829 A    
O19   C34   1.304907 A    
V3    O20   1.712073 S    
O7    V1    2.162563 S    
O17   V3    2.162462 S    
O9    C4    1.302456 A    
C20   C21   1.408694 A    
C18   C34   1.490520 S    
C27   C31   1.488185 S    
C22   C23   1.400457 A    
C21   C32   1.490003 S    
C5    C6    1.404361 A    
O15   V3    2.003637 S    
C8    C9    1.401767 A    
O11   C32   1.299717 A    
C28   C29   1.407990 A    
O12   C31   1.304300 A    
C5    C10   1.397814 A    
C29   N1    1.436388 S    
N1    O21   1.301144 A    
C26   H14   1.083185 S    
C10   C11   1.488744 S    
C19   H9    1.082776 S    
O4    C2    1.306871 A    
N2    O23   1.302607 A    
O13   C34   1.299793 A    
C11   C12   1.523134 S    
C26   C27   1.405095 A    
O2    C1    1.304414 A    
C21   C22   1.406388 A    
C13   H5    1.082763 S    
C14   H6    1.082793 S    
O18   V4    2.003218 S    
C15   C16   1.406301 A    
O3    C4    1.300577 A    
O1    V2    2.002984 S    
O6    V2    2.003066 S    
O9    V2    2.003186 S    
O2    V1    2.003287 S    
C22   H11   1.082782 S    
C1    C24   1.489973 S    
C28   H15   1.083495 S    
O1    C2    1.299067 A    
V4    O20   2.164426 S    
O5    V1    2.002937 S    
O8    C3    1.304918 A    
C11   H3    1.110979 S    
O16   V4    2.006227 S    
C12   H4    1.111998 S    
C17   C18   1.408902 A    
O7    V2    1.713591 S    
O4    V1    2.004460 S    
C13   C14   1.400633 A    
O3    V1    2.003711 S    
V1    O10   1.711995 S    
O11   V4    2.003456 S    
C16   C17   1.400623 A    
C23   C24   1.408643 A    
C31   O16   1.299113 A    
C25   H13   1.083132 S    
O19   V4    2.003514 S    
C3    C15   1.490255 S    
C8    H2    1.073461 S    
C2    C30   1.494822 S    
C19   C24   1.406376 A    
