data_mof_unit_59356.cif
_audit_creation_date              2012-12-10T17:51:28-0500
_audit_creation_method            fapswitch 2.2
_symmetry_space_group_name_H-M    P1
_symmetry_Int_Tables_number       1
_space_group_crystal_system       triclinic
_cell_length_a                    14.697878
_cell_length_b                    14.612457
_cell_length_c                    17.321768
_cell_angle_alpha                 106.160089
_cell_angle_beta                  73.038028
_cell_angle_gamma                 115.432764
_cell_volume                      3162.71832428

loop_
_atom_site_label
_atom_site_type_symbol
_atom_type_description
_atom_site_fract_x
_atom_site_fract_y
_atom_site_fract_z
_atom_type_partial_charge
C1    C     C_R   0.119087 0.689039 0.513565 0.773070
C2    C     C_R   0.721464 0.167184 0.451647 0.108573
C3    C     C_R   0.360347 0.926624 0.490064 0.064990
C4    C     C_R   0.644480 0.070770 0.467244 0.066992
C5    C     C_R   0.324914 0.007312 0.530134 0.045685
C6    C     C_R   0.675630 0.993702 0.472056 0.050859
C7    C     C_R   0.466739 0.947318 0.476682 0.063879
C8    C     C_R   0.538047 0.050147 0.481615 0.063421
C9    C     C_R   0.500918 0.130294 0.511527 -0.287829
C10   C     C_R   0.501826 0.868838 0.469326 -0.290782
C11   C     C_R   0.395845 0.110634 0.535082 -0.011277
C12   C     C_R   0.881135 0.311165 0.487048 0.769795
C13   C     C_R   0.604896 0.890277 0.466702 -0.010805
C14   C     C_R   0.300283 0.337237 0.352480 -0.096120
C15   C     C_R   0.697246 0.659033 0.649982 -0.102344
C16   C     C_R   0.988614 0.501824 0.652537 0.788726
C17   C     C_R   0.011341 0.498096 0.347457 0.794606
C18   C     C_R   0.214190 0.363942 0.379518 0.016723
C19   C     C_R   0.783914 0.633240 0.622307 0.029880
C20   C     C_R   0.284714 0.488074 0.489511 0.009633
C21   C     C_R   0.715860 0.513130 0.509833 0.018067
C22   C     C_R   0.373898 0.463934 0.467767 -0.032401
C23   C     C_R   0.186973 0.799456 0.518291 -0.191510
C24   C     C_R   0.625274 0.535212 0.533060 -0.037988
C25   C     C_R   0.380255 0.385765 0.398182 0.146878
C26   C     C_R   0.617812 0.611585 0.603790 0.136048
C27   C     C_R   0.455846 0.513942 0.512947 0.089645
C28   C     C_R   0.542895 0.484769 0.488330 0.088753
C29   C     C_R   0.543999 0.404996 0.420470 -0.262370
C30   C     C_R   0.454212 0.593028 0.581386 -0.281373
C31   C     C_R   0.464471 0.356069 0.377577 -0.115846
C32   C     C_R   0.533106 0.640708 0.625028 -0.147336
C33   C     C_R   0.979524 0.497339 0.737833 -0.087882
C34   C     C_R   0.814291 0.200721 0.478783 -0.182736
C35   C     C_R   0.020134 0.502096 0.262109 -0.088285
C36   C     C_R   0.045943 0.465669 0.757606 -0.191482
C37   C     C_R   0.951303 0.530086 0.241903 -0.184209
C38   C     C_R   0.036666 0.459289 0.837915 -0.124539
C39   C     C_R   0.960124 0.535871 0.161541 -0.127587
C40   C     C_R   0.961562 0.485455 0.900243 0.091838
C41   C     C_R   0.037015 0.512425 0.099471 0.092500
C42   C     C_R   0.892945 0.516426 0.881248 0.008883
C43   C     C_R   0.108055 0.485187 0.118954 0.009017
C44   C     C_R   0.902943 0.521946 0.799503 -0.162675
C45   C     C_R   0.221706 0.981456 0.571066 -0.096777
C46   C     C_R   0.098633 0.480526 0.200807 -0.167915
C47   C     C_2   0.956366 0.479692 0.984574 -0.233605
C48   C     C_2   0.041914 0.517642 0.015001 -0.233699
C49   C     C_2   0.302346 0.260594 0.275608 0.362160
C50   C     C_2   0.693881 0.733271 0.728203 0.362388
C51   C     C_2   0.813518 0.546577 0.945790 0.376024
C52   C     C_2   0.189553 0.457992 0.054844 0.372547
C53   C     C_2   0.365414 0.201167 0.563621 0.352280
C54   C     C_2   0.633743 0.801167 0.456629 0.350530
C55   C     C_3   0.713942 0.223751 0.392747 -0.385402
C56   C     C_R   0.773336 0.024250 0.489384 -0.106413
C57   C     C_3   0.676959 0.151562 0.315623 -0.798452
C58   C     C_3   0.306977 0.759461 0.385261 -0.353817
C59   C     C_3   0.363348 0.820883 0.315240 -0.787299
C60   C     C_2   0.930524 0.159205 0.536339 0.413741
C61   C     C_2   0.056642 0.855605 0.632411 0.400083
C62   C     C_R   0.155432 0.878217 0.572049 -0.050888
C63   C     C_R   0.839167 0.128372 0.500098 -0.085485
C64   C     C_R   0.286828 0.827039 0.468687 0.085808
Cu1   Cu    Cu3+1 0.916740 0.524770 0.521640 0.950534
Cu2   Cu    Cu3+1 0.083260 0.475230 0.478360 0.937860
H1    H     H_    0.104812 0.444983 0.710969 0.170365
H2    H     H_    0.151926 0.327278 0.346184 0.128237
H3    H     H_    0.605330 0.377142 0.398705 0.130801
H4    H     H_    0.393364 0.621834 0.602666 0.138561
H5    H     H_    0.152016 0.459136 0.216717 0.193665
H6    H     H_    0.851531 0.546335 0.783954 0.192500
H7    H     H_    0.116547 0.552584 0.977124 0.154836
H8    H     H_    0.881584 0.444748 0.022256 0.155163
H9    H     H_    0.906881 0.559564 0.147920 0.145276
H10   H     H_    0.088138 0.433115 0.851381 0.145768
H11   H     H_    0.195484 0.040661 0.610568 0.223563
H12   H     H_    0.890825 0.548323 0.288242 0.171195
H13   H     H_    0.794303 0.969532 0.503942 0.224616
H14   H     H_    0.230661 0.201000 0.260864 0.084967
H15   H     H_    0.765111 0.792472 0.744187 0.106829
H16   H     H_    0.809682 0.551060 0.010101 0.072437
H17   H     H_    0.192686 0.451746 0.990382 0.072533
H18   H     H_    0.418793 0.275008 0.588701 0.080937
H19   H     H_    0.575155 0.729175 0.472942 0.084311
H20   H     H_    0.724515 0.104424 0.286057 0.262641
H21   H     H_    0.595073 0.100030 0.330322 0.258001
H22   H     H_    0.684041 0.197750 0.271408 0.242895
H23   H     H_    0.553235 0.209043 0.524751 0.141323
H24   H     H_    0.664364 0.267783 0.422961 0.185375
H25   H     H_    0.790550 0.280978 0.370546 0.202690
H26   H     H_    0.324414 0.871557 0.315664 0.259668
H27   H     H_    0.444647 0.868263 0.320038 0.256873
H28   H     H_    0.362906 0.766954 0.255636 0.252503
H29   H     H_    0.348570 0.712496 0.386746 0.204761
H30   H     H_    0.232927 0.703757 0.367710 0.212127
H31   H     H_    0.966716 0.237688 0.566352 0.092762
H32   H     H_    0.020883 0.784124 0.655883 0.058038
H33   H     H_    0.447830 0.791049 0.473377 0.136746
H34   H     H_    0.469890 0.292933 0.328633 0.194433
H35   H     H_    0.527292 0.703059 0.674662 0.197063
H36   H     H_    0.729080 0.458296 0.456360 0.118203
H37   H     H_    0.273028 0.545608 0.541250 0.127952
H38   H     H_    0.844916 0.668148 0.656730 0.117027
N1    N     N_R   0.208390 0.438070 0.445820 -0.181216
N2    N     N_R   0.791610 0.561930 0.554180 -0.177929
O1    O     O_R   0.020090 0.662480 0.528530 -0.575041
O2    O     O_2   0.613700 0.725337 0.777887 -0.520822
O3    O     O_2   0.751144 0.567593 0.927879 -0.512030
O4    O     O_2   0.254479 0.441384 0.073301 -0.513452
O5    O     O_2   0.283959 0.196436 0.554855 -0.521932
O6    O     O_2   0.720727 0.804349 0.425261 -0.529666
O7    O     O_2   0.965406 0.096252 0.534755 -0.495091
O8    O     O_2   0.015270 0.918009 0.658344 -0.522504
O9    O     O_R   0.979910 0.337520 0.471470 -0.586359
O10   O     O_R   0.160710 0.620650 0.491980 -0.584958
O11   O     O_R   0.839290 0.379350 0.508020 -0.575563
O12   O     O_R   0.921540 0.523360 0.633990 -0.591082
O13   O     O_R   0.078460 0.476640 0.366010 -0.590955
O14   O     O_R   0.062170 0.481520 0.597440 -0.588349
O15   O     O_R   0.937830 0.518480 0.402560 -0.582424
O16   O     O_2   0.381943 0.266893 0.225531 -0.523557

loop_
_geom_bond_atom_site_label_1
_geom_bond_atom_site_label_2
_ccdc_geom_bond_type
C25   C31   A    
C40   C47   S    
C30   C32   A    
C26   C32   A    
C7    C10   A    
C14   C18   A    
C61   H32   S    
C4    C8    A    
C36   H1    S    
C7    C8    A    
C39   C41   A    
C20   H37   S    
C38   H10   S    
C3    C64   A    
C15   C19   A    
C56   H13   S    
Cu2   O10   S    
C60   C63   S    
C28   C29   A    
C35   C37   A    
C24   C26   A    
C5    C11   A    
C55   H24   S    
C3    C7    A    
C2    C55   S    
C16   O14   A    
C43   C52   S    
C14   C49   S    
C18   H2    S    
C45   C62   A    
C33   C36   A    
C57   H20   S    
C15   C50   S    
C58   H30   S    
C55   H25   S    
C23   C62   A    
C8    C9    A    
C22   C25   A    
Cu1   O12   S    
C1    O10   A    
Cu1   O15   S    
C21   N2    A    
C11   C53   S    
C42   C51   S    
C12   O9    A    
C2    C34   A    
C40   C42   A    
C51   O3    D    
Cu2   O14   S    
C27   C30   A    
C50   O2    D    
C41   C43   A    
C60   O7    D    
C10   H33   S    
C42   C44   A    
C30   H4    S    
C29   H3    S    
C58   C64   S    
Cu2   O9    S    
C4    C6    A    
C60   H31   S    
C9    H23   S    
C15   C26   A    
C58   C59   S    
C5    C45   A    
C57   H21   S    
C52   H17   S    
C2    C4    A    
C58   H29   S    
C16   O12   A    
C16   C33   S    
C19   H38   S    
C47   C48   D    
C52   O4    D    
C56   C63   A    
C54   O6    D    
C31   H34   S    
C9    C11   A    
C51   H16   S    
C46   H5    S    
C1    O1    A    
C21   H36   S    
C17   O15   A    
C23   C64   A    
C59   H28   S    
C20   C22   A    
C1    C23   S    
C39   H9    S    
Cu2   O13   S    
C55   C57   S    
Cu2   N1    S    
C12   C34   S    
Cu1   N2    S    
C61   O8    D    
C13   C54   S    
C53   H18   S    
C20   N1    A    
C33   C44   A    
C48   H7    S    
C24   C28   A    
C47   H8    S    
C6    C56   A    
C3    C5    A    
C10   C13   A    
C54   H19   S    
C57   H22   S    
C17   C35   S    
C37   H12   S    
C49   H14   S    
C22   C27   A    
C36   C38   A    
C18   N1    A    
C37   C39   A    
C6    C13   A    
C38   C40   A    
C53   O5    D    
C49   O16   D    
C34   C63   A    
C41   C48   S    
C44   H6    S    
C59   H26   S    
C14   C25   A    
C61   C62   S    
C43   C46   A    
C17   O13   A    
C12   O11   A    
C19   N2    A    
C29   C31   A    
Cu1   Cu2   S    
C21   C24   A    
C27   C28   A    
Cu1   O11   S    
C32   H35   S    
C45   H11   S    
C59   H27   S    
C35   C46   A    
Cu1   O1    S    
C50   H15   S    
