data_mof_unit_54554.cif
_audit_creation_date              2012-12-11T16:21:32-0500
_audit_creation_method            fapswitch 2.2
_symmetry_space_group_name_H-M    P1
_symmetry_Int_Tables_number       1
_space_group_crystal_system       triclinic
_cell_length_a                    7.205222
_cell_length_b                    37.084293
_cell_length_c                    41.20433
_cell_angle_alpha                 90.000378
_cell_angle_beta                  90.002156
_cell_angle_gamma                 89.998582
_cell_volume                      11009.8201947

loop_
_atom_site_label
_atom_site_type_symbol
_atom_type_description
_atom_site_fract_x
_atom_site_fract_y
_atom_site_fract_z
_atom_type_partial_charge
O1    O     O_R   0.564240 0.782760 0.216890 -0.538351
O2    O     O_R   0.435760 0.217240 0.783110 -0.538355
O3    O     O_R   0.435760 0.217240 0.716890 -0.538355
O4    O     O_R   0.564240 0.782760 0.283110 -0.538361
O5    O     O_R   0.064240 0.717240 0.283110 -0.538362
O6    O     O_R   0.935760 0.282760 0.716890 -0.538364
O7    O     O_R   0.935760 0.282760 0.783110 -0.538355
O8    O     O_R   0.064240 0.717240 0.216890 -0.538355
O9    O     O_R   0.234510 0.787070 0.282870 -0.541001
O10   O     O_R   0.765490 0.212930 0.717130 -0.540999
O11   O     O_R   0.765490 0.212930 0.782870 -0.541003
O12   O     O_R   0.234510 0.787070 0.217130 -0.541002
O13   O     O_R   0.734510 0.712930 0.217130 -0.541004
O14   O     O_R   0.265490 0.287070 0.782870 -0.541003
O15   O     O_R   0.265490 0.287070 0.717130 -0.541003
O16   O     O_R   0.734510 0.712930 0.282870 -0.541004
C1    C     C_R   0.403088 0.795774 0.293602 0.739156
C2    C     C_R   0.596912 0.204226 0.706398 0.739156
C3    C     C_R   0.596916 0.204227 0.793603 0.739166
C4    C     C_R   0.403085 0.795774 0.206398 0.739172
C5    C     C_R   0.903088 0.704227 0.206397 0.739176
C6    C     C_R   0.096912 0.295773 0.793603 0.739171
C7    C     C_R   0.096909 0.295773 0.706397 0.739155
C8    C     C_R   0.903092 0.704227 0.293602 0.739160
O17   O     O_3   0.397750 0.727090 0.250000 -0.378344
O18   O     O_3   0.602250 0.272910 0.750000 -0.378343
O19   O     O_3   0.897750 0.772910 0.250000 -0.378342
O20   O     O_3   0.102250 0.227090 0.750000 -0.378340
V1    V     V_3+5 0.122890 0.754250 0.250000 1.370309
V2    V     V_3+5 0.877110 0.245750 0.750000 1.370306
V3    V     V_3+5 0.622890 0.745750 0.250000 1.370303
V4    V     V_3+5 0.377110 0.254250 0.750000 1.370304
C9    C     C_R   0.945238 0.612492 0.428868 0.599487
C10   C     C_R   0.054935 0.387510 0.571130 0.599449
C11   C     C_R   0.054792 0.387510 0.928866 0.599392
C12   C     C_R   0.945190 0.612487 0.071136 0.599375
C13   C     C_R   0.445221 0.887517 0.071139 0.599361
C14   C     C_R   0.554739 0.112495 0.928867 0.599316
C15   C     C_R   0.554443 0.112507 0.571127 0.599518
C16   C     C_R   0.445421 0.887509 0.428865 0.599477
O21   O     O_2   0.937723 0.648199 0.435043 -0.547439
O22   O     O_2   0.062523 0.351804 0.564953 -0.547427
O23   O     O_2   0.062298 0.351802 0.935040 -0.547481
O24   O     O_2   0.937689 0.648194 0.064962 -0.547495
O25   O     O_2   0.437773 0.851810 0.064965 -0.547532
O26   O     O_2   0.562203 0.148204 0.935038 -0.547496
O27   O     O_2   0.561624 0.148217 0.564956 -0.547475
O28   O     O_2   0.438118 0.851800 0.435039 -0.547447
N1    N     N_R   0.941335 0.600487 0.397437 -0.509893
N2    N     N_R   0.058763 0.399515 0.602563 -0.509922
N3    N     N_R   0.058710 0.399517 0.897435 -0.509888
N4    N     N_R   0.941277 0.600481 0.102566 -0.509893
N5    N     N_R   0.441261 0.899524 0.102570 -0.509863
N6    N     N_R   0.558769 0.100486 0.897437 -0.509852
N7    N     N_R   0.558814 0.100495 0.602554 -0.509787
N8    N     N_R   0.441194 0.899516 0.397437 -0.509818
C17   C     C_R   0.949030 0.564372 0.390601 0.611303
C18   C     C_R   0.051040 0.435629 0.609399 0.611285
C19   C     C_R   0.051047 0.435632 0.890600 0.611278
C20   C     C_R   0.948940 0.564366 0.109401 0.611305
C21   C     C_R   0.448868 0.935639 0.109405 0.611253
C22   C     C_R   0.551216 0.064369 0.890604 0.611260
C23   C     C_R   0.551597 0.064376 0.609387 0.611101
C24   C     C_R   0.448533 0.935634 0.390602 0.611191
C25   C     C_R   0.086485 0.631909 0.351127 0.394944
C26   C     C_R   0.913562 0.368090 0.648867 0.394850
C27   C     C_R   0.913542 0.368092 0.851126 0.394928
C28   C     C_R   0.086451 0.631904 0.148876 0.394975
C29   C     C_R   0.586441 0.868096 0.148877 0.394986
C30   C     C_R   0.413578 0.131909 0.851130 0.394861
C31   C     C_R   0.413607 0.131909 0.648860 0.394957
C32   C     C_R   0.586392 0.868096 0.351132 0.394882
C33   C     C_R   0.077835 0.658276 0.326455 -0.339794
C34   C     C_R   0.922184 0.341722 0.673539 -0.339790
C35   C     C_R   0.922180 0.341724 0.826455 -0.339715
C36   C     C_R   0.077815 0.658274 0.173546 -0.339696
C37   C     C_R   0.577808 0.841727 0.173547 -0.339646
C38   C     C_R   0.422201 0.158276 0.826458 -0.339733
C39   C     C_R   0.422215 0.158270 0.673539 -0.339764
C40   C     C_R   0.577785 0.841730 0.326458 -0.339830
C41   C     C_R   0.756168 0.670085 0.339591 -0.336083
C42   C     C_R   0.243864 0.329914 0.660412 -0.336100
C43   C     C_R   0.243857 0.329918 0.839589 -0.336008
C44   C     C_R   0.756143 0.670083 0.160411 -0.336008
C45   C     C_R   0.256128 0.829925 0.160415 -0.335931
C46   C     C_R   0.743887 0.170078 0.839586 -0.336015
C47   C     C_R   0.743871 0.170093 0.660407 -0.336101
C48   C     C_R   0.256124 0.829914 0.339589 -0.336134
C49   C     C_R   0.766336 0.645731 0.365860 0.397360
C50   C     C_R   0.233725 0.354269 0.634143 0.397351
C51   C     C_R   0.233699 0.354275 0.865857 0.397303
C52   C     C_R   0.766298 0.645726 0.134144 0.397304
C53   C     C_R   0.266286 0.854283 0.134149 0.397293
C54   C     C_R   0.733744 0.145721 0.865853 0.397291
C55   C     C_R   0.733735 0.145743 0.634133 0.397357
C56   C     C_R   0.266253 0.854268 0.365859 0.397375
C57   C     C_R   0.931113 0.626258 0.371176 0.250548
C58   C     C_R   0.068954 0.373742 0.628823 0.250550
C59   C     C_R   0.068921 0.373746 0.871174 0.250518
C60   C     C_R   0.931071 0.626252 0.128827 0.250488
C61   C     C_R   0.431059 0.873753 0.128831 0.250480
C62   C     C_R   0.568968 0.126254 0.871174 0.250612
C63   C     C_R   0.568994 0.126265 0.628816 0.250757
C64   C     C_R   0.431006 0.873745 0.371177 0.250741
C65   C     C_R   0.969015 0.550625 0.448321 -0.036893
C66   C     C_R   0.031119 0.449378 0.551679 -0.036901
C67   C     C_R   0.031041 0.449378 0.948320 -0.036910
C68   C     C_R   0.968928 0.550620 0.051681 -0.036907
C69   C     C_R   0.468899 0.949385 0.051685 -0.036892
C70   C     C_R   0.531063 0.050628 0.948324 -0.036892
C71   C     C_R   0.531099 0.050633 0.551671 -0.036850
C72   C     C_R   0.468873 0.949382 0.448317 -0.036843
C73   C     C_R   0.958994 0.587854 0.454790 -0.041429
C74   C     C_R   0.041182 0.412150 0.545209 -0.041417
C75   C     C_R   0.041030 0.412147 0.954789 -0.041399
C76   C     C_R   0.958940 0.587850 0.045212 -0.041383
C77   C     C_R   0.458976 0.912155 0.045216 -0.041383
C78   C     C_R   0.540918 0.087860 0.954792 -0.041396
C79   C     C_R   0.540558 0.087870 0.545205 -0.041439
C80   C     C_R   0.459281 0.912149 0.454785 -0.041439
C81   C     C_R   0.963934 0.599760 0.486915 -0.146109
C82   C     C_R   0.036286 0.400246 0.513085 -0.146085
C83   C     C_R   0.036056 0.400240 0.986914 -0.146100
C84   C     C_R   0.963905 0.599757 0.013088 -0.146103
C85   C     C_R   0.464005 0.900246 0.013092 -0.146128
C86   C     C_R   0.535745 0.099772 0.986916 -0.146104
C87   C     C_R   0.534916 0.099783 0.513084 -0.146143
C88   C     C_R   0.464736 0.900241 0.486905 -0.146142
C89   C     C_R   0.963648 0.538881 0.415838 -0.039171
C90   C     C_R   0.036441 0.461122 0.584162 -0.039175
C91   C     C_R   0.036443 0.461124 0.915837 -0.039156
C92   C     C_R   0.963535 0.538874 0.084164 -0.039166
C93   C     C_R   0.463442 0.961132 0.084167 -0.039156
C94   C     C_R   0.536625 0.038878 0.915842 -0.039149
C95   C     C_R   0.537061 0.038882 0.584150 -0.039112
C96   C     C_R   0.463061 0.961129 0.415838 -0.039140
C97   C     C_R   0.912295 0.677077 0.320141 -0.124585
C98   C     C_R   0.087718 0.322922 0.679857 -0.124559
C99   C     C_R   0.087720 0.322924 0.820141 -0.124642
C100  C     C_R   0.912279 0.677076 0.179859 -0.124659
C101  C     C_R   0.412270 0.822928 0.179861 -0.124722
C102  C     C_R   0.587736 0.177075 0.820141 -0.124618
C103  C     C_R   0.587734 0.177076 0.679857 -0.124587
C104  C     C_R   0.412267 0.822925 0.320142 -0.124532
H1    H     H_    0.626983 0.683865 0.334566 0.140508
H2    H     H_    0.373044 0.316135 0.665442 0.140481
H3    H     H_    0.373046 0.316140 0.834564 0.140548
H4    H     H_    0.626956 0.683862 0.165436 0.140563
H5    H     H_    0.126935 0.816150 0.165438 0.140611
H6    H     H_    0.873075 0.183855 0.834560 0.140540
H7    H     H_    0.873033 0.183880 0.665431 0.140497
H8    H     H_    0.126960 0.816128 0.334564 0.140459
H9    H     H_    0.956424 0.628247 0.492606 0.161985
H10   H     H_    0.043832 0.371760 0.507393 0.161990
H11   H     H_    0.043545 0.371751 0.992606 0.161976
H12   H     H_    0.956415 0.628245 0.007396 0.161980
H13   H     H_    0.456548 0.871758 0.007401 0.161978
H14   H     H_    0.543093 0.128263 0.992608 0.161963
H15   H     H_    0.541912 0.128276 0.507396 0.161980
H16   H     H_    0.457583 0.871750 0.492595 0.161992
C105  C     C_R   0.005547 0.512279 0.532813 0.035214
C106  C     C_R   0.994580 0.487725 0.467188 0.035215
C107  C     C_R   0.994437 0.487720 0.032813 0.035221
C108  C     C_R   0.005527 0.512279 0.967187 0.035225
C109  C     C_R   0.505669 0.987725 0.967192 0.035228
C110  C     C_R   0.494300 0.012288 0.032817 0.035220
C111  C     C_R   0.493881 0.012292 0.467185 0.035211
C112  C     C_R   0.506121 0.987726 0.532802 0.035217
C113  C     C_R   0.010410 0.462344 0.493100 0.035668
C114  C     C_R   0.989749 0.537661 0.506901 0.035669
C115  C     C_R   0.989704 0.537659 0.993100 0.035678
C116  C     C_R   0.010254 0.462339 0.006901 0.035679
C117  C     C_R   0.510092 0.037671 0.006905 0.035685
C118  C     C_R   0.489789 0.962345 0.993105 0.035679
C119  C     C_R   0.490211 0.962345 0.506891 0.035672
C120  C     C_R   0.509663 0.037676 0.493096 0.035680
C121  C     C_R   0.015669 0.474780 0.525749 0.066104
C122  C     C_R   0.984472 0.525224 0.474252 0.066100
C123  C     C_R   0.984379 0.525220 0.025750 0.066077
C124  C     C_R   0.015583 0.474778 0.974251 0.066070
C125  C     C_R   0.515582 0.025229 0.974255 0.066048
C126  C     C_R   0.484353 0.974786 0.025754 0.066068
C127  C     C_R   0.484345 0.974786 0.474246 0.066090
C128  C     C_R   0.515605 0.025232 0.525741 0.066066
C129  C     C_R   0.011765 0.523015 0.565812 -0.170776
C130  C     C_R   0.988311 0.476987 0.434190 -0.170774
C131  C     C_R   0.988137 0.476980 0.065811 -0.170771
C132  C     C_R   0.011840 0.523020 0.934188 -0.170763
C133  C     C_R   0.512194 0.976981 0.934194 -0.170752
C134  C     C_R   0.487933 0.023028 0.065815 -0.170768
C135  C     C_R   0.487136 0.023032 0.434190 -0.170789
C136  C     C_R   0.513081 0.976981 0.565795 -0.170784
C137  C     C_R   0.026862 0.497981 0.590816 -0.144526
C138  C     C_R   0.973197 0.502021 0.409186 -0.144518
C139  C     C_R   0.973039 0.502013 0.090816 -0.144514
C140  C     C_R   0.026943 0.497986 0.909184 -0.144514
C141  C     C_R   0.527301 0.002014 0.909190 -0.144516
C142  C     C_R   0.472863 0.997994 0.090819 -0.144529
C143  C     C_R   0.472095 0.997995 0.409187 -0.144524
C144  C     C_R   0.528170 0.002014 0.590799 -0.144522
O29   O     O_2   0.058099 0.446879 0.640519 -0.546495
O30   O     O_2   0.941928 0.553121 0.359482 -0.546497
O31   O     O_2   0.941829 0.553114 0.140520 -0.546504
O32   O     O_2   0.058168 0.446884 0.859481 -0.546516
O33   O     O_2   0.558430 0.053115 0.859486 -0.546530
O34   O     O_2   0.441720 0.946891 0.140523 -0.546535
O35   O     O_2   0.441168 0.946884 0.359484 -0.546535
O36   O     O_2   0.559079 0.053123 0.640504 -0.546558
C145  C     C_R   0.978864 0.575333 0.512401 -0.170590
C146  C     C_R   0.021345 0.424673 0.487599 -0.170609
C147  C     C_R   0.021113 0.424665 0.012401 -0.170587
C148  C     C_R   0.978839 0.575332 0.987600 -0.170596
C149  C     C_R   0.478960 0.924671 0.987605 -0.170589
C150  C     C_R   0.520767 0.075348 0.012404 -0.170558
C151  C     C_R   0.519886 0.075357 0.487599 -0.170542
C152  C     C_R   0.479768 0.924669 0.512389 -0.170575
H17   H     H_    0.799994 0.336073 0.687929 0.143473
H18   H     H_    0.200012 0.663925 0.312061 0.143481
H19   H     H_    0.199998 0.663923 0.187940 0.143495
H20   H     H_    0.799995 0.336075 0.812062 0.143506
H21   H     H_    0.300007 0.163926 0.812067 0.143503
H22   H     H_    0.699998 0.836076 0.187939 0.143527
H23   H     H_    0.699974 0.836083 0.312066 0.143467
H24   H     H_    0.300026 0.163913 0.687932 0.143476
H25   H     H_    0.030707 0.507786 0.615577 0.161858
H26   H     H_    0.969311 0.492214 0.384425 0.161860
H27   H     H_    0.969131 0.492205 0.115576 0.161856
H28   H     H_    0.030860 0.507795 0.884423 0.161852
H29   H     H_    0.531378 0.992202 0.884430 0.161854
H30   H     H_    0.468908 0.007802 0.115580 0.161858
H31   H     H_    0.467844 0.007804 0.384430 0.161877
H32   H     H_    0.532584 0.992202 0.615556 0.161882
H33   H     H_    0.005286 0.550710 0.573452 0.118251
H34   H     H_    0.994747 0.449292 0.426551 0.118249
H35   H     H_    0.994545 0.449283 0.073450 0.118244
H36   H     H_    0.005443 0.550718 0.926549 0.118236
H37   H     H_    0.505987 0.949280 0.926555 0.118231
H38   H     H_    0.494286 0.050725 0.073455 0.118247
H39   H     H_    0.493186 0.050731 0.426554 0.118255
H40   H     H_    0.507232 0.949278 0.573428 0.118248
H41   H     H_    0.981502 0.587186 0.536211 0.118124
H42   H     H_    0.018751 0.412823 0.463789 0.118128
H43   H     H_    0.018452 0.412812 0.036213 0.118111
H44   H     H_    0.981484 0.587186 0.963789 0.118114
H45   H     H_    0.481629 0.912816 0.963795 0.118116
H46   H     H_    0.517923 0.087208 0.036216 0.118096
H47   H     H_    0.516621 0.087216 0.463791 0.118105
H48   H     H_    0.482794 0.912816 0.536197 0.118126
O37   O     O_3   0.614161 0.638019 0.385333 -0.535273
C153  C     C_3   0.527324 0.669830 0.396555 0.153024
H49   H     H_    0.426939 0.679755 0.378117 0.120994
H50   H     H_    0.629373 0.691531 0.402359 0.116820
C154  C     C_3   0.420560 0.661168 0.427407 -0.608949
H51   H     H_    0.518167 0.652495 0.446759 0.219121
H52   H     H_    0.343845 0.685412 0.435775 0.175066
H53   H     H_    0.320146 0.639095 0.422733 0.247869
O38   O     O_3   0.385922 0.361986 0.614676 -0.535287
C155  C     C_3   0.472875 0.330181 0.603470 0.153198
H54   H     H_    0.370849 0.308473 0.597645 0.116780
H55   H     H_    0.573165 0.320261 0.621932 0.120915
C156  C     C_3   0.579869 0.338852 0.572633 -0.608783
H56   H     H_    0.680114 0.360960 0.577325 0.247900
H57   H     H_    0.656853 0.314626 0.564293 0.175107
H58   H     H_    0.482338 0.347483 0.553250 0.219022
O39   O     O_3   0.385896 0.361993 0.885324 -0.535277
C157  C     C_3   0.472623 0.330184 0.896574 0.153056
H59   H     H_    0.572899 0.320215 0.878136 0.120902
H60   H     H_    0.370483 0.308507 0.902413 0.116904
C158  C     C_3   0.579556 0.338875 0.927408 -0.608862
H61   H     H_    0.482030 0.347565 0.946766 0.219034
H62   H     H_    0.656329 0.314639 0.935787 0.175090
H63   H     H_    0.679959 0.360947 0.922701 0.247924
O40   O     O_3   0.614100 0.638009 0.114677 -0.535271
C159  C     C_3   0.527436 0.669820 0.103417 0.152967
H64   H     H_    0.629617 0.691479 0.097559 0.117001
H65   H     H_    0.427236 0.679814 0.121855 0.120832
C160  C     C_3   0.420415 0.661119 0.072599 -0.608888
H66   H     H_    0.319960 0.639065 0.077326 0.247967
H67   H     H_    0.343713 0.685360 0.064214 0.175067
H68   H     H_    0.517847 0.652401 0.053238 0.219025
O41   O     O_3   0.114096 0.861997 0.114686 -0.535275
C161  C     C_3   0.027573 0.830184 0.103399 0.152843
H69   H     H_    0.927335 0.820165 0.121820 0.120873
H70   H     H_    0.129843 0.808543 0.097538 0.117082
C162  C     C_3   0.920643 0.838891 0.072577 -0.609047
H71   H     H_    0.018154 0.847631 0.053238 0.219091
H72   H     H_    0.844017 0.814650 0.064165 0.175080
H73   H     H_    0.820117 0.860930 0.077308 0.248011
O42   O     O_3   0.885950 0.138002 0.885317 -0.535290
C163  C     C_3   0.972704 0.169810 0.896566 0.153063
H74   H     H_    0.870558 0.191498 0.902388 0.116827
H75   H     H_    0.073069 0.179760 0.878133 0.120983
C164  C     C_3   0.079519 0.161124 0.927419 -0.608860
H76   H     H_    0.180040 0.139064 0.922722 0.247887
H77   H     H_    0.156202 0.185366 0.935821 0.175081
H78   H     H_    0.981877 0.152424 0.946755 0.219113
O43   O     O_3   0.885877 0.138055 0.614646 -0.535308
C165  C     C_3   0.972651 0.169883 0.603445 0.152920
H79   H     H_    0.073174 0.179778 0.621883 0.121090
H80   H     H_    0.870565 0.191604 0.597685 0.116601
C166  C     C_3   0.079210 0.161256 0.572558 -0.608748
H81   H     H_    0.981419 0.152630 0.553220 0.219088
H82   H     H_    0.156004 0.185507 0.564196 0.175093
H83   H     H_    0.179620 0.139153 0.577186 0.247901
O44   O     O_3   0.114091 0.861968 0.385340 -0.535307
C167  C     C_3   0.027168 0.830151 0.396526 0.152981
H84   H     H_    0.129168 0.808415 0.402284 0.116578
H85   H     H_    0.926651 0.820283 0.378079 0.121130
C168  C     C_3   0.920573 0.838778 0.427413 -0.608715
H86   H     H_    0.820125 0.860872 0.422777 0.247857
H87   H     H_    0.843838 0.814523 0.435777 0.175071
H88   H     H_    0.018366 0.847409 0.446755 0.219132
O45   O     O_3   0.751704 0.386910 0.641860 -0.535608
C169  C     C_3   0.670378 0.401412 0.670228 0.139814
H89   H     H_    0.776209 0.410499 0.688244 0.117358
H90   H     H_    0.577721 0.381040 0.681591 0.113532
C170  C     C_3   0.553760 0.434048 0.661015 -0.605552
H91   H     H_    0.445155 0.426254 0.643262 0.254924
H92   H     H_    0.485607 0.445267 0.682974 0.166901
H93   H     H_    0.643365 0.455140 0.650025 0.223120
O46   O     O_3   0.248351 0.613090 0.358130 -0.535562
C171  C     C_3   0.329683 0.598595 0.329760 0.139777
H94   H     H_    0.422335 0.618971 0.318402 0.113536
H95   H     H_    0.223857 0.589511 0.311742 0.117328
C172  C     C_3   0.446310 0.565959 0.338969 -0.605530
H96   H     H_    0.356708 0.544861 0.349952 0.223112
H97   H     H_    0.514487 0.554748 0.317009 0.166897
H98   H     H_    0.554895 0.573750 0.356727 0.254929
O47   O     O_3   0.248313 0.613084 0.141875 -0.535554
C173  C     C_3   0.329614 0.598582 0.170246 0.139791
H99   H     H_    0.223767 0.589493 0.188256 0.117331
H100  H     H_    0.422257 0.618954 0.181613 0.113553
C174  C     C_3   0.446248 0.565948 0.161036 -0.605553
H101  H     H_    0.554865 0.573745 0.143288 0.254951
H102  H     H_    0.514387 0.554729 0.182997 0.166895
H103  H     H_    0.356659 0.544856 0.150041 0.223113
O48   O     O_3   0.751674 0.386910 0.858128 -0.535563
C175  C     C_3   0.670411 0.401424 0.829759 0.139766
H104  H     H_    0.577783 0.381057 0.818381 0.113536
H105  H     H_    0.776281 0.410519 0.811755 0.117370
C176  C     C_3   0.553766 0.434055 0.838974 -0.605557
H106  H     H_    0.643338 0.455141 0.849982 0.223117
H107  H     H_    0.485676 0.445285 0.817013 0.166893
H108  H     H_    0.445112 0.426251 0.856712 0.254951
O49   O     O_3   0.251721 0.113090 0.858134 -0.535575
C177  C     C_3   0.170452 0.098575 0.829767 0.139728
H109  H     H_    0.276318 0.089486 0.811759 0.117343
H110  H     H_    0.077785 0.118938 0.818395 0.113583
C178  C     C_3   0.053868 0.065937 0.838983 -0.605532
H111  H     H_    0.945222 0.073733 0.856726 0.254984
H112  H     H_    0.985768 0.054706 0.817025 0.166916
H113  H     H_    0.143485 0.044856 0.849986 0.223094
O50   O     O_3   0.748308 0.886912 0.141877 -0.535529
C179  C     C_3   0.829517 0.901436 0.170248 0.139773
H114  H     H_    0.922136 0.881072 0.181636 0.113532
H115  H     H_    0.723608 0.910536 0.188243 0.117368
C180  C     C_3   0.946159 0.934065 0.161032 -0.605528
H116  H     H_    0.856596 0.955145 0.150009 0.223114
H117  H     H_    0.014185 0.945306 0.182995 0.166883
H118  H     H_    0.054869 0.926255 0.143306 0.254958
O51   O     O_3   0.748230 0.886919 0.358142 -0.535599
C181  C     C_3   0.829595 0.901416 0.329776 0.139505
H119  H     H_    0.723789 0.910494 0.311751 0.117311
H120  H     H_    0.922299 0.881043 0.318425 0.113634
C182  C     C_3   0.946159 0.934057 0.338990 -0.605491
H121  H     H_    0.054658 0.926273 0.356767 0.255027
H122  H     H_    0.014438 0.945258 0.317037 0.166997
H123  H     H_    0.856489 0.955158 0.349952 0.223010
O52   O     O_3   0.251762 0.113093 0.641844 -0.535589
C183  C     C_3   0.170408 0.098583 0.670205 0.139373
H124  H     H_    0.077707 0.118950 0.681565 0.113684
H125  H     H_    0.276214 0.089495 0.688225 0.117321
C184  C     C_3   0.053849 0.065947 0.660977 -0.605486
H126  H     H_    0.143526 0.044847 0.650015 0.222954
H127  H     H_    0.985522 0.054741 0.682922 0.167055
H128  H     H_    0.945399 0.073738 0.643196 0.255082

loop_
_geom_bond_atom_site_label_1
_geom_bond_atom_site_label_2
_ccdc_geom_bond_type
C69   C126  A    
C112  C119  A    
C129  H33   S    
C140  H28   S    
C151  H47   S    
C180  H116  S    
C163  C164  S    
C48   H8    S    
C171  H95   S    
C10   O22   S    
C133  H37   S    
C20   C92   A    
O48   C175  S    
C21   C93   A    
O15   V4    S    
C166  H81   S    
O16   V3    S    
C19   C91   A    
C161  H69   S    
C114  C122  A    
C119  C127  A    
C25   O46   S    
C166  H83   S    
C171  C172  S    
C153  H50   S    
C66   C90   A    
C159  H64   S    
C143  H31   S    
C85   C149  A    
C17   O30   S    
C11   C75   A    
C66   C121  A    
C21   O34   S    
C153  C154  S    
C176  H107  S    
C68   C92   A    
C135  H39   S    
C55   O43   S    
C70   C78   A    
N6    C62   S    
C89   C138  A    
C75   C83   A    
C173  H99   S    
C69   C93   A    
C39   H24   S    
C146  H42   S    
C184  H128  S    
C53   C61   A    
C72   C80   A    
C169  H89   S    
C174  H101  S    
C6    C99   S    
C170  H93   S    
O10   V2    S    
O12   C4    A    
C30   C62   A    
C167  H84   S    
O13   C5    A    
C107  C116  A    
C173  H100  S    
O6    V2    S    
C180  H118  S    
C23   O36   S    
C56   C64   A    
C11   N3    A    
C12   O24   S    
C165  H79   S    
C45   C101  A    
C111  C135  A    
C15   O27   S    
C26   O45   S    
C133  C141  A    
C120  C128  A    
O1    C4    A    
O2    C3    A    
C108  C132  A    
C29   C61   A    
C152  H48   S    
O7    C6    A    
C43   C51   A    
C112  C136  A    
C139  H27   S    
C118  C149  A    
C119  C152  A    
C184  H127  S    
C137  H25   S    
C162  H72   S    
C182  H121  S    
C40   H23   S    
C68   C76   A    
C106  C113  A    
C33   C97   A    
O10   C2    A    
C136  C144  A    
C37   C101  A    
N1    C57   S    
C13   C77   A    
C54   C62   A    
C42   C98   A    
O46   C171  S    
C49   C57   A    
C144  H32   S    
C28   O47   S    
C51   O39   S    
C169  H90   S    
C23   C95   A    
O17   V3    S    
C24   C96   A    
O18   V4    S    
C178  H111  S    
O12   V1    S    
O19   V1    S    
C29   C37   A    
C110  C126  A    
C90   C137  A    
C87   C151  A    
C118  C126  A    
C31   C39   A    
C183  H124  S    
O37   C153  S    
C1    C104  S    
O8    V1    S    
C65   C73   A    
C2    C103  S    
C46   H6    S    
C156  H56   S    
C136  H40   S    
C181  H119  S    
C36   H19   S    
C26   C34   A    
O1    V3    S    
N1    C17   A    
O2    V4    S    
O38   C155  S    
C172  H97   S    
N4    C20   A    
C45   C53   A    
C19   O32   S    
C39   C103  A    
C70   C125  A    
C40   C104  A    
N7    C23   A    
C82   C146  A    
C11   O23   S    
C156  H57   S    
C12   N4    A    
C177  H110  S    
C13   N5    A    
C160  H66   S    
C115  C123  A    
C172  H96   S    
C72   C96   A    
C113  C121  A    
C55   C63   A    
O40   C159  S    
C168  H87   S    
C24   O35   S    
N2    C58   S    
C183  C184  S    
C32   O51   S    
C182  H123  S    
C145  H41   S    
C52   C60   A    
C109  C118  A    
N4    C60   S    
C68   C123  A    
C28   C60   A    
C164  H76   S    
C56   O44   S    
C86   H14   S    
C109  C133  A    
O42   C163  S    
C120  C151  A    
C149  H45   S    
C157  H60   S    
C88   C152  A    
C178  H113  S    
C175  H105  S    
C107  C123  A    
C70   C94   A    
C27   C35   A    
C12   C76   A    
C177  C178  S    
C31   C63   A    
C4    C101  S    
C130  C138  A    
C157  C158  S    
C154  H53   S    
C26   C58   A    
C141  H29   S    
C8    C97   S    
C28   C36   A    
C175  C176  S    
C9    C73   A    
O14   C6    A    
C84   H12   S    
C155  H54   S    
C32   C40   A    
C35   C99   A    
C115  C148  A    
C15   C79   A    
C113  C146  A    
C33   H18   S    
C159  H65   S    
C105  C121  A    
C14   O26   S    
C37   H22   S    
C73   C81   A    
C161  C162  S    
C179  H114  S    
C160  H68   S    
C44   C52   A    
C51   C59   A    
C52   O40   S    
C77   C85   A    
C130  H34   S    
C79   C87   A    
C94   C141  A    
C48   C56   A    
C159  C160  S    
C7    C98   S    
C134  H38   S    
C116  C147  A    
C43   C99   A    
O50   C179  S    
C69   C77   A    
C83   H11   S    
C41   C97   A    
C34   C98   A    
O11   C3    A    
C81   H9    S    
C164  H78   S    
C38   C102  A    
C85   H13   S    
C168  H88   S    
C9    N1    A    
C163  H74   S    
O47   C173  S    
C170  H92   S    
C105  C129  A    
C86   C150  A    
C15   N7    A    
O11   V2    S    
N5    C61   S    
C16   N8    A    
C173  C174  S    
C92   C139  A    
C167  H85   S    
C108  C124  A    
C27   C59   A    
C41   C49   A    
C116  C124  A    
C169  C170  S    
C166  H82   S    
C171  H94   S    
C117  C125  A    
C180  H117  S    
O7    V2    S    
C158  H61   S    
C44   C100  A    
C54   O42   S    
C165  H80   S    
C42   H2    S    
C72   C127  A    
C174  H102  S    
C167  C168  S    
N2    C18   A    
C147  H43   S    
N8    C64   S    
C95   C144  A    
C158  H62   S    
C32   C64   A    
C153  H49   S    
C176  H106  S    
C165  C166  S    
C162  H71   S    
C156  H58   S    
C14   N6    A    
C31   O52   S    
O4    C1    A    
C16   C80   A    
C3    C102  S    
C84   C148  A    
C134  C142  A    
C110  C117  A    
C44   H4    S    
C76   C84   A    
C161  H70   S    
O13   V3    S    
O14   V4    S    
C183  H125  S    
C80   C88   A    
N6    C22   A    
C42   C50   A    
C9    O21   S    
C138  H26   S    
C117  C150  A    
C71   C95   A    
O45   C169  S    
C154  H51   S    
C181  H120  S    
C35   H20   S    
C18   C90   A    
O3    V4    S    
O4    V3    S    
C14   C78   A    
C148  H44   S    
O44   C167  S    
C158  H63   S    
C5    C100  S    
C50   O38   S    
C181  C182  S    
C93   C142  A    
C67   C124  A    
C30   C38   A    
O43   C165  S    
C91   C140  A    
C65   C122  A    
C53   O41   S    
C168  H86   S    
O5    C8    A    
C66   C74   A    
C17   C89   A    
C135  C143  A    
C27   O48   S    
C162  H73   S    
C182  H122  S    
C30   O49   S    
N7    C63   S    
C25   C33   A    
O3    C2    A    
C107  C131  A    
C16   O28   S    
C96   C143  A    
C46   C54   A    
C111  C127  A    
C18   O29   S    
C112  C128  A    
C83   C147  A    
C81   C145  A    
O39   C157  S    
C22   O33   S    
C132  H36   S    
O9    V1    S    
C41   H1    S    
O15   C7    A    
C178  H112  S    
C47   H7    S    
C82   H10   S    
N5    C21   A    
C174  H103  S    
O5    V1    S    
C36   C100  A    
N3    C59   S    
C10   N2    A    
C106  C122  A    
C46   C102  A    
C67   C91   A    
C49   O37   S    
C154  H52   S    
C65   C89   A    
O41   C161  S    
C47   C55   A    
C110  C134  A    
C29   O50   S    
C172  H98   S    
C155  H55   S    
C20   O31   S    
C106  C130  A    
N8    C24   A    
O8    C5    A    
C150  H46   S    
C67   C75   A    
C43   H3    S    
C105  C114  A    
C71   C79   A    
O9    C1    A    
C179  H115  S    
C160  H67   S    
C155  C156  S    
N3    C19   A    
C87   H15   S    
C88   H16   S    
O52   C183  S    
C176  H108  S    
C131  C139  A    
C129  C137  A    
C142  H30   S    
C10   C74   A    
C179  C180  S    
O51   C181  S    
C109  C125  A    
C22   C94   A    
O20   V2    S    
C25   C57   A    
C164  H77   S    
C184  H126  S    
C177  H109  S    
C114  C145  A    
O6    C7    A    
C34   H17   S    
C71   C128  A    
C48   C104  A    
C163  H75   S    
C170  H91   S    
C45   H5    S    
C157  H59   S    
C38   H21   S    
C74   C82   A    
C132  C140  A    
O16   C8    A    
C175  H104  S    
C108  C115  A    
C78   C86   A    
C47   C103  A    
O49   C177  S    
C13   O25   S    
C50   C58   A    
C131  H35   S    
C111  C120  A    
