data_mof_unit_52164.cif
_audit_creation_date              2012-12-11T16:21:22-0500
_audit_creation_method            fapswitch 2.2
_symmetry_space_group_name_H-M    P1
_symmetry_Int_Tables_number       1
_space_group_crystal_system       triclinic
_cell_length_a                    7.237209
_cell_length_b                    36.293997
_cell_length_c                    41.866864
_cell_angle_alpha                 90.084837
_cell_angle_beta                  90.280312
_cell_angle_gamma                 89.880903
_cell_volume                      10996.886431

loop_
_atom_site_label
_atom_site_type_symbol
_atom_type_description
_atom_site_fract_x
_atom_site_fract_y
_atom_site_fract_z
_atom_type_partial_charge
O1    O     O_R   0.564240 0.782760 0.216890 -0.521886
O2    O     O_R   0.435760 0.217240 0.783110 -0.509387
O3    O     O_R   0.435760 0.217240 0.716890 -0.532375
O4    O     O_R   0.564240 0.782760 0.283110 -0.552454
O5    O     O_R   0.064240 0.717240 0.283110 -0.531632
O6    O     O_R   0.935760 0.282760 0.716890 -0.522088
O7    O     O_R   0.935760 0.282760 0.783110 -0.534608
O8    O     O_R   0.064240 0.717240 0.216890 -0.554696
O9    O     O_R   0.234510 0.787070 0.282870 -0.534694
O10   O     O_R   0.765490 0.212930 0.717130 -0.545224
O11   O     O_R   0.765490 0.212930 0.782870 -0.534552
O12   O     O_R   0.234510 0.787070 0.217130 -0.528045
O13   O     O_R   0.734510 0.712930 0.217130 -0.533571
O14   O     O_R   0.265490 0.287070 0.782870 -0.554938
O15   O     O_R   0.265490 0.287070 0.717130 -0.519123
O16   O     O_R   0.734510 0.712930 0.282870 -0.534563
C1    C     C_R   0.403081 0.795269 0.293753 0.852289
C2    C     C_R   0.597199 0.204730 0.706179 0.853453
C3    C     C_R   0.598014 0.204346 0.793983 0.768900
C4    C     C_R   0.402203 0.795767 0.206396 0.839397
C5    C     C_R   0.903106 0.704109 0.206687 0.867989
C6    C     C_R   0.097908 0.295487 0.793866 0.807021
C7    C     C_R   0.096698 0.295276 0.706111 0.835982
C8    C     C_R   0.902860 0.704260 0.293488 0.865969
O17   O     O_3   0.397750 0.727090 0.250000 -0.399239
O18   O     O_3   0.602250 0.272910 0.750000 -0.391911
O19   O     O_3   0.897750 0.772910 0.250000 -0.392051
O20   O     O_3   0.102250 0.227090 0.750000 -0.379756
V1    V     V_3+5 0.122890 0.754250 0.250000 1.490483
V2    V     V_3+5 0.877110 0.245750 0.750000 1.489112
V3    V     V_3+5 0.622890 0.745750 0.250000 1.487302
V4    V     V_3+5 0.377110 0.254250 0.750000 1.503403
C9    C     C_R   0.791447 0.604827 0.424631 0.600324
C10   C     C_R   0.191184 0.401371 0.579137 0.592851
C11   C     C_R   0.157526 0.392288 0.926391 0.628508
C12   C     C_R   0.754064 0.582416 0.092154 0.668166
C13   C     C_R   0.415036 0.886335 0.068879 0.635151
C14   C     C_R   0.542452 0.115333 0.931879 0.586789
C15   C     C_R   0.674279 0.101732 0.578358 0.670828
C16   C     C_R   0.278899 0.903378 0.418856 0.656165
O21   O     O_2   0.640189 0.626412 0.422315 -0.542721
O22   O     O_2   0.346274 0.380945 0.582227 -0.495737
O23   O     O_2   0.304320 0.369558 0.924217 -0.558149
O24   O     O_2   0.589126 0.596604 0.100357 -0.503166
O25   O     O_2   0.349325 0.852414 0.062334 -0.526889
O26   O     O_2   0.533364 0.151712 0.938350 -0.556584
O27   O     O_2   0.826233 0.122831 0.581737 -0.537583
O28   O     O_2   0.114942 0.887674 0.412001 -0.505082
N1    N     N_R   0.927016 0.607524 0.402236 -0.522251
N2    N     N_R   0.047302 0.396000 0.599674 -0.539026
N3    N     N_R   0.025318 0.391905 0.903057 -0.490684
N4    N     N_R   0.908923 0.591646 0.109244 -0.505136
N5    N     N_R   0.457148 0.895913 0.099710 -0.521417
N6    N     N_R   0.549504 0.103586 0.900874 -0.486368
N7    N     N_R   0.532855 0.105195 0.599618 -0.499616
N8    N     N_R   0.429609 0.895693 0.400381 -0.519310
C17   C     C_R   0.077483 0.584629 0.403035 0.635384
C18   C     C_R   0.889488 0.416727 0.597277 0.674799
C19   C     C_R   0.877822 0.415502 0.904291 0.680014
C20   C     C_R   0.071466 0.573058 0.104144 0.684110
C21   C     C_R   0.521298 0.930535 0.106840 0.627888
C22   C     C_R   0.554364 0.066797 0.893521 0.705978
C23   C     C_R   0.383678 0.082120 0.598218 0.630986
C24   C     C_R   0.592011 0.914438 0.405053 0.744968
C25   C     C_R   0.831866 0.619863 0.346178 0.235445
C26   C     C_R   0.175553 0.378933 0.652873 0.302467
C27   C     C_R   0.152242 0.379097 0.849575 0.273958
C28   C     C_R   0.949644 0.611240 0.165434 0.278092
C29   C     C_R   0.299738 0.875954 0.149599 0.222363
C30   C     C_R   0.407331 0.135821 0.855240 0.235173
C31   C     C_R   0.622702 0.117914 0.655098 0.282217
C32   C     C_R   0.444832 0.883154 0.342599 0.291974
C33   C     C_R   0.850184 0.641903 0.318272 0.304697
C34   C     C_R   0.180597 0.354839 0.679202 0.309956
C35   C     C_R   0.178148 0.355082 0.823071 0.183388
C36   C     C_R   0.967976 0.639543 0.188521 0.184573
C37   C     C_R   0.302713 0.854146 0.177717 0.312005
C38   C     C_R   0.427154 0.157113 0.827038 0.293229
C39   C     C_R   0.651866 0.142853 0.680642 0.179451
C40   C     C_R   0.458045 0.858040 0.316912 0.181892
C41   C     C_R   0.959144 0.692912 0.351530 0.176544
C42   C     C_R   0.979037 0.311722 0.651236 0.210142
C43   C     C_R   0.991078 0.308621 0.849485 0.162967
C44   C     C_R   0.869637 0.684933 0.149510 0.168530
C45   C     C_R   0.518626 0.812153 0.152061 0.151336
C46   C     C_R   0.743893 0.171761 0.842738 0.147187
C47   C     C_R   0.515132 0.192385 0.649023 0.200352
C48   C     C_R   0.384518 0.807374 0.352430 0.179476
C49   C     C_R   0.969572 0.668962 0.378280 0.304939
C50   C     C_R   0.970289 0.336316 0.624896 0.346023
C51   C     C_R   0.961501 0.333044 0.875473 0.263382
C52   C     C_R   0.856675 0.656931 0.125761 0.256565
C53   C     C_R   0.544250 0.837888 0.126901 0.312585
C54   C     C_R   0.726919 0.147970 0.869171 0.346852
C55   C     C_R   0.498657 0.167896 0.622629 0.252692
C56   C     C_R   0.381631 0.832191 0.378866 0.266955
C57   C     C_R   0.905123 0.632598 0.375608 0.146799
C58   C     C_R   0.066817 0.370055 0.625769 0.087372
C59   C     C_R   0.047532 0.367624 0.875867 0.205778
C60   C     C_R   0.901411 0.620085 0.133708 0.203122
C61   C     C_R   0.432161 0.869554 0.125373 0.109937
C62   C     C_R   0.559405 0.130250 0.875360 0.179628
C63   C     C_R   0.551252 0.130695 0.625962 0.201427
C64   C     C_R   0.414996 0.870108 0.373778 0.196440
C65   C     C_R   0.962233 0.555601 0.451539 -0.110525
C66   C     C_R   0.018683 0.450175 0.552124 -0.105208
C67   C     C_R   0.987915 0.439860 0.955308 -0.109984
C68   C     C_R   0.930248 0.537886 0.061150 -0.102435
C69   C     C_R   0.502264 0.947564 0.050695 -0.106243
C70   C     C_R   0.549532 0.051714 0.950140 -0.094161
C71   C     C_R   0.509293 0.052299 0.550962 -0.103911
C72   C     C_R   0.455941 0.948851 0.449015 -0.133342
C73   C     C_R   0.806237 0.578966 0.449514 -0.007988
C74   C     C_R   0.178962 0.428216 0.554988 0.003305
C75   C     C_R   0.143071 0.416498 0.952458 -0.006733
C76   C     C_R   0.765561 0.557659 0.066316 -0.008007
C77   C     C_R   0.437843 0.911739 0.043905 -0.007181
C78   C     C_R   0.543255 0.089720 0.957026 0.000066
C79   C     C_R   0.663407 0.075909 0.553324 -0.010734
C80   C     C_R   0.292598 0.928378 0.444519 -0.027030
C81   C     C_R   0.661508 0.574357 0.470947 -0.205346
C82   C     C_R   0.328294 0.435016 0.534948 -0.110992
C83   C     C_R   0.286835 0.419212 0.974575 -0.202857
C84   C     C_R   0.613718 0.551076 0.046511 -0.115415
C85   C     C_R   0.393854 0.902165 0.012383 -0.177836
C86   C     C_R   0.536664 0.101382 0.988841 -0.190864
C87   C     C_R   0.809293 0.071583 0.532047 -0.197572
C88   C     C_R   0.142548 0.934836 0.464543 -0.159390
C89   C     C_R   0.098062 0.557770 0.427563 -0.166540
C90   C     C_R   0.875899 0.445700 0.574605 -0.230473
C91   C     C_R   0.854010 0.439873 0.930688 -0.179462
C92   C     C_R   0.078941 0.543141 0.082400 -0.225947
C93   C     C_R   0.548139 0.957068 0.082425 -0.211398
C94   C     C_R   0.560358 0.039903 0.918036 -0.226287
C95   C     C_R   0.374739 0.053638 0.575048 -0.199383
C96   C     C_R   0.603823 0.943350 0.427783 -0.160064
C97   C     C_R   0.909003 0.678862 0.321352 -0.249673
C98   C     C_R   0.086453 0.320908 0.678354 -0.282471
C99   C     C_R   0.090675 0.320182 0.822507 -0.246268
C100  C     C_R   0.911994 0.675709 0.181213 -0.246090
C101  C     C_R   0.409471 0.821503 0.178587 -0.268785
C102  C     C_R   0.590035 0.178007 0.821858 -0.311175
C103  C     C_R   0.588036 0.179516 0.678244 -0.250904
C104  C     C_R   0.411449 0.820819 0.321357 -0.243110
H1    H     H_    0.534962 0.590172 0.468612 0.160866
H2    H     H_    0.458304 0.420569 0.538086 0.159566
H3    H     H_    0.412775 0.403351 0.971742 0.163006
H4    H     H_    0.482500 0.564587 0.050738 0.156052
H5    H     H_    0.338846 0.875221 0.006591 0.165345
H6    H     H_    0.527818 0.130392 0.994790 0.164113
H7    H     H_    0.934996 0.087510 0.534665 0.160864
H8    H     H_    0.012461 0.920708 0.460853 0.163064
C105  C     C_R   0.847659 0.500658 0.525648 -0.154470
C106  C     C_R   0.131685 0.504940 0.477951 -0.119162
C107  C     C_R   0.102450 0.489532 0.032471 -0.156996
C108  C     C_R   0.815918 0.487746 0.984634 -0.119614
C109  C     C_R   0.530263 0.987631 0.968317 -0.155902
C110  C     C_R   0.563450 0.010969 0.032780 -0.153094
C111  C     C_R   0.625338 0.998713 0.476266 -0.113789
C112  C     C_R   0.339929 0.002371 0.523718 -0.124180
C113  C     C_R   0.149841 0.480651 0.504720 0.112302
C114  C     C_R   0.832026 0.526186 0.499620 0.091700
C115  C     C_R   0.796209 0.509544 0.012906 0.112079
C116  C     C_R   0.117224 0.465493 0.005368 0.091359
C117  C     C_R   0.550901 0.037666 0.007732 0.104836
C118  C     C_R   0.491280 0.962629 0.993518 0.103358
C119  C     C_R   0.321582 0.978841 0.496425 0.115833
C120  C     C_R   0.639954 0.023933 0.502515 0.089839
C121  C     C_R   0.003875 0.476987 0.527175 0.015762
C122  C     C_R   0.977035 0.529161 0.476700 0.014971
C123  C     C_R   0.944244 0.512455 0.035213 0.018438
C124  C     C_R   0.972043 0.464101 0.982068 0.017002
C125  C     C_R   0.543729 0.025609 0.975442 0.018765
C126  C     C_R   0.519416 0.973805 0.025648 0.015342
C127  C     C_R   0.469130 0.975255 0.474258 0.017044
C128  C     C_R   0.495079 0.026357 0.525454 0.007169
C129  C     C_R   0.719835 0.499296 0.551637 0.350648
C130  C     C_R   0.256713 0.504252 0.451447 0.336401
C131  C     C_R   0.232983 0.490183 0.058336 0.351070
C132  C     C_R   0.690995 0.490516 0.958049 0.338901
C133  C     C_R   0.564061 0.975973 0.936427 0.363811
C134  C     C_R   0.623215 0.019449 0.064436 0.354300
C135  C     C_R   0.754852 0.997460 0.450563 0.257413
C136  C     C_R   0.217004 0.000766 0.550515 0.339571
C137  C     C_R   0.728858 0.471307 0.574621 0.318084
C138  C     C_R   0.240963 0.531207 0.427086 0.284258
C139  C     C_R   0.226560 0.517721 0.081837 0.321150
C140  C     C_R   0.709437 0.466089 0.931768 0.281702
C141  C     C_R   0.578837 0.001714 0.911643 0.326919
C142  C     C_R   0.618020 0.992807 0.088670 0.328475
C143  C     C_R   0.753391 0.968072 0.428373 0.329983
C144  C     C_R   0.242093 0.025273 0.576516 0.304198
O29   O     O_2   0.746740 0.409172 0.616777 -0.465657
O30   O     O_2   0.205113 0.587773 0.379849 -0.516941
O31   O     O_2   0.225615 0.583921 0.119671 -0.488991
O32   O     O_2   0.756744 0.415562 0.879790 -0.528155
O33   O     O_2   0.550480 0.056489 0.862559 -0.510727
O34   O     O_2   0.555260 0.939337 0.137589 -0.515701
O35   O     O_2   0.740889 0.905286 0.387447 -0.457852
O36   O     O_2   0.243316 0.087129 0.618849 -0.518222
C145  C     C_R   0.670671 0.547524 0.494411 -0.198665
C146  C     C_R   0.315719 0.461548 0.511207 -0.104216
C147  C     C_R   0.278014 0.444353 0.999420 -0.201189
C148  C     C_R   0.628007 0.526953 0.020837 -0.096745
C149  C     C_R   0.419965 0.927112 0.987673 -0.161407
C150  C     C_R   0.541376 0.075949 0.013654 -0.177424
C151  C     C_R   0.801087 0.045152 0.508131 -0.193020
C152  C     C_R   0.155548 0.960138 0.489349 -0.103996
H9    H     H_    0.542848 0.542767 0.506615 0.181902
H10   H     H_    0.441958 0.468155 0.499423 0.133859
H11   H     H_    0.405484 0.447862 0.012230 0.183135
H12   H     H_    0.501970 0.520695 0.008577 0.132104
H13   H     H_    0.375649 0.918587 0.964164 0.175814
H14   H     H_    0.527970 0.087136 0.037332 0.187230
H15   H     H_    0.928839 0.040683 0.495745 0.184747
H16   H     H_    0.029323 0.966159 0.501472 0.139918
O37   O     O_3   0.992378 0.730252 0.354252 -0.625647
H17   H     H_    0.981087 0.737462 0.376965 0.311183
O38   O     O_3   0.886160 0.278434 0.651104 -0.620351
H18   H     H_    0.815562 0.275644 0.630947 0.335474
O39   O     O_3   0.925514 0.273039 0.850024 -0.661555
H19   H     H_    0.899622 0.265802 0.872340 0.307119
O40   O     O_3   0.855273 0.721721 0.142023 -0.635652
H20   H     H_    0.886815 0.724744 0.119217 0.307159
O41   O     O_3   0.591693 0.777075 0.150620 -0.612355
H21   H     H_    0.616005 0.771008 0.127966 0.328754
O42   O     O_3   0.916826 0.185636 0.836733 -0.618687
H22   H     H_    0.902281 0.211945 0.831833 0.344360
O43   O     O_3   0.465905 0.229160 0.646899 -0.626554
H23   H     H_    0.426147 0.234999 0.624841 0.323394
O44   O     O_3   0.374902 0.769737 0.356420 -0.630152
H24   H     H_    0.430340 0.763717 0.377430 0.301801
O45   O     O_3   0.025662 0.681552 0.408016 -0.567113
C153  C     C_3   0.219548 0.686131 0.408324 0.073348
H25   H     H_    0.261576 0.707844 0.391178 0.155919
H26   H     H_    0.291023 0.659939 0.401896 0.180829
C154  C     C_3   0.280496 0.697418 0.442005 -0.300484
H27   H     H_    0.183746 0.718455 0.451612 0.205490
H28   H     H_    0.275520 0.672918 0.457884 0.204777
C155  C     C_3   0.475421 0.713495 0.442471 -0.782716
H29   H     H_    0.574342 0.694811 0.430396 0.285137
H30   H     H_    0.521277 0.717585 0.467569 0.230698
H31   H     H_    0.476889 0.740627 0.430310 0.226316
O46   O     O_3   0.857238 0.328624 0.599014 -0.539633
C156  C     C_3   0.964180 0.313928 0.573811 0.075554
H32   H     H_    0.960260 0.283393 0.575188 0.123087
H33   H     H_    0.112126 0.322602 0.574432 0.141512
C157  C     C_3   0.880057 0.326322 0.542037 -0.253833
H34   H     H_    0.738307 0.314882 0.539603 0.207442
H35   H     H_    0.870300 0.356899 0.541655 0.204334
C158  C     C_3   0.996775 0.313656 0.513808 -0.847721
H36   H     H_    0.137052 0.325949 0.515247 0.242837
H37   H     H_    0.930383 0.322687 0.491165 0.238277
H38   H     H_    0.008924 0.283163 0.513559 0.231705
O47   O     O_3   0.856905 0.322570 0.901540 -0.565212
C159  C     C_3   0.667994 0.320084 0.892682 0.090369
H39   H     H_    0.645040 0.313110 0.866992 0.118872
H40   H     H_    0.600709 0.347108 0.897047 0.192927
C160  C     C_3   0.575232 0.290551 0.913148 -0.278039
H41   H     H_    0.662959 0.265384 0.913783 0.188290
H42   H     H_    0.560613 0.300915 0.938005 0.215265
C161  C     C_3   0.385486 0.280023 0.899980 -0.772401
H43   H     H_    0.294954 0.304584 0.898685 0.263707
H44   H     H_    0.320369 0.259442 0.915913 0.229276
H45   H     H_    0.398551 0.267802 0.875742 0.218977
O48   O     O_3   0.809861 0.665338 0.094394 -0.569106
C162  C     C_3   0.624334 0.678019 0.092730 0.137762
H46   H     H_    0.617412 0.708057 0.097573 0.116206
H47   H     H_    0.532789 0.663834 0.110207 0.166416
C163  C     C_3   0.548920 0.671487 0.059002 -0.287352
H48   H     H_    0.625551 0.689043 0.041856 0.189866
H49   H     H_    0.569993 0.642255 0.052010 0.220086
C164  C     C_3   0.343092 0.680528 0.056897 -0.787870
H50   H     H_    0.263282 0.662479 0.073201 0.259916
H51   H     H_    0.293185 0.675933 0.032094 0.232233
H52   H     H_    0.318522 0.709789 0.063399 0.224973
O49   O     O_3   0.657338 0.830000 0.101149 -0.549681
C165  C     C_3   0.844681 0.827535 0.110712 0.091066
H53   H     H_    0.864519 0.818049 0.135820 0.156655
H54   H     H_    0.909474 0.855177 0.108663 0.144059
C166  C     C_3   0.942848 0.800714 0.088184 -0.288841
H55   H     H_    0.855044 0.776064 0.084122 0.194673
H56   H     H_    0.964468 0.814278 0.064712 0.217832
C167  C     C_3   0.128443 0.788206 0.101687 -0.758712
H57   H     H_    0.216332 0.812416 0.106062 0.254705
H58   H     H_    0.198327 0.769738 0.084382 0.235163
H59   H     H_    0.110474 0.773343 0.124600 0.237225
O50   O     O_3   0.878500 0.138854 0.887902 -0.545311
C168  C     C_3   0.936030 0.169418 0.906407 0.153241
H60   H     H_    0.818855 0.187693 0.913513 0.118517
H61   H     H_    0.037778 0.185887 0.892710 0.163157
C169  C     C_3   0.030385 0.155068 0.936686 -0.275909
H62   H     H_    0.929435 0.139099 0.950989 0.200119
H63   H     H_    0.145523 0.136320 0.930017 0.235890
C170  C     C_3   0.106666 0.186469 0.957052 -0.793951
H64   H     H_    0.211928 0.202135 0.943499 0.246420
H65   H     H_    0.172912 0.175010 0.978872 0.240141
H66   H     H_    0.993479 0.205379 0.964314 0.228457
O51   O     O_3   0.443701 0.180874 0.593018 -0.567109
C171  C     C_3   0.249287 0.178640 0.590243 0.110467
H67   H     H_    0.176990 0.185330 0.613062 0.126632
H68   H     H_    0.210141 0.150370 0.582601 0.183049
C172  C     C_3   0.184710 0.206110 0.564855 -0.345886
H69   H     H_    0.216587 0.234545 0.573062 0.187883
H70   H     H_    0.260498 0.201018 0.542235 0.211346
C173  C     C_3   0.977655 0.202965 0.558381 -0.748388
H71   H     H_    0.946129 0.175957 0.547196 0.263153
H72   H     H_    0.933630 0.224920 0.541564 0.211113
H73   H     H_    0.898303 0.206035 0.580890 0.256350
O52   O     O_3   0.357387 0.819808 0.409930 -0.569228
C174  C     C_3   0.178189 0.804710 0.413553 0.134181
H74   H     H_    0.178875 0.775240 0.406708 0.124516
H75   H     H_    0.071927 0.819289 0.398810 0.167362
C175  C     C_3   0.121993 0.806932 0.448645 -0.293696
H76   H     H_    0.219521 0.790242 0.463283 0.192304
H77   H     H_    0.129442 0.835944 0.457037 0.225035
C176  C     C_3   0.925764 0.792629 0.453463 -0.820199
H78   H     H_    0.825283 0.809863 0.439960 0.258774
H79   H     H_    0.890287 0.793837 0.479213 0.234217
H80   H     H_    0.914446 0.763606 0.445220 0.236620
O53   O     O_3   0.271376 0.365632 0.706776 -0.548332
C177  C     C_3   0.161288 0.391680 0.723408 0.124462
H81   H     H_    0.103391 0.377965 0.744759 0.152779
H82   H     H_    0.040680 0.402728 0.709581 0.097079
C178  C     C_3   0.281924 0.424255 0.733476 -0.229591
H83   H     H_    0.406231 0.414011 0.746216 0.207878
H84   H     H_    0.329295 0.439264 0.711940 0.226036
C179  C     C_3   0.176782 0.451001 0.754894 -0.836449
H85   H     H_    0.054883 0.462370 0.742014 0.235650
H86   H     H_    0.268807 0.474110 0.761896 0.235705
H87   H     H_    0.129775 0.436866 0.776843 0.250739
O54   O     O_3   0.801503 0.629682 0.287742 -0.569490
C180  C     C_3   0.859449 0.593157 0.280326 0.157220
H88   H     H_    0.842773 0.589778 0.254161 0.151202
H89   H     H_    0.764380 0.572365 0.290392 0.173904
C181  C     C_3   0.063440 0.584572 0.288411 -0.322497
H90   H     H_    0.153728 0.605741 0.277649 0.205644
H91   H     H_    0.087957 0.584869 0.314553 0.233847
C182  C     C_3   0.118435 0.546491 0.276162 -0.795395
H92   H     H_    0.035855 0.524925 0.288295 0.243163
H93   H     H_    0.267077 0.541494 0.281290 0.244103
H94   H     H_    0.095297 0.544438 0.249987 0.219513
O55   O     O_3   0.043491 0.631862 0.218176 -0.582750
C183  C     C_3   0.234284 0.640760 0.217887 0.112766
H95   H     H_    0.271855 0.651627 0.241861 0.143301
H96   H     H_    0.271041 0.662904 0.200525 0.129627
C184  C     C_3   0.351290 0.606494 0.211165 -0.361403
H97   H     H_    0.332888 0.586047 0.230508 0.203799
H98   H     H_    0.309068 0.593763 0.188185 0.257996
C185  C     C_3   0.554385 0.616411 0.208852 -0.763803
H99   H     H_    0.575941 0.634527 0.187863 0.224724
H100  H     H_    0.636980 0.590880 0.205757 0.239800
H101  H     H_    0.601179 0.630910 0.230801 0.252096
O56   O     O_3   0.266922 0.367851 0.796138 -0.588832
C186  C     C_3   0.453901 0.356406 0.795880 0.105384
H102  H     H_    0.485165 0.347663 0.771024 0.181226
H103  H     H_    0.484714 0.332179 0.811476 0.099699
C187  C     C_3   0.580905 0.388384 0.805308 -0.330265
H104  H     H_    0.519435 0.415237 0.798328 0.216412
H105  H     H_    0.598660 0.388215 0.831616 0.240628
C188  C     C_3   0.768861 0.385226 0.789339 -0.812312
H106  H     H_    0.823988 0.356977 0.792127 0.227209
H107  H     H_    0.866079 0.405153 0.800403 0.257518
H108  H     H_    0.756238 0.391425 0.763443 0.221046
O57   O     O_3   0.297108 0.154562 0.802660 -0.541541
C189  C     C_3   0.301558 0.118734 0.788793 0.073095
H109  H     H_    0.190392 0.117573 0.770473 0.137274
H110  H     H_    0.268394 0.096848 0.806359 0.166619
C190  C     C_3   0.486761 0.109915 0.772494 -0.333617
H111  H     H_    0.513159 0.130897 0.753914 0.217306
H112  H     H_    0.602380 0.110927 0.789999 0.201600
C191  C     C_3   0.485981 0.071369 0.757871 -0.749689
H113  H     H_    0.480164 0.050322 0.777073 0.250045
H114  H     H_    0.614382 0.067053 0.743938 0.244500
H115  H     H_    0.365153 0.067572 0.741858 0.225128
O58   O     O_3   0.197644 0.863139 0.204367 -0.559469
C192  C     C_3   0.227991 0.899858 0.215156 0.129925
H116  H     H_    0.162208 0.902245 0.238860 0.138478
H117  H     H_    0.153935 0.920253 0.200143 0.185485
C193  C     C_3   0.433519 0.910296 0.218926 -0.352512
H118  H     H_    0.508751 0.887829 0.231222 0.221825
H119  H     H_    0.497768 0.913974 0.195171 0.231288
C194  C     C_3   0.455989 0.946203 0.237500 -0.734690
H120  H     H_    0.386643 0.969121 0.224569 0.240787
H121  H     H_    0.605013 0.952814 0.240060 0.229172
H122  H     H_    0.394866 0.943633 0.261633 0.224695
O59   O     O_3   0.526432 0.869654 0.287857 -0.587842
C195  C     C_3   0.717479 0.860757 0.286182 0.101115
H123  H     H_    0.746679 0.850312 0.261758 0.134170
H124  H     H_    0.761460 0.838267 0.302827 0.137098
C196  C     C_3   0.836296 0.894986 0.292067 -0.329718
H125  H     H_    0.833927 0.912671 0.270430 0.179608
H126  H     H_    0.781757 0.911220 0.312383 0.258710
C197  C     C_3   0.034899 0.884311 0.300073 -0.759543
H127  H     H_    0.040939 0.870967 0.323929 0.242493
H128  H     H_    0.122362 0.909387 0.300618 0.238836
H129  H     H_    0.090168 0.864798 0.282020 0.232598
O60   O     O_3   0.735143 0.130812 0.708526 -0.589670
C198  C     C_3   0.926154 0.138930 0.707522 0.112645
H130  H     H_    0.969310 0.148179 0.731735 0.145050
H131  H     H_    0.962234 0.161890 0.690881 0.131641
C199  C     C_3   0.036678 0.104473 0.698891 -0.347309
H132  H     H_    0.028664 0.084143 0.718661 0.185358
H133  H     H_    0.981436 0.091689 0.676821 0.264120
C200  C     C_3   0.236382 0.114328 0.692561 -0.763244
H134  H     H_    0.244002 0.132436 0.671279 0.233930
H135  H     H_    0.316438 0.088802 0.687933 0.260548
H136  H     H_    0.296382 0.129133 0.713268 0.221047
O61   O     O_3   0.274014 0.411437 0.655321 -0.606363
H137  H     H_    0.241855 0.428113 0.637502 0.318412
O62   O     O_3   0.742314 0.586343 0.344024 -0.632955
H138  H     H_    0.727478 0.575307 0.365430 0.310066
O63   O     O_3   0.977399 0.574583 0.173032 -0.633342
H139  H     H_    0.988159 0.571941 0.196501 0.308647
O64   O     O_3   0.222511 0.414426 0.850403 -0.625317
H140  H     H_    0.260669 0.421708 0.828720 0.320672
O65   O     O_3   0.243886 0.118530 0.862943 -0.611566
H141  H     H_    0.144237 0.128221 0.849023 0.363167
O66   O     O_3   0.165269 0.902787 0.146361 -0.634893
H142  H     H_    0.161642 0.911704 0.124034 0.299112
O67   O     O_3   0.463434 0.920696 0.338252 -0.624305
H143  H     H_    0.461291 0.926296 0.315137 0.313375
O68   O     O_3   0.658544 0.080655 0.657915 -0.632949
H144  H     H_    0.672109 0.074317 0.680807 0.314968
O69   O     O_3   0.597490 0.471893 0.598333 -0.596265
H145  H     H_    0.664857 0.472410 0.619004 0.313647
O70   O     O_3   0.353190 0.528372 0.400833 -0.614286
H146  H     H_    0.441005 0.549264 0.402457 0.313554
O71   O     O_3   0.360056 0.516606 0.105469 -0.595074
H147  H     H_    0.298067 0.520644 0.126234 0.326381
O72   O     O_3   0.596026 0.470884 0.905695 -0.611294
H148  H     H_    0.513262 0.449115 0.905259 0.326346
O73   O     O_3   0.619277 0.988315 0.881675 -0.593082
H149  H     H_    0.724858 0.002848 0.873548 0.320089
O74   O     O_3   0.687290 0.002753 0.118132 -0.591727
H150  H     H_    0.779968 0.983796 0.124122 0.319170
O75   O     O_3   0.888563 0.965196 0.405201 -0.591856
H151  H     H_    0.994224 0.981382 0.410573 0.328957
O76   O     O_3   0.148525 0.018114 0.604466 -0.621974
H152  H     H_    0.236053 0.021354 0.622542 0.324223
O77   O     O_3   0.590143 0.526597 0.556867 -0.562639
C201  C     C_3   0.675106 0.555947 0.573527 0.098625
H153  H     H_    0.797297 0.566552 0.560294 0.119794
H154  H     H_    0.719761 0.546776 0.597762 0.126473
C202  C     C_3   0.535476 0.587281 0.577064 -0.282516
H155  H     H_    0.488725 0.596375 0.552991 0.195106
H156  H     H_    0.413207 0.577252 0.590440 0.206601
C203  C     C_3   0.619351 0.620050 0.594760 -0.836342
H157  H     H_    0.664516 0.611724 0.619102 0.234085
H158  H     H_    0.514422 0.642261 0.596953 0.235625
H159  H     H_    0.739727 0.630972 0.581434 0.234112
O78   O     O_3   0.362294 0.472616 0.445806 -0.563079
C204  C     C_3   0.552385 0.480230 0.440313 0.119687
H160  H     H_    0.635995 0.468550 0.460151 0.109387
H161  H     H_    0.586940 0.509947 0.439457 0.125183
C205  C     C_3   0.616144 0.461156 0.409661 -0.275431
H162  H     H_    0.605498 0.430814 0.412685 0.189892
H163  H     H_    0.526101 0.469219 0.389295 0.243761
C206  C     C_3   0.815802 0.471172 0.401895 -0.784040
H164  H     H_    0.827949 0.501275 0.397621 0.235202
H165  H     H_    0.859902 0.456352 0.379998 0.238233
H166  H     H_    0.909024 0.463192 0.421892 0.240897
O79   O     O_3   0.363592 0.462850 0.062768 -0.561992
C207  C     C_3   0.280272 0.432910 0.078641 0.102381
H167  H     H_    0.158596 0.422425 0.064966 0.119465
H168  H     H_    0.235293 0.441346 0.103010 0.133616
C208  C     C_3   0.421524 0.401778 0.081701 -0.284068
H169  H     H_    0.468402 0.393377 0.057505 0.196079
H170  H     H_    0.543461 0.411720 0.095449 0.209442
C209  C     C_3   0.339555 0.368416 0.098595 -0.832127
H171  H     H_    0.294373 0.376049 0.123050 0.234596
H172  H     H_    0.445611 0.346363 0.100451 0.236472
H173  H     H_    0.219509 0.357593 0.084891 0.234854
O80   O     O_3   0.582650 0.522213 0.954654 -0.563522
C210  C     C_3   0.393323 0.514525 0.948250 0.119786
H174  H     H_    0.308999 0.523986 0.968753 0.109534
H175  H     H_    0.361298 0.484871 0.945078 0.128899
C211  C     C_3   0.328030 0.536355 0.919056 -0.274487
H176  H     H_    0.337451 0.566317 0.924343 0.189806
H177  H     H_    0.417968 0.530419 0.898269 0.245824
C212  C     C_3   0.128656 0.526805 0.910337 -0.770030
H178  H     H_    0.117738 0.497210 0.903794 0.248298
H179  H     H_    0.083437 0.543619 0.889584 0.238282
H180  H     H_    0.035573 0.532673 0.930753 0.236746
O81   O     O_3   0.599477 0.939425 0.929183 -0.558026
C213  C     C_3   0.785854 0.931475 0.936789 0.099030
H181  H     H_    0.817572 0.938084 0.962252 0.113100
H182  H     H_    0.879950 0.947529 0.921092 0.136060
C214  C     C_3   0.821084 0.890421 0.931519 -0.267107
H183  H     H_    0.724750 0.874192 0.946555 0.200564
H184  H     H_    0.794622 0.883413 0.906051 0.213584
C215  C     C_3   0.019448 0.879984 0.940166 -0.838040
H185  H     H_    0.118339 0.895639 0.925212 0.244607
H186  H     H_    0.040944 0.850084 0.935906 0.240192
H187  H     H_    0.047030 0.885916 0.965783 0.229363
O82   O     O_3   0.697916 0.053282 0.072299 -0.559262
C216  C     C_3   0.885879 0.053726 0.063484 0.095919
H188  H     H_    0.902401 0.047969 0.037486 0.115191
H189  H     H_    0.965518 0.032886 0.077455 0.132959
C217  C     C_3   0.963841 0.091921 0.070631 -0.268270
H190  H     H_    0.879625 0.113083 0.058014 0.196077
H191  H     H_    0.956445 0.097350 0.096732 0.215674
C218  C     C_3   0.163676 0.095038 0.059789 -0.840790
H192  H     H_    0.250567 0.073977 0.071943 0.250619
H193  H     H_    0.217857 0.122806 0.065796 0.236917
H194  H     H_    0.171657 0.091110 0.033517 0.235256
O83   O     O_3   0.876779 0.025977 0.445087 -0.589496
C219  C     C_3   0.784434 0.053844 0.427714 0.076874
H195  H     H_    0.659835 0.063775 0.440755 0.132736
H196  H     H_    0.742157 0.043360 0.403734 0.142202
C220  C     C_3   0.915874 0.086289 0.423337 -0.291014
H197  H     H_    0.960209 0.096695 0.447157 0.199088
H198  H     H_    0.040565 0.076910 0.410195 0.203019
C221  C     C_3   0.823726 0.117557 0.404823 -0.826503
H199  H     H_    0.780811 0.107913 0.380715 0.236572
H200  H     H_    0.922831 0.140630 0.402039 0.234913
H201  H     H_    0.700655 0.127833 0.417883 0.232361
O84   O     O_3   0.106634 0.969731 0.554917 -0.567870
C222  C     C_3   0.919461 0.978915 0.561617 0.126470
H202  H     H_    0.832638 0.971778 0.540627 0.104017
H203  H     H_    0.894533 0.008605 0.566636 0.160895
C223  C     C_3   0.850714 0.955910 0.589702 -0.261624
H204  H     H_    0.861042 0.926176 0.583550 0.190802
H205  H     H_    0.938197 0.961064 0.611098 0.235367
C224  C     C_3   0.650204 0.965205 0.597640 -0.800115
H206  H     H_    0.637308 0.994681 0.604497 0.246363
H207  H     H_    0.603595 0.947994 0.617950 0.236516
H208  H     H_    0.559430 0.959597 0.576730 0.238459

loop_
_geom_bond_atom_site_label_1
_geom_bond_atom_site_label_2
_ccdc_geom_bond_type
C222  C223  S    
C177  H82   S    
O70   H146  S    
C161  H44   S    
C26   C58   A    
C196  C197  S    
O69   H145  S    
C106  C113  A    
O40   H20   S    
C10   O22   S    
C206  H164  S    
C20   C92   A    
C34   O53   S    
C21   C93   A    
O15   V4    S    
C172  H70   S    
O75   H151  S    
C166  C167  S    
C19   C91   A    
C167  H57   S    
C112  C136  A    
C177  C178  S    
C28   O63   S    
C159  C160  S    
C164  H52   S    
O46   C156  S    
C106  C122  A    
C187  C188  S    
C66   C90   A    
C87   C151  A    
C192  C193  S    
C110  C126  A    
C207  H167  S    
C11   C75   A    
C170  H66   S    
C53   O49   S    
C190  C191  S    
C52   O48   S    
C150  H14   S    
C25   O62   S    
C68   C92   A    
C156  H32   S    
C70   C78   A    
C153  H26   S    
C157  H35   S    
C218  H193  S    
C188  H108  S    
C135  O83   S    
C118  C126  A    
C75   C83   A    
C69   C93   A    
O79   C207  S    
C53   C61   A    
C72   C80   A    
C175  H76   S    
C180  H88   S    
C6    C99   S    
O16   V3    S    
C153  C154  S    
C176  H80   S    
C202  H155  S    
O43   H23   S    
C210  H175  S    
C188  H107  S    
O10   V2    S    
C132  O80   S    
C172  H69   S    
O12   C4    A    
C80   C88   A    
C173  H71   S    
O13   C5    A    
C85   H5    S    
C179  H86   S    
O6    V2    S    
C56   C64   A    
C11   N3    A    
C163  H49   S    
C12   O24   S    
C13   O25   S    
C194  H120  S    
C210  H174  S    
C129  O77   S    
C171  H67   S    
C15   O27   S    
C180  C181  S    
C16   O28   S    
C140  O72   S    
O1    C4    A    
O2    C3    A    
C167  H59   S    
C133  O81   S    
C181  H90   S    
C160  H42   S    
C44   O40   S    
C136  O84   S    
O84   C222  S    
C29   C61   A    
O7    C6    A    
C43   C51   A    
C18   O29   S    
C191  H115  S    
C83   C147  A    
C203  H157  S    
C169  H63   S    
C81   C145  A    
C42   C98   A    
C40   O59   S    
C200  H134  S    
C108  C132  A    
C82   C146  A    
O80   C210  S    
C33   C97   A    
O10   C2    A    
C207  C208  S    
C85   C149  A    
C108  C124  A    
C82   H2    S    
C185  H99   S    
C37   C101  A    
C95   C144  A    
C197  H127  S    
N1    C57   S    
C43   O39   S    
C224  H207  S    
C13   C77   A    
C54   C62   A    
C212  H178  S    
O53   C177  S    
C156  C157  S    
C134  C142  A    
C139  O71   S    
O61   H137  S    
O57   C189  S    
C9    N1    A    
C110  C117  A    
C193  H118  S    
O17   V3    S    
C30   O65   S    
C156  H33   S    
O18   V4    S    
O67   H143  S    
C50   O46   S    
O12   V1    S    
O19   V1    S    
C29   C37   A    
O66   H142  S    
O64   H140  S    
C212  H180  S    
C31   C39   A    
C170  H65   S    
O71   H147  S    
C215  H185  S    
C206  H165  S    
O39   H19   S    
C51   O47   S    
C1    C104  S    
O8    V1    S    
C65   C73   A    
C2    C103  S    
C18   C90   A    
C68   C123  A    
C33   O54   S    
C198  H130  S    
C26   C34   A    
O1    V3    S    
N1    C17   A    
C217  H190  S    
C213  C214  S    
O2    V4    S    
C159  H40   S    
C49   O45   S    
C178  H84   S    
N4    C20   A    
C87   H7    S    
N5    C21   A    
C88   H8    S    
C39   C103  A    
C42   O38   S    
C29   O66   S    
C205  H162  S    
C40   C104  A    
N7    C23   A    
N8    C24   A    
C118  C149  A    
C11   O23   S    
O45   C153  S    
C12   N4    A    
C171  C172  S    
C113  C121  A    
C220  C221  S    
O49   C165  S    
C222  H202  S    
C46   O42   S    
C147  H11   S    
C213  H181  S    
C72   C96   A    
C181  C182  S    
C145  H9    S    
C55   C63   A    
O41   H21   S    
C105  C129  A    
N2    C58   S    
C71   C128  A    
C203  H159  S    
C113  C146  A    
O54   C180  S    
O11   V2    S    
C200  H136  S    
C45   C101  A    
C209  H171  S    
C158  H38   S    
O37   H17   S    
N4    C60   S    
C47   C55   A    
C216  H189  S    
C130  C138  A    
C202  C203  S    
C28   C60   A    
O81   C213  S    
C32   O67   S    
O72   H148  S    
C41   O37   S    
C48   O44   S    
C168  H60   S    
C187  H105  S    
C214  H184  S    
C189  C190  S    
C193  C194  S    
C205  H163  S    
C186  H103  S    
C204  H161  S    
C174  H75   S    
C224  H206  S    
C70   C94   A    
C27   C35   A    
C220  H197  S    
C12   C76   A    
C119  C127  A    
C199  H132  S    
C222  H203  S    
C31   C63   A    
C4    C101  S    
C22   O33   S    
C83   H3    S    
C179  H85   S    
C209  H173  S    
C162  H46   S    
C141  O73   S    
C161  H43   S    
C143  O75   S    
C8    C97   S    
C28   C36   A    
C88   C152  A    
C9    C73   A    
C217  C218  S    
C17   O30   S    
C119  C152  A    
O14   C6    A    
C167  H58   S    
C221  H199  S    
C194  H122  S    
C32   C40   A    
C35   C99   A    
C184  C185  S    
C86   H6    S    
C205  C206  S    
C15   C79   A    
C155  H29   S    
C164  H51   S    
C191  H114  S    
C165  H54   S    
C211  H176  S    
C192  H117  S    
C116  C124  A    
C223  H204  S    
C182  H94   S    
C45   O41   S    
C183  H95   S    
C207  H168  S    
O56   C186  S    
C224  H208  S    
C165  H53   S    
C44   C52   A    
C51   C59   A    
C201  H153  S    
C77   C85   A    
C35   O56   S    
C160  H41   S    
C20   O31   S    
C56   O52   S    
C219  H195  S    
C190  H112  S    
C79   C87   A    
C48   C56   A    
O63   H139  S    
C7    C98   S    
O55   C183  S    
C161  H45   S    
C43   C99   A    
C90   C137  A    
C69   C77   A    
C158  H36   S    
C41   C97   A    
C34   C98   A    
O11   C3    A    
C94   C141  A    
C30   C38   A    
C137  O69   S    
C38   C102  A    
C131  C139  A    
C175  H77   S    
C168  C169  S    
C129  C137  A    
C23   O36   S    
C120  C128  A    
C142  O74   S    
C176  H79   S    
C189  H109  S    
C132  C140  A    
C133  C141  A    
C15   N7    A    
C108  C115  A    
N5    C61   S    
C16   N8    A    
C165  C166  S    
C173  H72   S    
C136  C144  A    
C115  C123  A    
C27   C59   A    
C41   C49   A    
C175  C176  S    
C177  H81   S    
C149  H13   S    
O7    V2    S    
C89   C138  A    
C13   N5    A    
C163  C164  S    
C109  C133  A    
C204  H160  S    
C179  H87   S    
C213  H182  S    
C92   C139  A    
C107  C131  A    
C93   C142  A    
C172  C173  S    
C67   C124  A    
C180  H89   S    
C115  C148  A    
C173  H73   S    
C65   C122  A    
C96   C143  A    
N2    C18   A    
O83   C219  S    
N8    C64   S    
C181  H91   S    
C184  H97   S    
C69   C126  A    
O78   C204  S    
C54   O50   S    
N6    C22   A    
C185  H101  S    
C155  H31   S    
C203  H158  S    
O51   C171  S    
C116  C147  A    
C182  H92   S    
C14   N6    A    
C183  C184  S    
C218  H192  S    
C151  H15   S    
C138  O70   S    
C120  C151  A    
C185  H100  S    
C197  H128  S    
C219  C220  S    
O4    C1    A    
C16   C80   A    
C84   C148  A    
C3    C102  S    
C106  C130  A    
C39   O60   S    
C166  H56   S    
C153  H25   S    
O38   H18   S    
C157  H34   S    
C46   C102  A    
C193  H119  S    
C218  H194  S    
O52   C174  S    
C76   C84   A    
O13   V3    S    
O14   V4    S    
C197  H129  S    
C21   O34   S    
C27   O64   S    
C30   C62   A    
C19   O32   S    
C32   C64   A    
C191  H113  S    
C42   C50   A    
C215  H187  S    
C105  C114  A    
C9    O21   S    
C68   C76   A    
C47   O43   S    
C210  C211  S    
C162  H47   S    
C71   C95   A    
C86   C150  A    
C162  C163  S    
C217  H191  S    
C178  H83   S    
C131  O79   S    
O4    V3    S    
C14   C78   A    
C208  C209  S    
C195  H124  S    
C24   O35   S    
C105  C121  A    
O62   H138  S    
C163  H48   S    
C5    C100  S    
C144  O76   S    
C109  C125  A    
C198  C199  S    
C174  H74   S    
C220  H198  S    
C204  C205  S    
C199  H133  S    
O76   H152  S    
C160  C161  S    
O65   H141  S    
C196  H125  S    
C198  H131  S    
C36   O55   S    
C66   C74   A    
C17   C89   A    
C169  H62   S    
C50   C58   A    
C200  H135  S    
C209  H172  S    
C158  H37   S    
C117  C125  A    
N7    C63   S    
C25   C33   A    
C111  C120  A    
O3    C2    A    
C216  H188  S    
C112  C119  A    
C202  H156  S    
O42   H22   S    
C46   C54   A    
C212  H179  S    
C195  C196  S    
C186  H102  S    
C114  C122  A    
C170  H64   S    
C26   O61   S    
C171  H68   S    
C214  H183  S    
C157  C158  S    
O9    V1    S    
C91   C140  A    
O15   C7    A    
C152  H16   S    
N6    C62   S    
C112  C128  A    
C148  H12   S    
C187  H104  S    
C45   C53   A    
C146  H10   S    
C38   O57   S    
O5    V1    S    
C36   C100  A    
N3    C59   S    
C206  H166  S    
C10   N2    A    
C14   O26   S    
C114  C145  A    
C134  O82   S    
C67   C91   A    
O68   H144  S    
C195  H123  S    
C65   C89   A    
C211  C212  S    
C166  H55   S    
C196  H126  S    
C49   C57   A    
C23   C95   A    
C178  C179  S    
C221  H200  S    
C194  H121  S    
C184  H98   S    
C199  C200  S    
C208  H169  S    
C37   O58   S    
C159  H39   S    
C72   C127  A    
C155  H30   S    
O8    C5    A    
C73   C81   A    
O3    V4    S    
C211  H177  S    
C110  C134  A    
C67   C75   A    
C192  H116  S    
C223  H205  S    
C71   C79   A    
O9    C1    A    
C182  H93   S    
C183  H96   S    
C154  H28   S    
C66   C121  A    
C81   H1    S    
C154  C155  S    
C221  H201  S    
N3    C19   A    
C201  H154  S    
O47   C159  S    
O58   C192  S    
C52   C60   A    
C219  H196  S    
C190  H111  S    
C117  C150  A    
C70   C125  A    
C84   H4    S    
C208  H170  S    
C55   O51   S    
C169  C170  S    
C223  C224  S    
C135  C143  A    
C109  C118  A    
C107  C116  A    
C10   C74   A    
C188  H106  S    
C216  C217  S    
C47   C103  A    
O50   C168  S    
C22   C94   A    
C201  C202  S    
O20   V2    S    
C25   C57   A    
C31   O68   S    
O77   C201  S    
O5    C8    A    
O6    C7    A    
O82   C216  S    
C168  H61   S    
C215  H186  S    
C176  H78   S    
C214  C215  S    
C189  H110  S    
O48   C162  S    
O74   H150  S    
C74   C82   A    
C107  C123  A    
C186  C187  S    
C44   C100  A    
O16   C8    A    
O73   H149  S    
C174  C175  S    
O44   H24   S    
O60   C198  S    
C111  C127  A    
C24   C96   A    
C78   C86   A    
C111  C135  A    
C154  H27   S    
C130  O78   S    
C48   C104  A    
O59   C195  S    
C164  H50   S    
