data_mof_unit_49270.cif
_audit_creation_date              2012-12-10T21:25:19-0500
_audit_creation_method            fapswitch 2.2
_symmetry_space_group_name_H-M    P1
_symmetry_Int_Tables_number       1
_space_group_crystal_system       triclinic
_cell_length_a                    10.968252
_cell_length_b                    17.389446
_cell_length_c                    16.701688
_cell_angle_alpha                 92.576347
_cell_angle_beta                  90.631104
_cell_angle_gamma                 89.6683
_cell_volume                      3182.08579843

loop_
_atom_site_label
_atom_site_type_symbol
_atom_type_description
_atom_site_fract_x
_atom_site_fract_y
_atom_site_fract_z
_atom_type_partial_charge
C1    C     C_R   0.501328 0.352224 0.497871 0.946900
C2    C     C_R   0.589054 0.228069 0.436292 0.308548
C3    C     C_R   0.517078 0.731233 0.506333 -0.260995
C4    C     C_R   0.515360 0.268052 0.494228 -0.240561
C5    C     C_R   0.573331 0.763904 0.441271 -0.172386
C6    C     C_R   0.467302 0.228569 0.557456 -0.194651
C7    C     C_R   0.609688 0.840156 0.445381 0.418512
C8    C     C_R   0.491243 0.150814 0.564952 0.405612
C9    C     C_R   0.598012 0.883226 0.518086 -0.247192
C10   C     C_R   0.579268 0.114605 0.515034 -0.198015
C11   C     C_1   0.606396 0.965074 0.518489 0.231358
C12   C     C_R   0.498924 0.647707 0.501843 1.057121
C13   C     C_1   0.599743 0.033693 0.518272 0.225793
C14   C     C_R   0.485166 0.430207 0.828419 -0.249377
C15   C     C_R   0.551654 0.557348 0.169029 -0.177201
C16   C     C_R   0.259411 0.496962 0.499432 1.037999
C17   C     C_R   0.740755 0.503714 0.500858 0.946682
C18   C     C_R   0.485218 0.432410 0.744473 0.092376
C19   C     C_R   0.550768 0.558493 0.253220 0.149478
C20   C     C_R   0.512904 0.567117 0.752308 -0.005397
C21   C     C_R   0.445618 0.440517 0.250426 -0.052218
C22   C     C_R   0.509963 0.568194 0.837140 0.386721
C23   C     C_R   0.873788 0.506287 0.502666 -0.172549
C24   C     C_R   0.449177 0.434796 0.165896 0.337170
C25   C     C_R   0.497922 0.498167 0.875896 -0.052068
C26   C     C_R   0.501143 0.495035 0.124225 -0.049622
C27   C     C_1   0.498895 0.495145 0.963449 0.200180
C28   C     C_1   0.500704 0.494689 0.036474 0.199834
C29   C     C_R   0.210402 0.599372 0.242551 0.281527
C30   C     C_R   0.788045 0.366638 0.735936 0.336137
C31   C     C_R   0.176619 0.595140 0.324462 0.377770
C32   C     C_R   0.831005 0.383796 0.658700 0.308832
C33   C     C_R   0.119983 0.525994 0.349591 -0.170671
C34   C     C_R   0.126973 0.494327 0.498764 -0.190865
C35   C     C_R   0.875044 0.459792 0.646235 -0.158390
C36   C     C_R   0.099063 0.463634 0.292820 0.258016
C37   C     C_R   0.871887 0.517717 0.709904 0.241020
C38   C     C_R   0.112077 0.476149 0.210524 0.331220
C39   C     C_R   0.833842 0.497120 0.786900 0.307138
C40   C     C_R   0.174520 0.540773 0.187351 -0.397298
C41   C     C_R   0.790955 0.423192 0.797657 -0.398119
C42   C     C_R   0.936656 0.533059 0.435255 0.445643
C43   C     C_R   0.064902 0.468235 0.567206 0.333444
C44   C     C_R   0.937877 0.476770 0.569779 0.019844
C45   C     C_R   0.062427 0.520946 0.430609 0.039981
C46   C     C_R   0.550056 0.849507 0.585931 0.273637
C47   C     C_R   0.635172 0.155076 0.454345 0.284048
C48   C     C_R   0.493881 0.776861 0.576801 0.330918
H1    H     H_    0.474883 0.375483 0.856082 0.225527
H2    H     H_    0.398906 0.397720 0.282840 0.223648
H3    H     H_    0.584683 0.770698 0.877656 0.420909
H4    H     H_    0.302803 0.246795 0.144337 0.425456
H5    H     H_    0.437222 0.752857 0.225985 0.414461
H6    H     H_    0.682692 0.220506 0.870636 0.418213
H7    H     H_    0.123087 0.717239 0.507081 0.427397
H8    H     H_    0.764626 0.346441 0.475899 0.354676
H9    H     H_    0.082104 0.301501 0.426496 0.437757
H10   H     H_    0.062805 0.625606 0.616416 0.391649
H11   H     H_    0.981504 0.438131 0.010612 0.417461
H12   H     H_    0.591806 0.604925 0.139182 0.218905
H13   H     H_    0.828195 0.676927 0.911424 0.415132
H14   H     H_    0.885870 0.652746 0.255686 0.406568
H15   H     H_    0.148982 0.521497 0.734598 0.382325
H16   H     H_    0.752998 0.944008 0.668366 0.375965
H17   H     H_    0.869991 0.108826 0.525236 0.399020
H18   H     H_    0.203263 0.816648 0.673215 0.412894
H19   H     H_    0.651725 0.216362 0.218663 0.417745
H20   H     H_    0.587024 0.730070 0.386201 0.253352
H21   H     H_    0.408933 0.258578 0.600440 0.219264
H22   H     H_    0.189026 0.547515 0.124132 0.275255
H23   H     H_    0.762380 0.408585 0.856721 0.267532
H24   H     H_    0.727892 0.837103 0.241264 0.412500
H25   H     H_    0.331818 0.191011 0.717845 0.381277
H26   H     H_    0.473158 0.379293 0.709547 0.194352
H27   H     H_    0.590344 0.606764 0.286782 0.201757
H28   H     H_    0.524281 0.620152 0.722236 0.220410
N1    N     N_R   0.500030 0.500030 0.707230 -0.136518
N2    N     N_R   0.499970 0.499970 0.292770 -0.140077
O1    O     O_R   0.500000 0.389130 0.566570 -0.630834
O2    O     O_2   0.794300 0.913976 0.381120 -0.172655
O3    O     O_3   0.691641 0.810297 0.286283 -0.537411
O4    O     O_2   0.364782 0.027205 0.605789 -0.201636
O5    O     O_2   0.500659 0.087243 0.707529 -0.168663
O6    O     O_3   0.296004 0.155956 0.675600 -0.452212
O7    O     O_2   0.382773 0.682740 0.907690 -0.185716
O8    O     O_2   0.577255 0.650414 0.971590 -0.289206
O9    O     O_3   0.582753 0.724306 0.841010 -0.429957
O10   O     O_2   0.318869 0.370583 0.043884 -0.257671
O11   O     O_2   0.506257 0.305200 0.084318 -0.246664
O12   O     O_R   0.500000 0.610870 0.433430 -0.607179
O13   O     O_3   0.317134 0.295808 0.175443 -0.454865
O14   O     O_2   0.311040 0.664748 0.115440 -0.253870
O15   O     O_2   0.191115 0.748041 0.206191 -0.148834
O16   O     O_3   0.407674 0.706449 0.251879 -0.541427
O17   O     O_2   0.620332 0.255018 0.721147 -0.309352
O18   O     O_2   0.833270 0.214132 0.738847 -0.134343
O19   O     O_3   0.718520 0.271642 0.862255 -0.523870
O20   O     O_2   0.310199 0.711340 0.392675 -0.255911
O21   O     O_2   0.100887 0.740900 0.356668 -0.142010
O22   O     O_3   0.140467 0.665252 0.483070 -0.566190
O23   O     O_R   0.499990 0.389100 0.433480 -0.572307
O24   O     O_2   0.971018 0.268637 0.597557 -0.140519
O25   O     O_2   0.752524 0.249282 0.586848 -0.312302
O26   O     O_3   0.851633 0.340305 0.490304 -0.521746
O27   O     O_2   0.915312 0.373124 0.333927 -0.163922
O28   O     O_2   0.085086 0.308619 0.264873 -0.152116
O29   O     O_3   0.117090 0.351491 0.412579 -0.557098
O30   O     O_2   0.793154 0.662546 0.697453 -0.189474
O31   O     O_2   0.994668 0.647096 0.758237 -0.201974
O32   O     O_3   0.974284 0.630771 0.605571 -0.543648
O33   O     O_2   0.092328 0.348078 0.113274 -0.168298
O34   O     O_R   0.500010 0.610900 0.566520 -0.603440
O35   O     O_2   0.903235 0.406604 0.163754 -0.176070
O36   O     O_3   0.017608 0.474058 0.051925 -0.477147
O37   O     O_2   0.786752 0.525028 0.944311 -0.299749
O38   O     O_2   0.987153 0.560216 0.895623 -0.203575
O39   O     O_3   0.802312 0.647006 0.862360 -0.414808
O40   O     O_2   0.799488 0.520311 0.301204 -0.262503
O41   O     O_2   0.761417 0.632981 0.392213 -0.330707
O42   O     O_3   0.942214 0.635496 0.298113 -0.512886
O43   O     O_2   0.240366 0.369156 0.615478 -0.264958
O44   O     O_2   0.069336 0.379642 0.704610 -0.256906
O45   O     O_R   0.316760 0.500020 0.566540 -0.521937
O46   O     O_3   0.215629 0.493654 0.706015 -0.508223
O47   O     O_2   0.457853 0.919545 0.719637 -0.097006
O48   O     O_2   0.632026 0.833333 0.735189 -0.208284
O49   O     O_3   0.672745 0.967235 0.681953 -0.477556
O50   O     O_2   0.748810 0.068105 0.340596 -0.115421
O51   O     O_2   0.851382 0.186615 0.387339 -0.154962
O52   O     O_3   0.854125 0.071195 0.480085 -0.476891
O53   O     O_2   0.303562 0.683782 0.613764 -0.304463
O54   O     O_2   0.412064 0.749628 0.725114 -0.193751
O55   O     O_3   0.269853 0.830005 0.636818 -0.460926
O56   O     O_R   0.683240 0.499980 0.433460 -0.532088
O57   O     O_2   0.467040 0.271397 0.309266 -0.266962
O58   O     O_2   0.665844 0.332694 0.332937 -0.229771
O59   O     O_3   0.658677 0.193443 0.271773 -0.419349
O60   O     O_R   0.316760 0.499990 0.433460 -0.657765
O61   O     O_R   0.683240 0.500010 0.566540 -0.659418
O62   O     O_2   0.588176 0.940186 0.329700 -0.231865
S1    S     S_3+6 0.672734 0.879092 0.359260 0.115005
S2    S     S_3+6 0.909124 0.616151 0.693802 0.095714
S3    S     S_3+6 0.029317 0.422866 0.134745 0.165791
S4    S     S_3+6 0.853394 0.557218 0.875237 0.110642
S5    S     S_3+6 0.857523 0.580976 0.355780 0.057360
S6    S     S_3+6 0.146028 0.424139 0.649342 0.079238
S7    S     S_3+6 0.576083 0.892558 0.683288 0.168075
S8    S     S_3+6 0.774778 0.120619 0.412436 0.187544
S9    S     S_3+6 0.369258 0.756209 0.640169 0.111061
S10   S     S_3+6 0.596121 0.258853 0.336227 0.120898
S11   S     S_3+6 0.413504 0.102442 0.639979 0.144504
S12   S     S_3+6 0.512076 0.657518 0.892613 0.117012
S13   S     S_3+6 0.397195 0.350127 0.114276 0.082337
S14   S     S_3+6 0.279165 0.681540 0.201846 0.119619
S15   S     S_3+6 0.739309 0.273864 0.762701 0.116741
S16   S     S_3+6 0.183378 0.680205 0.389217 0.134982
S17   S     S_3+6 0.851126 0.308170 0.583347 0.087052
S18   S     S_3+6 0.051188 0.371885 0.324698 0.141236
Zn1   Zn    Zn3+2 0.500010 0.500020 0.588860 1.058519
Zn2   Zn    Zn3+2 0.499990 0.499980 0.411140 1.079244

loop_
_geom_bond_atom_site_label_1
_geom_bond_atom_site_label_2
_ccdc_geom_bond_type
C2    S10   S    
C6    H21   S    
O56   Zn2   S    
O34   Zn1   S    
C33   C45   S    
C38   S3    S    
C14   C18   A    
C7    S1    S    
O26   S17   S    
O30   S2    D    
H15   O46   S    
C39   C41   A    
C15   C19   A    
C17   C23   S    
C23   C42   A    
C40   H22   S    
C20   N1    A    
C12   O12   A    
O15   S14   D    
C35   C37   A    
C16   O45   A    
C24   C26   A    
O13   S13   S    
C18   N1    A    
O1    Zn1   S    
C8    C10   A    
C14   H1    S    
O37   S4    D    
C3    C48   A    
C33   C36   A    
C20   H28   S    
C15   H12   S    
O32   S2    S    
O51   S8    D    
C3    C12   S    
C16   C34   S    
O38   S4    D    
O27   S18   D    
O23   Zn2   S    
C22   C25   A    
H7    O22   S    
C31   C33   A    
C30   C41   A    
O31   S2    D    
H25   O6    S    
H14   O42   S    
H24   O3    S    
O33   S3    D    
C41   H23   S    
O22   S16   S    
O3    S1    S    
O61   Zn1   S    
C9    C46   A    
C18   H26   S    
C38   C40   A    
C48   S9    S    
O54   S9    D    
C17   O56   A    
C5    H20   S    
O24   S17   D    
C21   H2    S    
H17   O52   S    
O20   S16   D    
O5    S11   D    
C22   S12   S    
C37   S2    S    
H13   O39   S    
C32   C35   A    
O39   S4    S    
O55   S9    S    
O62   S1    D    
H8    O26   S    
C4    C6    A    
O47   S7    D    
H3    O9    S    
C5    C7    A    
O50   S8    D    
C15   C26   A    
C6    C8    A    
O28   S18   D    
O46   S6    S    
C23   C44   A    
O35   S3    D    
O44   S6    D    
C42   C45   A    
C21   N2    A    
C19   N2    A    
C2    C4    A    
C43   C44   A    
O6    S11   S    
O60   Zn2   S    
O8    S12   D    
H18   O55   S    
O11   S13   D    
C46   S7    S    
O16   S14   S    
H16   O49   S    
O21   S16   D    
C8    S11   S    
C17   O61   A    
C34   C45   A    
C35   C44   S    
C9    C11   S    
N1    Zn1   S    
O52   S8    S    
N2    Zn2   S    
C30   S15   S    
H9    O29   S    
C20   C22   A    
O9    S12   S    
C1    O1    A    
O59   S10   S    
O53   S9    D    
O41   S5    D    
C1    O23   A    
C12   O34   A    
O29   S18   S    
C24   S13   S    
H6    O19   S    
C32   S17   S    
C7    C9    A    
C47   S8    S    
H5    O16   S    
H10   O32   S    
O40   S5    D    
C16   O60   A    
C34   C43   A    
O4    S11   D    
C3    C5    A    
C10   C13   S    
O58   S10   D    
O48   S7    D    
C36   S18   S    
C2    C47   A    
C25   C27   S    
O57   S10   D    
C26   C28   S    
C1    C4    S    
O10   S13   D    
C36   C38   A    
O7    S12   D    
C29   C31   A    
C43   S6    S    
O36   S3    S    
C30   C32   A    
C11   C13   T    
O45   Zn1   S    
H11   O36   S    
C29   C40   A    
C19   H27   S    
O17   S15   D    
O19   S15   S    
C14   C25   A    
O12   Zn2   S    
H19   O59   S    
O18   S15   D    
C46   C48   A    
C31   S16   S    
O42   S5    S    
O25   S17   D    
C39   S4    S    
C37   C39   A    
O2    S1    D    
C21   C24   A    
C10   C47   A    
O43   S6    D    
H4    O13   S    
O14   S14   D    
C42   S5    S    
O49   S7    S    
C29   S14   S    
C27   C28   T    
