data_mof_unit_33727.cif
_audit_creation_date              2013-03-05T16:45:43-0500
_audit_creation_method            fapswitch 2.2
_symmetry_space_group_name_H-M    P1
_symmetry_Int_Tables_number       1
_space_group_crystal_system       triclinic
_cell_length_a                    17.49058
_cell_length_b                    10.712505
_cell_length_c                    9.90511
_cell_angle_alpha                 91.010207
_cell_angle_beta                  90.648327
_cell_angle_gamma                 89.489176
_cell_volume                      1855.4221471

loop_
_atom_site_label
_atom_site_type_symbol
_atom_site_description
_atom_site_fract_x
_atom_site_fract_y
_atom_site_fract_z
_atom_type_partial_charge
O1    O     O_R   0.500010 0.316790 0.614690 -0.584605
O2    O     O_R   0.500000 0.316760 0.385350 -0.635105
C1    C     C_R   0.503681 0.260305 0.498732 0.911917
O3    O     O_R   0.389120 0.500020 0.614710 -0.606221
O4    O     O_R   0.389110 0.499990 0.385370 -0.619388
C2    C     C_R   0.353999 0.497496 0.499329 0.883191
Zn1   Zn    Zn3+2 0.500010 0.500020 0.653130 1.066918
Zn2   Zn    Zn3+2 0.499990 0.499980 0.346870 0.972281
O5    O     O_R   0.500000 0.683240 0.614650 -0.581745
O6    O     O_R   0.499990 0.683210 0.385310 -0.615754
O7    O     O_R   0.610890 0.500010 0.614630 -0.540667
O8    O     O_R   0.610880 0.499980 0.385290 -0.642390
C3    C     C_R   0.501535 0.739779 0.501265 0.931791
C4    C     C_R   0.645920 0.498679 0.500680 0.951340
C5    C     C_R   0.840931 0.631342 0.490016 0.354188
C6    C     C_R   0.761616 0.620298 0.493271 -0.250523
H1    H     H_    0.725681 0.703249 0.489781 0.194505
C7    C     C_R   0.727860 0.503060 0.502604 -0.174741
C8    C     C_R   0.772356 0.393165 0.507944 0.305544
C9    C     C_R   0.851394 0.403736 0.501507 -0.217637
H2    H     H_    0.886933 0.320289 0.504812 0.207210
C10   C     C_R   0.885262 0.520859 0.493145 -0.059894
C11   C     C_1   0.965828 0.522654 0.487274 0.105174
C12   C     C_1   0.033666 0.519572 0.485338 0.032755
C13   C     C_R   0.155223 0.606674 0.552984 -0.060708
H3    H     H_    0.126363 0.685868 0.599982 0.194353
C14   C     C_R   0.234108 0.598380 0.558532 -0.165500
H4    H     H_    0.265975 0.672024 0.608579 0.205671
C15   C     C_R   0.271740 0.496856 0.497559 -0.013406
C16   C     C_R   0.230146 0.399450 0.433864 0.163180
C17   C     C_R   0.150646 0.409318 0.428566 -0.118010
H5    H     H_    0.117235 0.335715 0.380669 0.165648
C18   C     C_R   0.114090 0.512837 0.486965 0.063183
C19   C     C_R   0.493624 0.067615 0.615047 -0.021473
C20   C     C_R   0.514361 0.128334 0.498692 -0.049487
C21   C     C_R   0.547885 0.059553 0.390809 0.168784
C22   C     C_R   0.545845 0.929530 0.395321 -0.147349
H6    H     H_    0.567527 0.874356 0.311042 0.178618
C23   C     C_R   0.511675 0.871093 0.504816 -0.108650
C24   C     C_R   0.492331 0.940780 0.619539 0.069512
C25   C     C_3   0.422781 0.945386 0.709633 0.485261
C26   C     C_3   0.425202 0.086744 0.701353 -0.436778
H7    H     H_    0.376330 0.128374 0.644475 0.228124
H8    H     H_    0.440066 0.135494 0.798063 0.239759
C27   C     C_R   0.440882 0.447953 0.069606 0.097966
N1    N     N_R   0.499490 0.499140 0.142800 -0.123978
C28   C     C_R   0.561752 0.538535 0.074826 -0.144802
H9    H     H_    0.610417 0.574017 0.131373 0.187973
C29   C     C_R   0.562191 0.539370 0.931482 0.362647
N2    N     N_R   0.499490 0.499180 0.857150 -0.177157
C30   C     C_R   0.439507 0.452251 0.927315 0.112509
C31   C     C_3   0.357803 0.500142 0.930453 0.325373
C32   C     C_3   0.359068 0.484108 0.082900 -0.473791
H10   H     H_    0.350788 0.571765 0.143043 0.224391
H11   H     H_    0.324485 0.404661 0.117664 0.213762
N3    N     N_R   0.874556 0.753609 0.482786 0.228043
O9    O     O_R   0.942933 0.774880 0.530418 -0.354268
O10   O     O_R   0.834177 0.847497 0.438920 -0.313077
N4    N     N_R   0.352095 0.893740 0.650872 0.157671
O11   O     O_R   0.290295 0.895121 0.722791 -0.346169
O12   O     O_R   0.345849 0.872106 0.521507 -0.442718
N5    N     N_R   0.437797 0.902916 0.847373 0.182488
O13   O     O_R   0.499198 0.838970 0.876194 -0.375270
O14   O     O_R   0.393065 0.939206 0.944875 -0.352763
N6    N     N_R   0.627956 0.588023 0.866960 0.230154
O15   O     O_R   0.621731 0.688529 0.795915 -0.310978
O16   O     O_R   0.695755 0.549393 0.903139 -0.366771
C33   C     C_3   0.347656 0.637537 0.891603 -0.710898
H12   H     H_    0.364346 0.653330 0.786251 0.251193
H13   H     H_    0.287241 0.667590 0.904635 0.268988
H14   H     H_    0.384016 0.697289 0.957853 0.260718
N7    N     N_R   0.302569 0.417261 0.862771 0.244702
O17   O     O_R   0.325219 0.321583 0.790632 -0.391547
O18   O     O_R   0.229631 0.436801 0.878215 -0.357330
N8    N     N_R   0.738749 0.271515 0.518606 0.193365
O19   O     O_R   0.773337 0.173729 0.467730 -0.325149
O20   O     O_R   0.678817 0.255400 0.592645 -0.388477
C34   C     C_3   0.267079 0.282600 0.376436 -0.815371
H15   H     H_    0.244479 0.199988 0.428588 0.271528
H16   H     H_    0.253026 0.273462 0.267203 0.250147
H17   H     H_    0.330096 0.280871 0.388987 0.230485
C35   C     C_3   0.583059 0.120016 0.270195 -0.700288
H18   H     H_    0.624571 0.192147 0.304169 0.259254
H19   H     H_    0.614413 0.050868 0.206297 0.244964
H20   H     H_    0.537789 0.162977 0.206279 0.243602

loop_
_geom_bond_atom_site_label_1
_geom_bond_atom_site_label_2
_geom_bond_distance
_ccdc_geom_bond_type
C14   C15   1.397812 A    
C25   C26   1.518951 S    
C4    C7    1.434254 S    
C8    C9    1.390345 A    
C19   C26   1.489157 S    
C28   C29   1.420130 A    
C32   H10   1.112400 S    
Zn1   O7    1.980720 S    
C15   C16   1.412819 A    
C29   N6    1.429083 S    
C19   C24   1.360638 A    
C21   C22   1.395161 A    
C19   C20   1.386732 A    
C16   C17   1.394025 A    
O7    C4    1.290142 A    
C34   H16   1.109651 S    
C27   C30   1.410889 A    
C5    C6    1.394138 A    
N3    O9    1.301192 A    
C7    C8    1.406887 A    
O5    C3    1.286024 A    
N5    O14   1.301692 A    
C5    C10   1.409730 A    
C28   H9    1.081750 S    
C21   C35   1.508752 S    
C6    H1    1.084662 S    
N6    O16   1.301067 A    
C11   C12   1.187064 T    
C17   C18   1.395106 A    
C31   C33   1.536126 S    
C27   C32   1.485794 S    
N4    O11   1.301104 A    
C26   H8    1.112237 S    
C25   N5    1.465946 S    
O3    Zn1   1.972284 S    
C32   H11   1.110410 S    
N4    O12   1.301676 A    
C30   C31   1.514515 S    
C25   N4    1.469003 S    
O3    C2    1.291326 A    
C23   C24   1.391875 A    
C34   H15   1.110534 S    
C33   H12   1.103072 S    
C13   H3    1.083976 S    
C27   N1    1.362463 A    
C35   H18   1.110308 S    
O1    C1    1.290717 A    
C20   C21   1.416802 A    
N8    O19   1.301635 A    
C22   H6    1.084340 S    
C31   N7    1.466522 S    
C17   H5    1.084910 S    
C1    C20   1.424370 S    
Zn2   O8    1.972284 S    
N5    O13   1.300366 A    
N2    C30   1.369182 A    
C6    C7    1.397498 A    
N8    O20   1.300584 A    
N7    O18   1.301230 A    
C24   C25   1.516747 S    
C9    C10   1.396429 A    
C29   N2    1.381707 A    
C35   H19   1.110912 S    
C26   H7    1.112711 S    
C31   C32   1.522641 S    
Zn1   O5    2.005996 S    
N1    C28   1.360937 A    
O1    Zn1   1.992840 S    
O2    Zn2   2.005996 S    
Zn1   N2    2.021143 S    
O8    C4    1.291007 A    
N7    O17   1.300538 A    
O6    C3    1.289252 A    
O4    Zn2   1.980720 S    
C13   C14   1.382344 A    
C35   H20   1.109948 S    
C12   C18   1.407785 S    
C5    N3    1.443797 S    
C8    N8    1.440438 S    
O2    C1    1.285608 A    
C22   C23   1.403798 A    
C34   H17   1.107816 S    
O4    C2    1.291911 A    
C33   H14   1.108050 S    
N3    O10   1.301919 A    
Zn2   N1    2.021117 S    
C3    C23   1.419175 S    
C16   C34   1.508824 S    
C2    C15   1.438740 S    
C9    H2    1.084992 S    
Zn2   O6    1.992839 S    
N6    O15   1.299682 A    
C14   H4    1.080073 S    
C33   H13   1.110175 S    
C10   C11   1.411317 S    
C13   C18   1.390964 A    
