data_mof_unit_53315.cif
_audit_creation_date              2012-10-26T18:28:26-0400
_audit_creation_method            fapswitch 2.2
_symmetry_space_group_name_H-M    P1
_symmetry_Int_Tables_number       1
_space_group_crystal_system       triclinic
_cell_length_a                    27.807699
_cell_length_b                    10.817902
_cell_length_c                    9.774752
_cell_angle_alpha                 109.55938
_cell_angle_beta                  98.331587
_cell_angle_gamma                 90.35004
_cell_volume                      2736.82066303

loop_
_atom_site_label
_atom_site_type_symbol
_atom_type_description
_atom_site_fract_x
_atom_site_fract_y
_atom_site_fract_z
_atom_type_partial_charge
C1    C     C_R   0.494003 0.253640 0.443354 0.562412
C2    C     C_R   0.871995 0.381423 0.498697 -0.012436
C3    C     C_R   0.355128 0.509448 0.506840 -0.004320
C4    C     C_R   0.644894 0.489302 0.492898 -0.021498
C5    C     C_R   0.975139 0.388335 0.511700 -0.003541
C6    C     C_R   0.024800 0.608638 0.485983 -0.003344
C7    C     C_R   0.973108 0.602346 0.473743 0.020462
C8    C     C_R   0.026834 0.394793 0.524341 0.020487
C9    C     C_R   0.948633 0.493233 0.489667 0.037265
C10   C     C_R   0.051310 0.503820 0.508265 0.037486
C11   C     C_R   0.948835 0.277187 0.514146 -0.105506
C12   C     C_R   0.500144 0.746283 0.556882 0.591938
C13   C     C_R   0.051109 0.719533 0.482901 -0.105296
C14   C     C_R   0.898210 0.271341 0.506222 0.019657
C15   C     C_R   0.101732 0.725309 0.490784 0.019096
C16   C     C_R   0.407709 0.503947 0.502271 0.600757
C17   C     C_R   0.592291 0.495540 0.497643 0.587047
C18   C     C_R   0.055265 0.296723 0.555790 -0.122605
C19   C     C_R   0.944669 0.700691 0.442951 -0.122759
C20   C     C_2   0.486207 0.113591 0.419112 -0.169693
C21   C     C_2   0.493950 0.886056 0.581814 -0.042923
C22   C     C_2   0.464561 0.070050 0.511017 -0.067416
C23   C     C_R   0.102837 0.507956 0.515049 -0.035041
C24   C     C_2   0.463354 0.929213 0.488664 0.022053
C25   C     C_2   0.503985 0.511314 0.080906 -0.002420
C26   C     C_2   0.495428 0.490800 0.919916 -0.001384
C27   C     C_R   0.179796 0.406020 0.539895 0.435374
C28   C     C_R   0.820188 0.591421 0.459281 0.434243
C29   C     C_R   0.178275 0.606856 0.489428 0.398175
C30   C     C_R   0.821677 0.389935 0.508362 0.397636
C31   C     C_R   0.285632 0.595303 0.625421 -0.135661
C32   C     C_R   0.714183 0.403798 0.372864 -0.139746
C33   C     C_R   0.335785 0.601377 0.624093 -0.016255
C34   C     C_R   0.897111 0.489103 0.483035 -0.035335
C35   C     C_R   0.664028 0.398322 0.374412 -0.024209
C36   C     C_R   0.323551 0.417929 0.391929 -0.157820
C37   C     C_R   0.676722 0.579029 0.608899 -0.164195
C38   C     C_R   0.273147 0.412391 0.394360 0.332508
C39   C     C_R   0.727126 0.583872 0.606286 0.330524
C40   C     C_R   0.254439 0.503368 0.511133 0.254742
C41   C     C_R   0.745587 0.494080 0.488133 0.254889
C42   C     C_3   0.254890 0.196691 0.245626 -0.078708
C43   C     C_3   0.746236 0.798272 0.757822 -0.082131
C44   C     C_2   0.634253 0.291056 0.254473 0.248376
C45   C     C_R   0.129369 0.404046 0.538218 0.027030
C46   C     C_2   0.365310 0.710083 0.742870 0.272360
C47   C     C_2   0.874111 0.143824 0.493071 0.276775
C48   C     C_2   0.125833 0.852658 0.503351 0.278430
C49   C     C_2   0.425919 0.845321 0.368240 0.272324
C50   C     C_2   0.437781 0.155791 0.625145 0.251912
C51   C     C_R   0.870591 0.593271 0.460539 0.026898
C52   C     C_R   0.105308 0.300854 0.561041 -0.084829
C53   C     C_R   0.894643 0.696652 0.438060 -0.085745
C54   C     C_R   0.127950 0.615404 0.498920 -0.012918
Cu1   Cu    Cu3+1 0.508480 0.521810 0.644910 0.993174
Cu2   Cu    Cu3+1 0.491520 0.478190 0.355090 1.032430
H1    H     H_    0.338347 0.350643 0.300552 0.121622
H2    H     H_    0.874808 0.775738 0.416371 0.194313
H3    H     H_    0.729467 0.334656 0.283605 0.117211
H4    H     H_    0.270168 0.665234 0.713662 0.119851
H5    H     H_    0.966604 0.189193 0.514399 0.154086
H6    H     H_    0.033359 0.807391 0.482044 0.153967
H7    H     H_    0.040299 0.215586 0.579568 0.132365
H8    H     H_    0.959602 0.782091 0.419597 0.132528
H9    H     H_    0.267679 0.171601 0.346089 0.146760
H10   H     H_    0.283117 0.177925 0.172677 0.112955
H11   H     H_    0.222722 0.129606 0.184547 0.169575
H12   H     H_    0.662139 0.645476 0.701284 0.122128
H13   H     H_    0.717801 0.817035 0.830068 0.107215
H14   H     H_    0.734006 0.825103 0.658192 0.145304
H15   H     H_    0.778589 0.864020 0.820319 0.167342
H16   H     H_    0.646999 0.249184 0.149559 0.099670
H17   H     H_    0.352360 0.753413 0.847253 0.095016
H18   H     H_    0.838531 0.111668 0.427341 0.158714
H19   H     H_    0.161411 0.884970 0.569041 0.161281
H20   H     H_    0.413841 0.875189 0.273925 0.087888
H21   H     H_    0.427588 0.251987 0.623942 0.106325
H22   H     H_    0.516339 0.956613 0.676578 0.106681
H23   H     H_    0.499865 0.043857 0.326258 0.117339
H24   H     H_    0.466762 0.420469 0.849110 0.150284
H25   H     H_    0.532098 0.583378 0.152513 0.140449
H26   H     H_    0.548298 0.620813 0.932359 0.207366
H27   H     H_    0.452270 0.377598 0.067098 0.226936
H28   H     H_    0.125145 0.221993 0.583275 0.194451
N1    N     N_R   0.202918 0.505063 0.513065 -0.365644
N2    N     N_R   0.797069 0.492108 0.485619 -0.364765
N3    N     N_2   0.478780 0.445430 0.137360 -0.336066
N4    N     N_2   0.521220 0.554570 0.862640 -0.348815
O1    O     O_R   0.504520 0.332330 0.577400 -0.506513
O2    O     O_2   0.794399 0.688573 0.432876 -0.496126
O3    O     O_2   0.797612 0.300375 0.545572 -0.496479
O4    O     O_2   0.202316 0.695999 0.451515 -0.487824
O5    O     O_3   0.240784 0.327371 0.279040 -0.529065
O6    O     O_3   0.759696 0.666940 0.722582 -0.530943
O7    O     O_2   0.596962 0.243127 0.273179 -0.478361
O8    O     O_2   0.402635 0.757463 0.723726 -0.435872
O9    O     O_2   0.894502 0.071176 0.552500 -0.512448
O10   O     O_2   0.105448 0.925003 0.443481 -0.510969
O11   O     O_2   0.405917 0.748281 0.377306 -0.444165
O12   O     O_R   0.495480 0.667670 0.422600 -0.485392
O13   O     O_2   0.425465 0.117501 0.719786 -0.480317
O14   O     O_R   0.490210 0.295500 0.332650 -0.455205
O15   O     O_R   0.509790 0.704500 0.667350 -0.466059
O16   O     O_R   0.437420 0.518430 0.622370 -0.488881
O17   O     O_R   0.562580 0.481570 0.377630 -0.468013
O18   O     O_R   0.423110 0.481600 0.377610 -0.469210
O19   O     O_R   0.576890 0.518400 0.622390 -0.500952
O20   O     O_2   0.205604 0.309278 0.567242 -0.490268

loop_
_geom_bond_atom_site_label_1
_geom_bond_atom_site_label_2
_ccdc_geom_bond_type
C31   H4    S    
H27   N3    S    
Cu1   Cu2   S    
C23   C45   A    
C42   O5    S    
C18   C52   A    
C39   C41   A    
C41   N2    S    
C34   C51   A    
C3    C36   A    
C5    C11   A    
C17   O19   A    
C28   C51   A    
C18   H7    S    
C29   C54   A    
C3    C33   A    
C37   H12   S    
Cu1   O15   S    
C25   N3    D    
C43   O6    S    
C31   C40   A    
C52   H28   S    
Cu1   N4    S    
C27   N1    A    
C16   O16   A    
C13   H6    S    
C21   H22   S    
C42   H9    S    
C43   H15   S    
C32   C41   A    
C31   C33   A    
C30   N2    A    
C29   N1    A    
C16   O18   A    
C22   C50   S    
C2    C34   A    
C19   C53   A    
C4    C35   A    
C43   H13   S    
C25   H25   S    
C33   C46   S    
C48   H19   S    
C15   C48   S    
C37   C39   A    
C32   C35   A    
C12   O15   A    
C36   H1    S    
Cu2   N3    S    
C45   C52   A    
C25   C26   S    
Cu1   O16   S    
C26   H24   S    
Cu1   O19   S    
C51   C53   A    
C40   N1    S    
C15   C54   A    
C39   O6    S    
C5    C9    A    
C17   O17   A    
C49   O11   D    
C19   H8    S    
C49   H20   S    
C35   C44   S    
Cu2   O18   S    
C6    C7    A    
C4    C17   S    
C26   N4    D    
C20   C22   D    
C43   H14   S    
C7    C19   A    
C13   C15   A    
C28   N2    A    
C42   H11   S    
C22   C24   S    
Cu2   O12   S    
C50   H21   S    
C23   C54   A    
C24   C49   S    
C7    C9    A    
C1    C20   S    
C1    O1    A    
C20   H23   S    
C47   H18   S    
C30   O3    S    
C11   H5    S    
C6    C10   A    
C5    C8    A    
C53   H2    S    
C14   C47   S    
C10   C23   A    
C48   O10   D    
C47   O9    D    
C2    C30   A    
C36   C38   A    
Cu2   O14   S    
Cu1   O1    S    
C44   O7    D    
C6    C13   A    
C38   C40   A    
C27   C45   A    
C9    C34   A    
C27   O20   S    
H26   N4    S    
C12   C21   S    
C38   O5    S    
C11   C14   A    
C44   H16   S    
C29   O4    S    
C2    C14   A    
C8    C18   A    
Cu2   O17   S    
C12   O12   A    
C46   O8    D    
C4    C37   A    
C50   O13   D    
C8    C10   A    
C21   C24   D    
C42   H10   S    
C28   O2    S    
C32   H3    S    
C1    O14   A    
C46   H17   S    
C3    C16   S    
