data_mof_unit_57002.cif
_audit_creation_date              2012-10-26T20:51:11-0400
_audit_creation_method            fapswitch 2.2
_symmetry_space_group_name_H-M    P1
_symmetry_Int_Tables_number       1
_space_group_crystal_system       triclinic
_cell_length_a                    12.999839
_cell_length_b                    10.84639
_cell_length_c                    9.527715
_cell_angle_alpha                 89.621753
_cell_angle_beta                  96.079339
_cell_angle_gamma                 90.492568
_cell_volume                      1335.79405242

loop_
_atom_site_label
_atom_site_type_symbol
_atom_type_description
_atom_site_fract_x
_atom_site_fract_y
_atom_site_fract_z
_atom_type_partial_charge
C1    C     C_R   0.504030 0.262280 0.501281 0.563479
C2    C     C_R   0.512955 0.937157 0.372583 -0.155712
C3    C     C_R   0.508587 0.870927 0.499005 -0.003217
C4    C     C_R   0.300470 0.498826 0.473729 0.556790
C5    C     C_R   0.522010 0.934955 0.625677 -0.050503
C6    C     C_3   0.464545 0.928225 0.752460 -0.169561
C7    C     C_3   0.484983 0.066461 0.769442 0.510524
C8    C     C_R   0.588555 0.525545 0.086331 0.155796
C9    C     C_R   0.414742 0.464725 0.062359 -0.033010
C10   C     C_R   0.414506 0.465732 0.913652 -0.026324
C11   C     C_R   0.588790 0.524569 0.938978 0.130856
C12   C     C_R   0.028002 0.493797 0.567570 0.049522
C13   C     C_3   0.653045 0.639026 0.940605 -0.270654
C14   C     C_3   0.650727 0.641889 0.099466 -0.268307
C15   C     C_R   0.500076 0.737761 0.499426 0.555246
C16   C     C_R   0.699518 0.498250 0.526243 0.542823
C17   C     C_R   0.812278 0.494473 0.541319 0.001726
C18   C     C_R   0.187684 0.495550 0.458510 0.004309
C19   C     C_R   0.024173 0.487608 0.311221 -0.141231
C20   C     C_R   0.131716 0.490666 0.324264 -0.137038
C21   C     C_R   0.135394 0.496381 0.579728 -0.127051
C22   C     C_3   0.358390 0.159158 0.896041 0.043673
C23   C     C_R   0.971942 0.489833 0.432279 0.047817
C24   C     C_3   0.317242 0.043088 0.965302 -0.280323
C25   C     C_3   0.265210 0.075798 0.096343 -0.481436
C26   C     C_3   0.624346 0.186531 0.878137 0.009103
C27   C     C_3   0.694087 0.200635 0.017044 -0.267021
C28   C     C_3   0.785450 0.287313 0.001760 -0.485456
C29   C     C_R   0.864504 0.489276 0.420185 -0.133159
C30   C     C_R   0.868356 0.496055 0.675484 -0.140069
C31   C     C_R   0.975821 0.495733 0.688618 -0.140060
C32   C     C_R   0.531603 0.061126 0.630007 0.033831
C33   C     C_R   0.516645 0.129316 0.503393 -0.005566
C34   C     C_R   0.516174 0.065715 0.374636 -0.168036
Cu1   Cu    Cu3+1 0.499990 0.499980 0.640670 0.935380
Cu2   Cu    Cu3+1 0.500010 0.500020 0.359330 0.926335
H1    H     H_    0.504192 0.871988 0.838918 0.120381
H2    H     H_    0.239121 0.990116 0.146794 0.156025
H3    H     H_    0.196839 0.134939 0.067119 0.143805
H4    H     H_    0.580352 0.272779 0.857554 0.185137
H5    H     H_    0.673966 0.169715 0.792087 0.136129
H6    H     H_    0.647830 0.236581 0.099368 0.163739
H7    H     H_    0.724784 0.108934 0.052491 0.182516
H8    H     H_    0.835916 0.248962 0.925971 0.149910
H9    H     H_    0.831796 0.298321 0.105771 0.143769
H10   H     H_    0.758135 0.379239 0.963843 0.142545
H11   H     H_    0.345398 0.436773 0.107674 0.108976
H12   H     H_    0.177977 0.499727 0.683849 0.109366
H13   H     H_    0.344735 0.439426 0.848923 0.116767
H14   H     H_    0.731491 0.621677 0.909504 0.114520
H15   H     H_    0.612354 0.716791 0.884205 0.153323
H16   H     H_    0.728147 0.628383 0.158490 0.120322
H17   H     H_    0.606397 0.720747 0.135556 0.147365
H18   H     H_    0.829402 0.497983 0.770146 0.116547
H19   H     H_    0.981966 0.484281 0.206880 0.095140
H20   H     H_    0.017989 0.497876 0.793015 0.095554
H21   H     H_    0.170888 0.489326 0.229473 0.116803
H22   H     H_    0.508499 0.890660 0.271841 0.135612
H23   H     H_    0.512671 0.114629 0.274761 0.142638
H24   H     H_    0.381720 0.903601 0.724256 0.115781
H25   H     H_    0.821880 0.485377 0.316229 0.112977
H26   H     H_    0.293780 0.225682 0.878755 0.126409
H27   H     H_    0.419075 0.205216 0.968810 0.159532
H28   H     H_    0.260237 0.995155 0.888788 0.162880
H29   H     H_    0.381964 0.979469 0.997976 0.169516
H30   H     H_    0.320371 0.125405 0.173713 0.157514
N1    N     N_R   0.500660 0.500930 0.148010 -0.229202
N2    N     N_R   0.500660 0.500890 0.852110 -0.239307
O1    O     O_R   0.500000 0.319640 0.618810 -0.484111
O2    O     O_3   0.556436 0.086091 0.891991 -0.608422
O3    O     O_R   0.500010 0.319680 0.381230 -0.514485
O4    O     O_R   0.348990 0.499960 0.599490 -0.508395
O5    O     O_R   0.349000 0.500000 0.361910 -0.512240
O6    O     O_R   0.499990 0.680320 0.618770 -0.501232
O7    O     O_R   0.500000 0.680360 0.381190 -0.504463
O8    O     O_R   0.651000 0.500000 0.638090 -0.515246
O9    O     O_R   0.651010 0.500040 0.400510 -0.507484
O10   O     O_3   0.392295 0.136179 0.761886 -0.560386

loop_
_geom_bond_atom_site_label_1
_geom_bond_atom_site_label_2
_ccdc_geom_bond_type
C15   O7    A    
Cu1   O6    S    
C18   C21   A    
C17   C29   A    
Cu1   Cu2   S    
C7    O2    S    
Cu2   N1    S    
C1    C33   S    
C30   H18   S    
C12   C23   A    
C28   H10   S    
C26   C27   S    
C1    O3    A    
C23   C29   A    
Cu2   O9    S    
C30   C31   A    
C16   O9    A    
C22   H27   S    
C13   H15   S    
C14   H16   S    
C19   C20   A    
C16   C17   S    
C31   H20   S    
C9    C10   A    
Cu2   O3    S    
C5    C32   A    
C4    C18   S    
C2    C34   A    
C24   H28   S    
C13   C14   S    
C17   C30   A    
Cu1   O8    S    
C29   H25   S    
C28   H9    S    
C6    H24   S    
C24   C25   S    
C22   O10   S    
C12   C21   A    
C28   H8    S    
C1    O1    A    
C19   C23   A    
C9    N1    A    
Cu2   O7    S    
C25   H2    S    
C22   H26   S    
C14   H17   S    
C33   C34   A    
C6    H1    S    
C4    O5    A    
C24   H29   S    
C7    O10   S    
Cu1   O4    S    
C9    H11   S    
C12   C31   A    
C34   H23   S    
C26   O2    S    
C22   C24   S    
C4    O4    A    
C3    C15   S    
C11   N2    A    
C19   H19   S    
C8    C14   S    
C7    C32   S    
C16   O8    A    
C25   H30   S    
C3    C5    A    
C2    H22   S    
C6    C7    S    
C10   N2    A    
C32   C33   A    
C21   H12   S    
C2    C3    A    
C25   H3    S    
C11   C13   S    
C27   H6    S    
C26   H4    S    
C5    C6    S    
Cu1   N2    S    
C8    C11   A    
C18   C20   A    
Cu2   O5    S    
C13   H14   S    
C27   H7    S    
C15   O6    A    
Cu1   O1    S    
C8    N1    A    
C27   C28   S    
C20   H21   S    
C10   H13   S    
C26   H5    S    
