data_mof_unit_66954.cif
_audit_creation_date              2013-03-05T15:58:11-0500
_audit_creation_method            fapswitch 2.2
_symmetry_space_group_name_H-M    P1
_symmetry_Int_Tables_number       1
_space_group_crystal_system       triclinic
_cell_length_a                    8.33535
_cell_length_b                    13.284409
_cell_length_c                    14.741037
_cell_angle_alpha                 94.874844
_cell_angle_beta                  91.31901
_cell_angle_gamma                 98.434947
_cell_volume                      1607.73813333

loop_
_atom_site_label
_atom_site_type_symbol
_atom_site_description
_atom_site_fract_x
_atom_site_fract_y
_atom_site_fract_z
_atom_type_partial_charge
P1    P     P_3+3 0.054400 0.427280 0.286870 0.533599
O1    O     O_2   0.887370 0.460630 0.272300 -0.380211
O2    O     O_3   0.129410 0.451380 0.388510 -0.314454
O3    O     O_3   0.670210 0.653170 0.329170 -0.249367
O4    O     O_2   0.779210 0.581670 0.176390 -0.348560
O5    O     O_3   0.000071 0.294209 0.269947 -0.550730
O6    O     O_3   0.719267 0.768609 0.175381 -0.488901
C1    C     C_3   0.649506 0.943133 0.167417 -0.620180
H1    H     H_    0.663327 0.009891 0.218526 0.174653
P2    P     P_3+3 0.668300 0.742890 0.573060 0.621894
P3    P     P_3+3 0.143964 0.835054 0.375166 0.685182
O7    O     O_2   0.845380 0.761330 0.544970 -0.288639
O8    O     O_3   0.088930 0.704860 0.376040 -0.310068
O9    O     O_2   0.021571 0.884768 0.434957 -0.233846
O10   O     O_3   0.682883 0.771299 0.689230 -0.553097
O11   O     O_3   0.105863 0.861648 0.262898 -0.473598
C2    C     C_3   0.128606 0.774260 0.206009 0.355839
H2    H     H_    0.034546 0.709538 0.219025 0.168819
H3    H     H_    0.249000 0.751159 0.219710 -0.055034
C3    C     C_3   0.116243 0.793132 0.105750 0.051749
H4    H     H_    0.081333 0.868892 0.097364 0.170800
C4    C     C_3   0.174478 0.773546 0.686854 0.725110
H5    H     H_    0.051383 0.790901 0.697488 0.068641
C5    C     C_3   0.298502 0.868069 0.714062 -0.045952
H6    H     H_    0.422589 0.847851 0.711768 0.153221
H7    H     H_    0.277844 0.898097 0.784479 0.111875
Ba1   Ba    Ba6+2 0.855630 0.555280 0.454520 1.771642
C6    C     C_3   0.973500 0.255107 0.354848 0.363344
H8    H     H_    0.877249 0.290314 0.390726 0.099808
H9    H     H_    0.086281 0.269280 0.397723 0.164003
C7    C     C_3   0.922493 0.140518 0.341161 -0.791621
H10   H     H_    0.794728 0.124155 0.316881 0.243681
H11   H     H_    0.934444 0.105811 0.406214 0.232590
H12   H     H_    0.999659 0.105813 0.290948 0.334045
C8    C     C_3   0.726660 0.691860 0.734853 0.113699
H13   H     H_    0.837600 0.665416 0.707725 0.059346
H14   H     H_    0.625768 0.626517 0.729028 0.141381
C9    C     C_3   0.752768 0.734346 0.834410 -0.590325
H15   H     H_    0.750306 0.668556 0.875213 0.188916
P4    P     P_3+3 0.135310 0.572810 0.713130 0.556184
O12   O     O_2   0.302330 0.539400 0.727760 -0.327073
O13   O     O_3   0.060300 0.548700 0.611500 -0.324030
O14   O     O_3   0.519500 0.346920 0.670840 -0.346610
O15   O     O_3   0.209793 0.701066 0.744302 -0.580349
P5    P     P_3+3 0.057359 0.163904 0.623622 0.622128
O16   O     O_3   0.614310 0.373510 0.452640 -0.309980
O17   O     O_3   0.100780 0.295230 0.623970 -0.321307
O18   O     O_2   0.172430 0.123227 0.553694 -0.269583
O19   O     O_3   0.131266 0.135979 0.729416 -0.435025
Ba2   Ba    Ba6+2 0.334200 0.444810 0.545490 1.749423
P6    P     P_3+3 0.650250 0.646269 0.211180 0.581248
C10   C     C_3   0.640387 0.845090 0.220135 0.743432
H16   H     H_    0.512057 0.816306 0.233034 -0.056113
O20   O     O_3   0.575400 0.626570 0.547370 -0.301850
C11   C     C_3   0.531122 0.277908 0.258205 0.436295
H17   H     H_    0.405382 0.295586 0.253736 0.123465
H18   H     H_    0.621607 0.344602 0.283060 0.141281
C12   C     C_3   0.577375 0.243472 0.162546 -0.924414
H19   H     H_    0.486496 0.179253 0.132351 0.287537
H20   H     H_    0.580906 0.307877 0.118919 0.224672
H21   H     H_    0.698920 0.218663 0.164380 0.275377
P7    P     P_3+3 0.529156 0.240717 0.430362 0.555356
O21   O     O_2   0.344320 0.238700 0.455090 -0.320244
O22   O     O_3   0.533733 0.198491 0.313821 -0.542523
H22   H     H_    0.234140 0.789108 0.073375 0.077424
C13   C     C_3   0.026637 0.166010 0.796679 0.316385
H23   H     H_    0.008116 0.247050 0.793670 0.078204
H24   H     H_    0.907815 0.116172 0.786141 0.047386
C14   C     C_3   0.094441 0.151177 0.891332 0.044844
H25   H     H_    0.993371 0.122127 0.934419 0.098890
H26   H     H_    0.181727 0.095691 0.886626 0.157175
P8    P     P_3+3 0.539706 0.359261 0.789399 0.559342
C15   C     C_3   0.567332 0.170386 0.769087 0.385693
H27   H     H_    0.694264 0.203778 0.756304 -0.003618
O23   O     O_2   0.404797 0.417136 0.827317 -0.312669
O24   O     O_3   0.487097 0.237103 0.824049 -0.460728
H28   H     H_    0.499363 0.149814 0.702852 0.167231
H29   H     H_    0.656404 0.092908 0.878409 0.257007
C16   C     C_3   0.574113 0.074843 0.816978 -0.784092
H30   H     H_    0.620141 0.016958 0.769734 0.248093
H31   H     H_    0.451544 0.044001 0.838596 0.274005
C17   C     C_R   0.982653 0.442757 0.056210 -0.000608
C18   C     C_R   0.183644 0.483617 0.192906 0.069291
C19   C     C_R   0.344828 0.522975 0.221002 0.180432
C20   C     C_R   0.448431 0.579105 0.164857 0.048252
C21   C     C_R   0.404880 0.577848 0.072700 -0.442405
C22   C     C_R   0.249279 0.535118 0.037093 0.067137
C23   C     C_R   0.135253 0.487111 0.096872 0.010850
C24   C     C_R   0.056336 0.500097 0.902498 0.065985
C25   C     C_R   0.943443 0.448698 0.961434 0.114217
C26   C     C_R   0.010850 0.506729 0.806492 0.201781
C27   C     C_R   0.852518 0.465091 0.777628 -0.488868
C28   C     C_R   0.743420 0.415232 0.835161 0.277772
C29   C     C_R   0.789813 0.404283 0.925243 -0.224085
C30   C     C_R   0.207573 0.542443 0.942862 -0.006882
H32   H     H_    0.703070 0.363759 0.967995 0.160983
H33   H     H_    0.811596 0.473496 0.709012 0.186843
H34   H     H_    0.893288 0.402774 0.097707 0.134041
H35   H     H_    0.293464 0.582255 0.900185 0.177366
C31   C     C_R   0.745688 0.177698 0.552037 -0.006068
C32   C     C_R   0.450878 0.817547 0.453496 0.151252
C33   C     C_R   0.410138 0.988593 0.427750 0.463173
C34   C     C_R   0.355126 0.884310 0.420563 0.070398
C35   C     C_R   0.583044 0.850355 0.515103 0.273667
C36   C     C_R   0.639607 0.961407 0.529207 -0.201361
C37   C     C_R   0.553008 0.031543 0.482270 -0.210419
C38   C     C_R   0.609121 0.141125 0.495525 0.217587
C39   C     C_R   0.841882 0.111649 0.586017 -0.016084
C40   C     C_R   0.783585 0.006582 0.582005 0.412088
Cl1   Cl    Cl    0.742906 0.883336 0.326075 -0.644851
Cl2   Cl    Cl    0.291894 0.966054 0.641768 -0.609931
C41   C     C_2   0.917383 0.798380 0.852941 1.175264
O25   O     O_2   0.032514 0.757143 0.873756 -0.651819
O26   O     O_R   0.940252 0.903735 0.847252 -0.730243
H36   H     H_    0.055213 0.935772 0.865302 0.294807
C42   C     C_2   0.614682 0.792653 0.860795 1.284946
O27   O     O_2   0.638562 0.884179 0.883371 -0.571465
O28   O     O_R   0.457356 0.740168 0.859119 -0.812763
H37   H     H_    0.377813 0.783953 0.886665 0.338817
C43   C     C_2   0.493557 0.954054 0.117820 0.905407
O29   O     O_2   0.480509 0.943479 0.034696 -0.620957
O30   O     O_R   0.367911 0.986277 0.168203 -0.735618
H38   H     H_    0.279327 0.006357 0.128372 0.327420
C44   C     C_2   0.794917 0.960816 0.108476 1.191313
O31   O     O_2   0.809792 0.900826 0.042963 -0.549987
O32   O     O_R   0.910602 0.047854 0.127694 -0.811337
H39   H     H_    0.002301 0.051517 0.083574 0.311140
Cl3   Cl    Cl    0.197309 0.267031 0.947856 -0.620828
Cl4   Cl    Cl    0.431089 0.484413 0.320074 -0.557708
C45   C     C_2   0.531171 0.615499 0.012986 1.175345
O33   O     O_2   0.588900 0.555642 0.961197 -0.626617
O34   O     O_R   0.590128 0.718508 0.018616 -0.727568
H40   H     H_    0.512788 0.760006 0.050906 0.274769
Cl5   Cl    Cl    0.288183 0.054126 0.361423 -0.519609
Cl6   Cl    Cl    0.894523 0.942587 0.653198 -0.560470
Cl7   Cl    Cl    0.798526 0.309557 0.581666 -0.636858
Cl8   Cl    Cl    0.399920 0.689946 0.413205 -0.503026
Cl9   Cl    Cl    0.969296 0.698318 0.047478 -0.578249
Cl10  Cl    Cl    0.189294 0.736139 0.571570 -0.522781

loop_
_geom_bond_atom_site_label_1
_geom_bond_atom_site_label_2
_geom_bond_distance
_ccdc_geom_bond_type
P2    Ba1   3.497173 S    
C1    H1    1.104455 S    
C13   H24   1.107459 S    
C11   H17   1.108888 S    
O32   H39   1.013374 S    
C40   Cl6   1.736893 S    
C15   H27   1.112377 S    
C8    H13   1.107647 S    
P8    O24   1.740425 S    
P6    C20   1.869624 S    
C41   O26   1.394496 S    
O26   H36   1.009713 S    
Ba1   O20   2.966840 S    
C20   C21   1.396157 A    
C39   C40   1.404790 A    
Ba2   O20   2.904287 S    
O16   P7    1.801963 S    
C6    H8    1.108915 S    
C8    H14   1.112633 S    
C5    H7    1.106460 S    
O6    C10   1.414864 S    
P2    O10   1.719555 S    
C9    H15   1.100312 S    
P3    O9    1.547219 D    
C30   H35   1.074356 S    
C13   C14   1.532374 S    
C37   C38   1.457325 A    
C12   H20   1.110619 S    
C19   Cl4   1.760428 S    
C2    C3    1.523561 S    
C42   O27   1.218961 D    
P1    O1    1.537577 D    
C3    Cl9   1.771914 S    
C14   H26   1.108341 S    
O28   H37   1.013999 S    
C41   O25   1.218368 D    
P7    O22   1.764359 S    
O5    C6    1.405238 S    
C7    H10   1.100371 S    
C14   Cl3   1.777688 S    
O34   H40   1.009870 S    
C22   C30   1.438920 A    
C7    H11   1.107384 S    
C33   C37   1.438161 A    
O1    Ba1   2.902147 S    
P5    O19   1.752237 S    
C24   C26   1.469908 A    
C1    C10   1.565802 S    
Ba1   Ba2   4.655107 S    
C12   H21   1.110840 S    
P4    O13   1.598273 S    
C18   C23   1.469444 A    
P2    C35   1.936477 S    
C32   C34   1.386467 A    
Ba2   O21   2.955102 S    
C17   H34   1.082261 S    
C33   C34   1.388201 A    
C5    Cl2   1.757029 S    
P8    O23   1.541938 D    
O10   C8    1.386144 S    
C35   C36   1.476896 A    
O2    Ba2   2.858750 S    
C43   O30   1.394620 S    
C27   H33   1.079994 S    
C25   C29   1.402122 A    
O17   Ba2   2.903872 S    
P5    O17   1.728511 S    
C4    O15   1.393244 S    
C31   C39   1.387898 A    
O19   C13   1.406248 S    
O7    Ba1   2.954857 S    
P1    O5    1.754225 S    
C3    H22   1.108602 S    
C8    C9    1.525837 S    
C5    H6    1.106634 S    
O4    P6    1.541462 D    
C26   C27   1.395966 A    
C16   H31   1.107963 S    
C32   Cl8   1.735686 S    
H29   C16   1.110979 S    
C21   C45   1.447805 S    
P7    C38   1.887483 S    
O3    P6    1.736761 S    
C12   H19   1.109087 S    
C4    Cl10  1.741926 S    
P1    O2    1.598399 S    
C24   C30   1.400057 A    
C45   O34   1.379313 S    
C33   Cl5   1.762302 S    
P7    O21   1.588289 D    
C9    C42   1.518887 S    
P3    O11   1.752888 S    
C18   C19   1.407651 A    
C10   Cl1   1.761672 S    
C11   O22   1.392315 S    
C2    H2    1.108128 S    
C15   C16   1.511312 S    
C7    H12   1.106831 S    
P4    Ba2   3.471015 S    
C28   C29   1.399897 A    
C10   H16   1.108280 S    
C19   C20   1.391250 A    
C29   H32   1.083607 S    
P2    O7    1.532781 D    
O13   Ba2   2.976962 S    
P8    C28   1.839251 S    
Ba1   O16   2.904953 S    
P4    O12   1.537970 D    
C32   C35   1.405039 A    
C11   H18   1.106413 S    
C15   O24   1.402144 S    
C4    C5    1.523421 S    
C9    C41   1.510555 S    
O12   Ba2   2.902699 S    
O3    Ba1   2.891476 S    
C43   O29   1.221935 D    
C1    C43   1.508273 S    
C44   O32   1.397013 S    
P5    O18   1.541898 D    
O14   P8    1.743356 S    
C36   C40   1.439603 A    
C31   C38   1.396820 A    
C21   C22   1.407811 A    
C6    C7    1.514155 S    
C1    C44   1.509571 S    
P5    C39   1.880974 S    
O14   Ba2   2.890890 S    
P1    C18   1.909865 S    
C36   C37   1.466872 A    
O16   Ba2   2.966048 S    
C17   C25   1.438833 A    
O2    Ba1   2.976192 S    
C45   O33   1.213520 D    
O30   H38   1.012702 S    
O6    P6    1.770929 S    
P3    O8    1.724308 S    
Ba1   O13   2.858192 S    
O11   C2    1.411852 S    
C17   C23   1.417527 A    
C6    H9    1.104139 S    
C27   C28   1.392549 A    
C2    H3    1.110669 S    
C42   O28   1.390596 S    
C13   H23   1.114163 S    
P4    C26   1.935158 S    
C14   H25   1.110394 S    
P2    O20   1.633038 S    
C16   H30   1.109659 S    
P4    O15   1.744429 S    
C3    H4    1.103750 S    
C22   C23   1.429280 A    
C11   C12   1.521006 S    
P1    Ba1   3.470549 S    
C15   H28   1.110273 S    
C4    H5    1.095963 S    
O8    Ba1   2.903292 S    
P3    C34   1.872816 S    
C24   C25   1.434032 A    
C31   Cl7   1.757240 S    
C44   O31   1.219337 D    
