data_mof_unit_44587.cif
_audit_creation_date              2012-12-10T18:50:43-0500
_audit_creation_method            fapswitch 2.2
_symmetry_space_group_name_H-M    P1
_symmetry_Int_Tables_number       1
_space_group_crystal_system       triclinic
_cell_length_a                    10.661488
_cell_length_b                    9.95966
_cell_length_c                    15.842517
_cell_angle_alpha                 92.789131
_cell_angle_beta                  90.747921
_cell_angle_gamma                 89.02134
_cell_volume                      1679.87070739

loop_
_atom_site_label
_atom_site_type_symbol
_atom_type_description
_atom_site_fract_x
_atom_site_fract_y
_atom_site_fract_z
_atom_type_partial_charge
C1    C     C_R   0.260519 0.500929 0.499464 0.923783
C2    C     C_3   0.625319 0.487359 0.947371 -0.527731
C3    C     C_3   0.637704 0.480121 0.046012 0.537481
C4    C     C_1   0.488476 0.519531 0.825353 0.076908
C5    C     C_1   0.501727 0.490851 0.173943 0.218960
C6    C     C_1   0.502780 0.491081 0.249272 -0.004086
C7    C     C_R   0.063856 0.446651 0.429007 0.096594
C8    C     C_R   0.066521 0.544432 0.574009 0.095942
C9    C     C_R   0.934054 0.442494 0.430358 0.108309
C10   C     C_R   0.937462 0.532516 0.577126 0.147072
C11   C     C_R   0.872312 0.493102 0.502949 -0.220556
C12   C     C_R   0.127884 0.502042 0.499717 -0.214127
C13   C     C_R   0.576603 0.072081 0.553115 0.399082
C14   C     C_R   0.553835 0.935428 0.564295 0.386664
C15   C     C_R   0.501320 0.497077 0.338366 0.870979
C16   C     C_R   0.436845 0.924814 0.438610 -0.118631
C17   C     C_R   0.430293 0.068446 0.441892 -0.118791
C18   C     C_R   0.739522 0.498539 0.502182 0.947258
C19   C     C_R   0.498809 0.503390 0.661518 0.928932
C20   C     C_3   0.438174 0.638108 0.057559 0.138349
C21   C     C_3   0.420026 0.376959 0.039243 0.194081
C22   C     C_3   0.399777 0.397560 0.942908 0.194399
C23   C     C_3   0.443258 0.655325 0.959284 0.213224
C24   C     C_1   0.493181 0.512919 0.750260 -0.045652
C25   C     C_3   0.497552 0.496617 0.082364 -0.312099
C26   C     C_3   0.486730 0.516298 0.916760 -0.147877
H1    H     H_    0.386463 0.868604 0.389257 0.202186
H2    H     H_    0.373955 0.119369 0.395597 0.200298
H3    H     H_    0.481741 0.288287 0.040915 0.196657
H4    H     H_    0.498954 0.714712 0.086976 0.184024
H5    H     H_    0.689724 0.562965 0.923972 0.243448
H6    H     H_    0.659831 0.393329 0.914685 0.268237
N1    N     N_R   0.499970 0.857200 0.499980 -0.159276
N2    N     N_R   0.499970 0.142800 0.499980 -0.160309
O1    O     O_R   0.316750 0.614620 0.499990 -0.593650
O2    O     O_R   0.316750 0.385380 0.499990 -0.620935
O3    O     O_R   0.499990 0.614720 0.377140 -0.626311
O4    O     O_R   0.499990 0.385280 0.377140 -0.589088
O5    O     O_R   0.683220 0.614710 0.500000 -0.598258
O6    O     O_R   0.683220 0.385290 0.500000 -0.538985
O7    O     O_R   0.499980 0.614620 0.622860 -0.536687
O8    O     O_R   0.499980 0.385380 0.622860 -0.582419
Zn1   Zn    Zn3+2 0.499980 0.653120 0.500000 1.070417
Zn2   Zn    Zn3+2 0.499980 0.346880 0.500000 1.078267
I1    I     I_    0.284117 0.754874 0.899568 0.025933
I2    I     I_    0.204717 0.414991 0.902894 0.022711
S1    S     S_3+6 0.291627 0.693319 0.107513 0.100740
O9    O     O_2   0.285471 0.651583 0.197151 -0.273340
O10   O     O_2   0.287512 0.844449 0.109140 -0.244635
O11   O     O_3   0.163629 0.637083 0.055077 -0.433510
H7    H     H_    0.092590 0.687132 0.082127 0.427351
S2    S     S_3+6 0.293551 0.303850 0.095583 0.125571
O12   O     O_2   0.346515 0.247097 0.174927 -0.272377
O13   O     O_2   0.190605 0.402986 0.117647 -0.147145
O14   O     O_3   0.233286 0.175771 0.035861 -0.474213
H8    H     H_    0.169044 0.136793 0.071604 0.415740
I3    I     I_    0.445781 0.210306 0.873341 -0.020525
I4    I     I_    0.569421 0.816175 0.931257 -0.082726
S3    S     S_3+6 0.749735 0.605521 0.089265 0.081715
O15   O     O_2   0.865210 0.597454 0.035697 -0.188428
O16   O     O_2   0.705691 0.749336 0.093273 -0.319924
O17   O     O_3   0.792885 0.567404 0.187707 -0.466451
H9    H     H_    0.739156 0.624541 0.225816 0.350300
S4    S     S_3+6 0.714436 0.317598 0.070174 0.088621
O18   O     O_2   0.854628 0.331158 0.075948 -0.133362
O19   O     O_2   0.669221 0.270455 0.152934 -0.275758
O20   O     O_3   0.685272 0.195884 0.995519 -0.553884
H10   H     H_    0.722451 0.112853 0.017990 0.422703
I5    I     I_    0.164093 0.370533 0.321212 -0.054267
I6    I     I_    0.169459 0.620755 0.681662 -0.133340
I7    I     I_    0.832184 0.348038 0.327205 -0.034572
I8    I     I_    0.846446 0.543750 0.696410 -0.125065
S5    S     S_3+6 0.725181 0.131145 0.589697 0.109383
O21   O     O_2   0.711130 0.254401 0.647104 -0.256944
O22   O     O_2   0.793866 0.024869 0.637263 -0.219018
O23   O     O_3   0.813045 0.163440 0.506016 -0.538718
H11   H     H_    0.896107 0.188306 0.530186 0.378829
S6    S     S_3+6 0.546420 0.893195 0.671046 0.107395
O24   O     O_2   0.565005 0.016264 0.728069 -0.232204
O25   O     O_2   0.419903 0.837752 0.688959 -0.268554
O26   O     O_3   0.661149 0.782648 0.691584 -0.504120
H12   H     H_    0.661018 0.776118 0.753661 0.390003

loop_
_geom_bond_atom_site_label_1
_geom_bond_atom_site_label_2
_ccdc_geom_bond_type
C23   I4    S    
O14   H8    S    
C11   C18   S    
C23   I1    S    
S5    O22   D    
S5    O21   D    
C14   N1    A    
O26   H12   S    
S1    O10   D    
C20   H4    S    
C3    S4    S    
C5    C6    T    
C4    C24   T    
S6    O25   D    
C20   C25   S    
C2    H6    S    
C23   C26   S    
C18   O6    A    
C15   O3    A    
C6    C15   S    
C16   C17   A    
O1    Zn1   S    
C19   O8    A    
C16   H1    S    
S3    O15   D    
C13   C14   A    
O7    Zn1   S    
C1    C12   S    
O8    Zn2   S    
C22   I3    S    
S2    O13   D    
S1    O11   S    
C7    C12   A    
S3    O16   D    
O20   H10   S    
N1    Zn1   S    
S4    O20   S    
C3    C25   S    
N2    Zn2   S    
O23   H11   S    
S6    O24   D    
O5    Zn1   S    
C21   H3    S    
C2    H5    S    
S4    O19   D    
O3    Zn1   S    
C18   O5    A    
C15   O4    A    
O4    Zn2   S    
O17   H9    S    
C16   N1    A    
S1    O9    D    
C20   C23   S    
C8    C12   A    
O11   H7    S    
C2    C26   S    
C9    C11   A    
C5    C25   S    
C22   I2    S    
C13   S5    S    
S5    O23   S    
O2    Zn2   S    
C17   N2    A    
S2    O12   D    
C1    O1    A    
C7    C9    A    
C21   C25   S    
S3    O17   S    
C17   H2    S    
C9    I7    S    
C7    I5    S    
C4    C26   S    
S2    O14   S    
C8    I6    S    
S4    O18   D    
C2    C3    S    
C13   N2    A    
S6    O26   S    
C19   C24   S    
C14   S6    S    
C20   S1    S    
C10   C11   A    
O6    Zn2   S    
C8    C10   A    
C22   C26   S    
C21   C22   S    
C21   S2    S    
C19   O7    A    
C1    O2    A    
C3    S3    S    
C10   I8    S    
