data_mof_unit_55964.cif
_audit_creation_date              2012-12-10T20:26:27-0500
_audit_creation_method            fapswitch 2.2
_symmetry_space_group_name_H-M    P1
_symmetry_Int_Tables_number       1
_space_group_crystal_system       triclinic
_cell_length_a                    10.746008
_cell_length_b                    10.678606
_cell_length_c                    9.866328
_cell_angle_alpha                 89.914583
_cell_angle_beta                  90.011876
_cell_angle_gamma                 90.080895
_cell_volume                      1132.18226374

loop_
_atom_site_label
_atom_site_type_symbol
_atom_type_description
_atom_site_fract_x
_atom_site_fract_y
_atom_site_fract_z
_atom_type_partial_charge
C1    C     C_R   0.503765 0.259924 0.500092 0.879899
C2    C     C_R   0.563954 0.588054 0.071853 -0.136970
C3    C     C_R   0.563942 0.588082 0.927879 -0.134668
C4    C     C_R   0.262678 0.504438 0.500018 0.937731
C5    C     C_R   0.444661 0.404647 0.928765 0.218443
C6    C     C_3   0.310624 0.368923 0.923275 -0.516589
C7    C     C_3   0.310957 0.368466 0.077036 -0.510529
C8    C     C_R   0.504132 0.740027 0.499916 0.877032
C9    C     C_R   0.737391 0.498791 0.499897 0.926932
C10   C     C_2   0.932560 0.524523 0.388415 -0.159085
C11   C     C_2   0.869115 0.492015 0.499384 -0.327941
C12   C     C_R   0.523758 0.128543 0.500649 -0.104097
C13   C     C_2   0.066525 0.517923 0.386226 -0.157179
C14   C     C_2   0.131545 0.520834 0.501290 -0.341227
C15   C     C_R   0.523395 0.063601 0.623056 0.140797
C16   C     C_R   0.548264 0.064988 0.379206 -0.226430
C17   C     C_R   0.548586 0.935463 0.379126 -0.227757
C18   C     C_R   0.524376 0.871371 0.500485 -0.100590
C19   C     C_R   0.523857 0.935840 0.622997 0.126907
C20   C     C_3   0.435004 0.927975 0.739290 -0.474908
C21   C     C_3   0.434135 0.069876 0.739021 -0.494212
C22   C     C_R   0.444825 0.404534 0.071333 0.217175
H1    H     H_    0.885801 0.553278 0.295769 0.168183
H2    H     H_    0.111328 0.509967 0.288163 0.163268
H3    H     H_    0.089587 0.538631 0.599285 0.147914
H4    H     H_    0.558403 0.114172 0.283715 0.170558
H5    H     H_    0.558894 0.886645 0.283614 0.165566
H6    H     H_    0.343975 0.885948 0.710626 0.205327
H7    H     H_    0.478991 0.887290 0.831328 0.200629
H8    H     H_    0.342688 0.110218 0.709509 0.198899
H9    H     H_    0.477230 0.111264 0.831123 0.203445
H10   H     H_    0.613673 0.660512 0.126049 0.140117
H11   H     H_    0.613621 0.660586 0.873500 0.145737
H12   H     H_    0.251208 0.443746 0.879094 0.219546
H13   H     H_    0.296240 0.274472 0.879150 0.197450
H14   H     H_    0.251803 0.443124 0.121072 0.211791
H15   H     H_    0.297362 0.273731 0.121504 0.202502
H16   H     H_    0.912387 0.457079 0.591128 0.146952
N1    N     N_R   0.499170 0.499140 0.142800 -0.106747
N2    N     N_R   0.499170 0.499180 0.857150 -0.105645
O1    O     O_R   0.500020 0.316790 0.614690 -0.615898
O2    O     O_R   0.500000 0.316760 0.385350 -0.623443
O3    O     O_R   0.319080 0.500020 0.614640 -0.624821
O4    O     O_R   0.319070 0.499980 0.385300 -0.614391
O5    O     O_R   0.500000 0.683240 0.614650 -0.622062
O6    O     O_R   0.499980 0.683210 0.385310 -0.627591
O7    O     O_R   0.680930 0.500020 0.614700 -0.621959
O8    O     O_R   0.680920 0.499980 0.385360 -0.618657
Zn1   Zn    Zn3+2 0.500010 0.500020 0.653130 0.940570
Zn2   Zn    Zn3+2 0.499990 0.499980 0.346870 0.940025

loop_
_geom_bond_atom_site_label_1
_geom_bond_atom_site_label_2
_ccdc_geom_bond_type
C17   C18   A    
C11   H16   S    
C6    C7    S    
C4    O3    A    
C10   H1    S    
C7    C22   S    
C9    C11   S    
C21   H8    S    
O6    Zn2   S    
C19   C20   S    
C12   C15   A    
O5    Zn1   S    
O8    Zn2   S    
C2    C3    A    
C7    H15   S    
O7    Zn1   S    
C13   C14   D    
C6    H13   S    
C15   C19   A    
C21   H9    S    
C1    C12   S    
C4    O4    A    
O2    Zn2   S    
C22   N1    A    
C1    O1    A    
C3    N2    A    
C9    O7    A    
C20   H7    S    
C14   H3    S    
C4    C14   S    
C5    C6    S    
C8    O6    A    
C10   C11   D    
C3    H11   S    
O4    Zn2   S    
N2    Zn1   S    
C17   H5    S    
C12   C16   A    
C1    O2    A    
C15   C21   S    
N1    Zn2   S    
C20   C21   S    
C9    O8    A    
C2    H10   S    
C18   C19   A    
C7    H14   S    
C5    N2    A    
O1    Zn1   S    
C8    O5    A    
O3    Zn1   S    
C20   H6    S    
C2    N1    A    
C10   C13   S    
C8    C18   S    
C5    C22   A    
C6    H12   S    
C13   H2    S    
C16   C17   A    
C16   H4    S    
