data_mof_unit_53196.cif
_audit_creation_date              2012-12-11T17:02:16-0500
_audit_creation_method            fapswitch 2.2
_symmetry_space_group_name_H-M    P1
_symmetry_Int_Tables_number       1
_space_group_crystal_system       triclinic
_cell_length_a                    21.635847
_cell_length_b                    7.060885
_cell_length_c                    14.921229
_cell_angle_alpha                 89.79972
_cell_angle_beta                  107.453516
_cell_angle_gamma                 89.905251
_cell_volume                      2174.52135812

loop_
_atom_site_label
_atom_site_type_symbol
_atom_type_description
_atom_site_fract_x
_atom_site_fract_y
_atom_site_fract_z
_atom_type_partial_charge
O1    O     O_R   0.585850 0.505770 0.002130 -0.547170
O2    O     O_R   0.414150 0.005770 0.997870 -0.546365
O3    O     O_R   0.467530 0.173560 0.861970 -0.549579
O4    O     O_R   0.532470 0.673560 0.138030 -0.552025
C1    C     C_R   0.453970 0.345939 0.824948 0.713126
C2    C     C_R   0.546308 0.844670 0.174891 0.708404
O5    O     O_R   0.588690 0.175900 0.993250 -0.539012
O6    O     O_R   0.411310 0.675900 0.006750 -0.537932
O7    O     O_R   0.536170 0.007950 0.130090 -0.530512
O8    O     O_R   0.463830 0.507950 0.869910 -0.530664
C3    C     C_R   0.615071 0.344458 0.998051 0.692510
C4    C     C_R   0.385111 0.844565 0.002737 0.695437
O9    O     O_3   0.482630 0.339970 0.044740 -0.374244
O10   O     O_3   0.517370 0.839970 0.955260 -0.374227
V1    V     V_3+5 0.503220 0.064200 0.991700 1.406759
V2    V     V_3+5 0.496780 0.564200 0.008300 1.404907
C5    C     C_R   0.277838 0.008583 0.967176 -0.001790
C6    C     C_R   0.721534 0.512724 0.029882 -0.001121
C7    C     C_R   0.317370 0.854096 0.005459 -0.106907
C8    C     C_R   0.683042 0.354068 0.996225 -0.107812
C9    C     C_R   0.291231 0.713069 0.050063 -0.191685
C10   C     C_R   0.710014 0.209615 0.954996 -0.191094
H1    H     H_    0.320871 0.593122 0.082719 0.145155
H2    H     H_    0.681160 0.086959 0.925392 0.145351
C11   C     C_R   0.226205 0.722041 0.050834 0.419537
C12   C     C_R   0.774821 0.218644 0.953501 0.420224
C13   C     C_R   0.185843 0.878070 0.008358 -0.124347
C14   C     C_R   0.814257 0.378218 0.991924 -0.124385
C15   C     C_R   0.214839 0.025229 0.972230 -0.013257
C16   C     C_R   0.784299 0.528635 0.024018 -0.004712
C17   C     C_3   0.191590 0.115901 0.877524 -0.277786
C18   C     C_3   0.807203 0.631944 0.115008 -0.283963
C19   C     C_3   0.259153 0.085167 0.868939 0.338669
C20   C     C_3   0.739973 0.603311 0.125164 0.334175
H3    H     H_    0.179499 0.267925 0.882264 0.200847
H4    H     H_    0.818071 0.782835 0.104530 0.197564
H5    H     H_    0.152989 0.032567 0.827003 0.196732
H6    H     H_    0.846552 0.555430 0.168354 0.192513
H7    H     H_    0.284370 0.218770 0.861812 0.107526
H8    H     H_    0.714495 0.739148 0.128223 0.098993
C21   C     C_R   0.929905 0.888563 0.721887 -0.121801
C22   C     C_R   0.070724 0.383090 0.277993 -0.128592
C23   C     C_R   0.576835 0.860870 0.276674 -0.128537
C24   C     C_R   0.424669 0.368151 0.722829 -0.116900
C25   C     C_R   0.949937 0.894404 0.569292 0.557932
C26   C     C_R   0.053735 0.337183 0.430617 0.557927
C27   C     C_R   0.972664 0.886279 0.668606 -0.242467
C28   C     C_R   0.030460 0.336423 0.331705 -0.232484
C29   C     C_R   0.864005 0.911462 0.677930 -0.073150
C30   C     C_R   0.135219 0.427440 0.321817 -0.061724
C31   C     C_R   0.839511 0.940666 0.580111 0.009286
C32   C     C_R   0.160466 0.437080 0.420464 0.007971
C33   C     C_R   0.881869 0.917911 0.523931 -0.133951
C34   C     C_R   0.120425 0.379891 0.476224 -0.144882
C35   C     C_R   0.772611 0.981287 0.537520 -0.097425
C36   C     C_R   0.226426 0.488082 0.463993 -0.097504
C37   C     C_R   0.744570 0.953869 0.439911 -0.097135
C38   C     C_R   0.255720 0.445211 0.560021 -0.089645
C39   C     C_R   0.787364 0.951434 0.383564 0.344162
C40   C     C_R   0.213987 0.419048 0.616397 0.345368
C41   C     C_R   0.854618 0.925811 0.424585 0.359710
C42   C     C_R   0.148108 0.375684 0.575471 0.355681
C43   C     C_R   0.733609 0.062563 0.588268 0.298198
C44   C     C_R   0.263562 0.589152 0.416322 0.292211
C45   C     C_R   0.665816 0.051862 0.554135 0.398663
C46   C     C_R   0.331383 0.590772 0.451011 0.421616
C47   C     C_R   0.635838 0.980855 0.462834 -0.122436
C48   C     C_R   0.363311 0.514777 0.541068 -0.121317
C49   C     C_R   0.675246 0.938030 0.403797 0.012535
C50   C     C_R   0.325105 0.441548 0.596273 0.009938
C51   C     C_R   0.567138 0.960359 0.427907 0.513012
C52   C     C_R   0.432269 0.517307 0.578430 0.496246
C53   C     C_R   0.538855 0.901015 0.334383 -0.271045
C54   C     C_R   0.461401 0.449769 0.670733 -0.268244
C55   C     C_R   0.644110 0.871173 0.312355 -0.158977
C56   C     C_R   0.357434 0.359464 0.684457 -0.153184
H9    H     H_    0.671133 0.823825 0.267186 0.162862
H10   H     H_    0.330775 0.292514 0.725874 0.152732
H11   H     H_    0.486957 0.886581 0.305144 0.113729
H12   H     H_    0.512805 0.467806 0.704514 0.116880
H13   H     H_    0.023966 0.881686 0.705735 0.127144
H14   H     H_    0.980747 0.297904 0.296071 0.148863
H15   H     H_    0.831929 0.906159 0.721266 0.192366
H16   H     H_    0.166071 0.445757 0.277494 0.202148
O11   O     O_R   0.036080 0.231270 0.130120 -0.536374
O12   O     O_R   0.963920 0.731270 0.869880 -0.541701
O13   O     O_R   0.911300 0.558970 0.006750 -0.540416
O14   O     O_R   0.088700 0.058970 0.993250 -0.539866
C57   C     C_R   0.884236 0.389691 0.998922 0.736939
C58   C     C_R   0.115801 0.889500 0.001208 0.737957
O15   O     O_R   0.032450 0.561140 0.138040 -0.527135
O16   O     O_R   0.967550 0.061140 0.861960 -0.525563
O17   O     O_R   0.085870 0.728910 0.002130 -0.513784
O18   O     O_R   0.914130 0.228910 0.997870 -0.511830
C59   C     C_R   0.044990 0.391978 0.175395 0.757083
C60   C     C_R   0.954907 0.893063 0.824598 0.759415
O19   O     O_3   0.017320 0.394650 0.955270 -0.370603
O20   O     O_3   0.982680 0.894650 0.044730 -0.366882
V3    V     V_3+5 0.996780 0.670490 0.008300 1.604031
V4    V     V_3+5 0.003220 0.170490 0.991700 1.611594
O21   O     O_3   0.628895 0.135926 0.604621 -0.531284
C61   C     C_3   0.629538 0.019910 0.682164 -0.097292
H17   H     H_    0.614807 0.872573 0.660303 0.125125
H18   H     H_    0.594123 0.077660 0.715549 0.137118
H19   H     H_    0.677736 0.019240 0.736035 0.187440
O22   O     O_3   0.365930 0.681066 0.398991 -0.515437
C62   C     C_3   0.370206 0.559350 0.326238 -0.120511
H20   H     H_    0.391284 0.419675 0.354142 0.098723
H21   H     H_    0.402679 0.624782 0.289850 0.133333
H22   H     H_    0.322150 0.539134 0.273251 0.187917
O23   O     O_3   0.992847 0.903689 0.515869 -0.501572
C63   C     C_3   0.050734 0.800594 0.554440 -0.084554
H23   H     H_    0.042001 0.662916 0.584733 0.146433
H24   H     H_    0.086476 0.886845 0.607451 0.189563
H25   H     H_    0.072253 0.769559 0.497329 0.162104
O24   O     O_3   0.013101 0.283630 0.482693 -0.497741
C64   C     C_3   0.953821 0.384451 0.454960 -0.103256
H26   H     H_    0.918176 0.311403 0.396052 0.184788
H27   H     H_    0.959723 0.534155 0.435623 0.145870
H28   H     H_    0.933486 0.386704 0.514939 0.164970
Cl1   Cl    Cl    0.762493 0.032586 0.265559 -0.651326
Cl2   Cl    Cl    0.236890 0.499725 0.733944 -0.660488
Cl3   Cl    Cl    0.767378 0.226326 0.679697 -0.623663
Cl4   Cl    Cl    0.227186 0.757847 0.327675 -0.615656
O25   O     O_3   0.529893 0.982758 0.488916 -0.526463
C65   C     C_3   0.470624 0.076451 0.445872 -0.133879
H29   H     H_    0.434010 0.976761 0.403643 0.199223
H30   H     H_    0.476941 0.198923 0.402293 0.084498
H31   H     H_    0.451174 0.130958 0.501652 0.153289
O26   O     O_3   0.468543 0.606644 0.527449 -0.522807
C66   C     C_3   0.530833 0.526977 0.543066 -0.139987
H32   H     H_    0.531333 0.371110 0.551938 0.164694
H33   H     H_    0.565674 0.592221 0.605241 0.140994
H34   H     H_    0.547584 0.557855 0.481218 0.161432
Cl5   Cl    Cl    0.198376 0.530488 0.104037 -0.673096
Cl6   Cl    Cl    0.803338 0.022510 0.904425 -0.669450
O27   O     O_3   0.257117 0.943371 0.801116 -0.512526
C67   C     C_3   0.316780 0.926812 0.781346 -0.076462
H35   H     H_    0.336265 0.781745 0.799728 0.177266
H36   H     H_    0.354718 0.027500 0.819601 0.071719
H37   H     H_    0.308188 0.947224 0.704807 0.150849
O28   O     O_3   0.743593 0.472585 0.198849 -0.512672
C68   C     C_3   0.683225 0.451750 0.215972 -0.072142
H38   H     H_    0.663874 0.308242 0.194347 0.171482
H39   H     H_    0.645941 0.556001 0.179075 0.072762
H40   H     H_    0.690616 0.464762 0.292563 0.150757
Cl7   Cl    Cl    0.901725 0.895625 0.346386 -0.588656
Cl8   Cl    Cl    0.103347 0.314122 0.653369 -0.607919

loop_
_geom_bond_atom_site_label_1
_geom_bond_atom_site_label_2
_ccdc_geom_bond_type
C23   C53   A    
C68   H40   S    
C46   C48   A    
C43   C45   A    
C39   Cl1   S    
C65   H29   S    
C13   C15   A    
C5    C15   A    
O23   C63   S    
O1    C3    A    
C45   O21   S    
C66   H34   S    
O2    C4    A    
C2    O7    A    
C63   H24   S    
C30   H16   S    
C31   C35   A    
O5    C3    A    
C19   H7    S    
C61   H19   S    
C20   H8    S    
C18   H4    S    
C10   H2    S    
C7    C9    A    
C56   H10   S    
C64   H27   S    
C37   C39   A    
C21   C60   S    
O22   C62   S    
C38   C40   A    
C68   H38   S    
O16   C60   A    
O24   C64   S    
C13   C58   S    
C40   C42   A    
C57   O18   A    
C24   C56   A    
C33   C41   A    
C19   O27   S    
C45   C47   A    
C35   C43   A    
C30   C32   A    
C62   H20   S    
C17   C19   S    
C14   C57   S    
C6    C16   A    
C18   H6    S    
C36   C38   A    
O17   V3    S    
C47   C51   A    
C48   C52   A    
O5    V1    S    
C25   C33   A    
O6    V2    S    
C42   Cl8   S    
C62   H21   S    
C5    C19   S    
C46   O22   S    
C21   C29   A    
C63   H23   S    
O19   V3    S    
C32   C34   A    
O13   V3    S    
C25   C27   A    
C23   C55   A    
C26   C28   A    
C3    C8    S    
C39   C41   A    
C22   C59   S    
O21   C61   S    
C52   C54   A    
C64   H28   S    
C51   C53   A    
C38   C50   A    
C34   C42   A    
C65   H31   S    
C29   C31   A    
C44   Cl4   S    
C17   H5    S    
C31   C33   A    
C18   C20   S    
O4    V2    S    
C61   H18   S    
O12   V3    S    
C6    C20   S    
O18   V4    S    
O6    C4    A    
C26   C34   A    
C36   C44   A    
C21   C27   A    
O1    V2    S    
C22   C28   A    
C37   C49   A    
C24   C54   A    
O2    V1    S    
C55   H9    S    
O14   V4    S    
O12   C60   A    
C22   C30   A    
O4    C2    A    
C1    C24   S    
C8    C10   A    
O20   V4    S    
C2    C23   S    
C9    H1    S    
C50   C56   A    
O25   C65   S    
C62   H22   S    
C17   H3    S    
C66   H32   S    
O3    C1    A    
O19   V4    S    
O3    V1    S    
O16   V4    S    
C58   O17   A    
C68   H39   S    
C9    C11   A    
C20   O28   S    
C65   H30   S    
O10   V1    S    
O14   C58   A    
C66   H33   S    
C67   H37   S    
C43   Cl3   S    
C25   O23   S    
C52   O26   S    
C67   H36   S    
C11   C13   A    
C53   H11   S    
O27   C67   S    
C12   C14   A    
C26   O24   S    
O15   V3    S    
C29   H15   S    
C35   C37   A    
O26   C66   S    
O7    V1    S    
C1    O8    A    
C15   C17   S    
O11   V4    S    
O8    V2    S    
C64   H26   S    
C16   C18   S    
O11   C59   A    
C4    C7    S    
C14   C16   A    
C5    C7    A    
C28   H14   S    
C49   C55   A    
C6    C8    A    
C27   H13   S    
C41   Cl7   S    
C61   H17   S    
C11   Cl5   S    
C12   Cl6   S    
C67   H35   S    
O15   C59   A    
C40   Cl2   S    
C48   C50   A    
O20   V3    S    
C10   C12   A    
O9    V2    S    
O13   C57   A    
O28   C68   S    
C51   O25   S    
C54   H12   S    
C47   C49   A    
C63   H25   S    
C32   C36   A    
C44   C46   A    
