data_mof_unit_49328.cif
_audit_creation_date              2012-12-11T14:49:27-0500
_audit_creation_method            fapswitch 2.2
_symmetry_space_group_name_H-M    P1
_symmetry_Int_Tables_number       1
_space_group_crystal_system       triclinic
_cell_length_a                    16.868927
_cell_length_b                    16.789969
_cell_length_c                    19.432241
_cell_angle_alpha                 117.861061
_cell_angle_beta                  62.074144
_cell_angle_gamma                 101.014425
_cell_volume                      4296.46639547

loop_
_atom_site_label
_atom_site_type_symbol
_atom_type_description
_atom_site_fract_x
_atom_site_fract_y
_atom_site_fract_z
_atom_type_partial_charge
C1    C     C_R   0.021429 0.761252 0.031123 -0.123177
C2    C     C_R   0.741738 0.543536 0.253494 0.044024
C3    C     C_R   0.742948 0.458027 0.932354 -0.076716
C4    C     C_R   0.068665 0.731170 0.237934 0.068122
C5    C     C_R   0.261478 0.516385 0.958603 -0.121542
C6    C     C_R   0.980479 0.247651 0.826179 -0.101731
C7    C     C_R   0.158025 0.511918 0.759425 -0.144721
C8    C     C_R   0.023925 0.314455 0.078214 -0.223312
C9    C     C_R   0.944078 0.246847 0.005168 0.508094
C10   C     C_R   0.236495 0.580716 0.835306 -0.143340
C11   C     C_R   0.195482 0.436492 0.034623 -0.128247
C12   C     C_R   0.748297 0.481046 0.172518 -0.098926
C13   C     C_R   0.047633 0.328003 0.750959 -0.122775
C14   C     C_R   0.277336 0.449635 0.973833 0.056754
C15   C     C_R   0.041235 0.241783 0.744561 0.036052
C16   C     C_R   0.233928 0.561355 0.758903 0.085752
C17   C     C_R   0.982016 0.234353 0.049598 -0.079279
C18   C     C_R   0.139202 0.165663 0.586228 -0.248931
C19   C     C_R   0.088409 0.160524 0.665627 0.122295
C20   C     C_R   0.074874 0.076203 0.667209 -0.258260
C21   C     C_R   0.097185 0.997591 0.590102 0.141942
C22   C     C_R   0.135631 0.003984 0.510928 0.026712
C23   C     C_R   0.817754 0.508574 0.910702 -0.231386
C24   C     C_R   0.161097 0.087933 0.508702 0.136838
C25   C     C_R   0.072813 0.913637 0.591536 -0.196999
C26   C     C_R   0.077182 0.838288 0.516561 -0.207498
C27   C     C_R   0.105547 0.846685 0.439927 0.132291
C28   C     C_R   0.139448 0.928351 0.435703 0.032554
C29   C     C_R   0.167984 0.937099 0.358876 0.142264
C30   C     C_R   0.202171 0.018668 0.355152 -0.206722
C31   C     C_R   0.198956 0.093865 0.429856 -0.202973
C32   C     C_R   0.091538 0.777963 0.370883 -0.259220
C33   C     C_R   0.107957 0.790598 0.298612 0.120514
C34   C     C_R   0.017846 0.655372 0.237850 0.029773
C35   C     C_R   0.153124 0.867628 0.290359 -0.262454
C36   C     C_R   0.366993 0.647739 0.704958 -0.261461
C37   C     C_R   0.293061 0.596886 0.695738 0.114012
C38   C     C_R   0.280907 0.573174 0.621784 -0.262247
C39   C     C_R   0.347883 0.588521 0.552573 0.143270
C40   C     C_R   0.426905 0.629939 0.558414 0.028159
C41   C     C_R   0.434582 0.663517 0.636352 0.142682
C42   C     C_R   0.340797 0.555433 0.474807 -0.208278
C43   C     C_R   0.415034 0.554908 0.400749 -0.200648
C44   C     C_R   0.496796 0.587255 0.404043 0.142826
C45   C     C_R   0.749363 0.431178 0.987539 0.490815
C46   C     C_R   0.501552 0.629290 0.483963 0.026055
C47   C     C_R   0.583519 0.662008 0.487822 0.138556
C48   C     C_R   0.587690 0.703871 0.567548 -0.203317
C49   C     C_R   0.513412 0.704585 0.641626 -0.206411
C50   C     C_R   0.575640 0.569331 0.327968 -0.257824
C51   C     C_R   0.659015 0.589357 0.331107 0.120271
C52   C     C_R   0.661711 0.643331 0.411119 -0.251511
C53   C     C_R   0.678458 0.431700 0.894627 0.157798
C54   C     C_R   0.365550 0.406105 0.934853 0.129335
C55   C     C_R   0.462780 0.318602 0.936732 -0.219803
C56   C     C_R   0.082623 0.735832 0.163470 -0.169941
C57   C     C_R   0.376852 0.341214 0.956258 -0.171656
C58   C     C_R   0.441506 0.438423 0.883692 -0.272309
C59   C     C_R   0.525782 0.423528 0.871968 0.196059
C60   C     C_R   0.536404 0.365211 0.900943 0.171466
C61   C     C_R   0.616731 0.363998 0.904396 -0.298464
C62   C     C_R   0.671244 0.482636 0.857231 -0.163075
C63   C     C_R   0.596593 0.475905 0.842841 -0.232014
C64   C     C_R   0.802877 0.190342 0.205210 0.134097
C65   C     C_R   0.918980 0.865277 0.039648 0.129879
C66   C     C_R   0.812769 0.952290 0.046456 -0.225289
C67   C     C_R   0.827599 0.551205 0.248157 -0.141405
C68   C     C_R   0.856580 0.870533 0.012710 -0.168350
C69   C     C_R   0.938123 0.944820 0.099947 -0.276172
C70   C     C_R   0.894215 0.027153 0.134283 0.193072
C71   C     C_R   0.830318 0.030707 0.107892 0.170483
C72   C     C_R   0.784696 0.112587 0.144007 -0.283853
C73   C     C_R   0.866546 0.187161 0.230765 -0.166097
C74   C     C_R   0.912180 0.105976 0.195580 -0.223118
C75   C     C_R   0.941977 0.691912 0.954643 -0.128092
C76   C     C_R   0.960864 0.776815 0.007938 0.051953
H1    H     H_    0.051080 0.810635 0.071920 0.093545
H2    H     H_    0.959677 0.192874 0.844070 0.155096
H3    H     H_    0.127078 0.497461 0.717353 0.086591
H4    H     H_    0.050317 0.333292 0.124633 0.125626
H5    H     H_    0.277543 0.629624 0.863178 0.085848
H6    H     H_    0.183411 0.389921 0.061913 0.095085
H7    H     H_    0.088674 0.350099 0.701313 0.097032
H8    H     H_    0.154604 0.229925 0.583544 0.117280
H9    H     H_    0.040126 0.071146 0.727950 0.122301
H10   H     H_    0.044713 0.907475 0.651622 0.132099
H11   H     H_    0.694640 0.459745 0.153550 0.133436
H12   H     H_    0.052412 0.775165 0.520097 0.128285
H13   H     H_    0.060918 0.718941 0.378970 0.136467
H14   H     H_    0.169669 0.878188 0.234428 0.117083
H15   H     H_    0.225791 0.025922 0.296092 0.128857
H16   H     H_    0.220098 0.157910 0.427183 0.129875
H17   H     H_    0.376362 0.669158 0.762388 0.116213
H18   H     H_    0.223107 0.536504 0.614470 0.116092
H19   H     H_    0.279850 0.524811 0.469905 0.128135
H20   H     H_    0.410201 0.523689 0.339894 0.130664
H21   H     H_    0.571832 0.532178 0.266812 0.115638
H22   H     H_    0.842662 0.529160 0.859305 0.121866
H23   H     H_    0.724957 0.663567 0.414780 0.117684
H24   H     H_    0.649983 0.730505 0.571532 0.130680
H25   H     H_    0.519558 0.731965 0.701597 0.129142
H26   H     H_    0.625906 0.315983 0.922456 0.172532
H27   H     H_    0.719172 0.532933 0.845179 0.115914
H28   H     H_    0.470114 0.272649 0.958326 0.132398
H29   H     H_    0.589631 0.520018 0.819194 0.126575
H30   H     H_    0.319651 0.312053 0.992384 0.117391
H31   H     H_    0.435558 0.484750 0.862136 0.115749
H32   H     H_    0.735192 0.116637 0.124996 0.145677
H33   H     H_    0.880348 0.247807 0.278027 0.120702
H34   H     H_    0.764430 0.953956 0.025108 0.132997
H35   H     H_    0.961028 0.104711 0.216519 0.126970
H36   H     H_    0.840312 0.811439 0.966171 0.114340
H37   H     H_    0.985909 0.943168 0.121744 0.117466
H38   H     H_    0.130021 0.777326 0.134921 0.095869
H39   H     H_    0.847750 0.595779 0.298118 0.100511
H40   H     H_    0.897598 0.677141 0.924648 0.093344
H41   H     H_    0.307977 0.544854 0.915674 0.093777
N1    N     N_R   0.036080 0.671900 0.995420 -0.039718
N2    N     N_R   0.954660 0.334720 0.880230 -0.033537
N3    N     N_R   0.116260 0.502360 0.832930 -0.039894
N4    N     N_R   0.012950 0.371090 0.051890 -0.069472
N5    N     N_R   0.963920 0.328100 0.004580 -0.070600
N6    N     N_R   0.165290 0.545350 0.880240 -0.039154
N7    N     N_R   0.132570 0.490700 0.051900 -0.040630
N8    N     N_R   0.996640 0.382750 0.832930 -0.047200
N9    N     N_R   0.834710 0.454650 0.119760 -0.032790
N10   N     N_R   0.867430 0.509300 0.948100 -0.065265
N11   N     N_R   0.003360 0.617250 0.167070 -0.054908
N12   N     N_R   0.825450 0.461270 0.995400 -0.070212
N13   N     N_R   0.045340 0.665280 0.119770 -0.044245
N14   N     N_R   0.883740 0.497640 0.167070 -0.050651
N15   N     N_R   0.987050 0.628910 0.948110 -0.038303
N16   N     N_R   0.174550 0.538730 0.004600 -0.040487
Ni1   Ni    Ni4+2 0.104370 0.604370 0.000010 0.204006
Ni2   Ni    Ni4+2 0.895630 0.395630 0.999990 0.309344
Ni3   Ni    Ni4+2 0.991920 0.505780 0.891500 0.203212
Ni4   Ni    Ni4+2 0.008080 0.494220 0.108500 0.195167
O1    O     O_3   0.878721 0.194690 0.983104 -0.771788
H42   H     H_    0.875391 0.139889 0.991254 0.309792
N17   N     N_3   0.017548 0.603263 0.278917 -0.226807
H43   H     H_    0.958811 0.620623 0.336731 0.076590
H44   H     H_    0.015084 0.534855 0.239912 0.111533
O2    O     O_3   0.700665 0.366843 0.013475 -0.768923
H45   H     H_    0.636907 0.387084 0.042644 0.286878

loop_
_geom_bond_atom_site_label_1
_geom_bond_atom_site_label_2
_ccdc_geom_bond_type
C66   C68   A    
C45   N12   A    
C1    H1    S    
C73   C74   A    
C3    C23   A    
C19   C20   A    
C43   C44   A    
C2    C12   A    
C15   C19   S    
C69   H37   S    
C26   C27   A    
C62   C63   A    
C65   C76   S    
N7    N16   A    
C18   C24   A    
C23   N10   A    
C36   C37   A    
C37   C38   A    
N17   H44   S    
C18   C19   A    
C49   H25   S    
C38   C39   A    
C11   C14   A    
C45   O2    S    
C8    N4    A    
C6    H2    S    
C12   N9    A    
O2    H45   S    
C58   H31   S    
C68   H36   S    
N4    Ni4   S    
C67   H39   S    
C6    C15   A    
N12   Ni2   S    
C53   C61   A    
C36   H17   S    
C72   H32   S    
C70   C74   A    
C18   H8    S    
C64   C73   A    
C70   C71   A    
C63   H29   S    
N1    Ni1   S    
N3    N6    A    
C16   C37   S    
C13   N8    A    
C57   H30   S    
C59   C60   A    
C22   C28   A    
C21   C22   A    
C4    C56   A    
C36   C41   A    
N13   Ni1   S    
C41   C49   A    
C44   C46   A    
C50   C51   A    
C39   C42   A    
C11   H6    S    
C48   H24   S    
C4    C34   A    
N6    Ni1   S    
C42   H19   S    
N7    Ni4   S    
N10   Ni3   S    
C2    C67   A    
C2    C51   S    
C39   C40   A    
C58   C59   A    
C55   H28   S    
C3    C45   A    
N2    Ni2   S    
C51   C52   A    
C5    H41   S    
C60   C61   A    
N3    Ni3   S    
C40   C46   A    
C75   C76   A    
N10   N12   A    
C66   C71   A    
C29   C30   A    
N14   Ni4   S    
C43   H20   S    
C9    O1    S    
C47   C48   A    
N15   Ni3   S    
C65   C68   A    
C20   H9    S    
C38   H18   S    
C9    N5    A    
C5    C14   A    
C46   C47   A    
N17   H43   S    
N4    N5    A    
C67   N14   A    
N11   Ni4   S    
N2    N8    A    
N8    Ni3   S    
C9    C17   A    
C48   C49   A    
C14   C54   S    
N9    Ni2   S    
C10   N6    A    
C13   C15   A    
C32   H13   S    
N16   Ni1   S    
C22   C24   A    
C42   C43   A    
C6    N2    A    
C74   H35   S    
C75   N15   A    
C7    H3    S    
C62   H27   S    
C54   C58   A    
C44   C50   A    
C21   C25   A    
C4    C33   S    
C28   C29   A    
C50   H21   S    
C52   H23   S    
C12   H11   S    
C27   C32   A    
C1    C76   A    
C7    N3    A    
C7    C16   A    
C30   H15   S    
N11   N13   A    
C34   N11   A    
C73   H33   S    
C47   C52   A    
C5    N16   A    
C29   C35   A    
C13   H7    S    
C10   H5    S    
C59   C63   A    
C8    C17   A    
C32   C33   A    
C55   C57   A    
C61   H26   S    
C25   C26   A    
C24   C31   A    
C71   C72   A    
C10   C16   A    
C3    C53   S    
C30   C31   A    
N9    N14   A    
C65   C69   A    
C34   N17   S    
C25   H10   S    
C33   C35   A    
C1    N1    A    
C64   C72   A    
C69   C70   A    
N5    Ni2   S    
N1    N15   A    
O1    H42   S    
C35   H14   S    
C23   H22   S    
C20   C21   A    
C66   H34   S    
C53   C62   A    
C26   H12   S    
C31   H16   S    
C27   C28   A    
C8    H4    S    
C56   H38   S    
C40   C41   A    
C75   H40   S    
C11   N7    A    
C55   C60   A    
C56   N13   A    
C54   C57   A    
