data_mof_unit_47456.cif
_audit_creation_date              2012-12-10T18:26:31-0500
_audit_creation_method            fapswitch 2.2
_symmetry_space_group_name_H-M    P1
_symmetry_Int_Tables_number       1
_space_group_crystal_system       triclinic
_cell_length_a                    14.978085
_cell_length_b                    14.023032
_cell_length_c                    23.377469
_cell_angle_alpha                 89.86034
_cell_angle_beta                  90.288758
_cell_angle_gamma                 89.890682
_cell_volume                      4910.07470009

loop_
_atom_site_label
_atom_site_type_symbol
_atom_type_description
_atom_site_fract_x
_atom_site_fract_y
_atom_site_fract_z
_atom_type_partial_charge
C1    C     C_R   0.326591 0.500212 0.500515 0.887090
C2    C     C_R   0.551460 0.570458 0.700196 -0.257174
C3    C     C_R   0.440255 0.487747 0.235568 -0.092936
C4    C     C_R   0.555336 0.574414 0.759353 -0.097129
C5    C     C_R   0.521339 0.512299 0.210145 0.260084
C6    C     C_R   0.507094 0.508953 0.791806 0.262179
C7    C     C_R   0.814464 0.583282 0.486928 -0.237173
C8    C     C_R   0.185779 0.421659 0.523456 -0.246250
C9    C     C_R   0.769166 0.500941 0.503318 -0.083390
C10   C     C_R   0.230916 0.501449 0.503020 -0.089728
C11   C     C_R   0.814858 0.421045 0.523911 -0.251671
C12   C     C_R   0.673431 0.500040 0.500624 0.883656
C13   C     C_R   0.185124 0.583823 0.486360 -0.241638
C14   C     C_R   0.907522 0.422212 0.527827 0.093901
C15   C     C_R   0.092506 0.586158 0.487642 0.088100
C16   C     C_R   0.500538 0.500100 0.389643 0.871225
C17   C     C_R   0.498740 0.499790 0.610688 0.882652
C18   C     C_R   0.953592 0.504145 0.508373 0.012847
C19   C     C_R   0.046534 0.504649 0.507738 0.010821
C20   C     C_R   0.906581 0.585212 0.488753 0.104949
C21   C     C_R   0.093624 0.423093 0.526600 0.113782
C22   C     C_R   0.955256 0.343210 0.549789 0.205829
C23   C     C_R   0.597029 0.530063 0.243561 -0.118918
C24   C     C_R   0.044924 0.667790 0.469409 0.208558
C25   C     C_R   0.048277 0.344167 0.548389 -0.298083
C26   C     C_R   0.951920 0.666680 0.470502 -0.297212
C27   C     C_R   0.573894 0.797919 0.482255 -0.034802
C28   C     C_R   0.425769 0.202239 0.517239 -0.047962
C29   C     C_R   0.425840 0.798014 0.517234 -0.027104
C30   C     C_R   0.573903 0.202089 0.482313 -0.039603
C31   C     C_R   0.423485 0.898801 0.517617 -0.038505
C32   C     C_R   0.576417 0.101236 0.481783 -0.054543
C33   C     C_R   0.576069 0.898704 0.481634 -0.038700
C34   C     C_R   0.454576 0.439539 0.765257 -0.129513
C35   C     C_R   0.422965 0.101385 0.517327 -0.048319
C36   C     C_R   0.499829 0.949532 0.499742 -0.017209
C37   C     C_R   0.499802 0.050651 0.499739 0.009371
C38   C     C_R   0.346407 0.949230 0.534699 0.173897
C39   C     C_R   0.653191 0.049970 0.463985 0.152521
C40   C     C_R   0.652483 0.949051 0.463450 0.178882
C41   C     C_R   0.345470 0.050193 0.533753 0.152736
C42   C     C_R   0.558058 0.441640 0.880404 0.525655
C43   C     C_R   0.487733 0.591534 0.121655 0.524980
C44   C     C_R   0.472795 0.585482 0.880713 0.526105
C45   C     C_R   0.592106 0.524289 0.302967 0.183451
C46   C     C_R   0.569378 0.445344 0.121297 0.526052
C47   C     C_R   0.475955 0.589907 0.940886 -0.070336
C48   C     C_R   0.572482 0.445191 0.061131 -0.070452
C49   C     C_R   0.522378 0.516755 0.970858 -0.108280
C50   C     C_R   0.527447 0.519124 0.031101 -0.108444
C51   C     C_R   0.562585 0.440464 0.940559 -0.069930
C52   C     C_R   0.487440 0.595380 0.061458 -0.070969
C53   C     C_R   0.435722 0.665847 0.971431 0.156444
C54   C     C_R   0.616228 0.371627 0.030651 0.161303
C55   C     C_R   0.445824 0.671219 0.031259 0.160539
C56   C     C_R   0.450623 0.434048 0.705829 0.182270
C57   C     C_R   0.607560 0.366664 0.970744 0.158322
C58   C     C_3   0.291141 0.714792 0.935560 -0.700055
C59   C     C_3   0.761020 0.331264 0.069717 -0.710182
C60   C     C_3   0.268793 0.875934 0.613421 -0.774225
C61   C     C_3   0.792329 0.126340 0.488989 -0.802326
C62   C     C_3   0.729302 0.882717 0.382444 -0.803825
C63   C     C_3   0.208032 0.124281 0.502465 -0.824837
C64   C     C_3   0.480634 0.826632 0.069494 -0.706069
C65   C     C_3   0.581503 0.208886 0.932946 -0.706163
C66   C     C_3   0.698176 0.636672 0.341674 -0.784197
C67   C     C_R   0.509696 0.500741 0.328304 -0.085318
C68   C     C_3   0.307731 0.396960 0.663125 -0.778564
C69   C     C_3   0.881687 0.274401 0.631444 -0.784260
C70   C     C_3   0.110723 0.750224 0.389661 -0.789770
C71   C     C_R   0.500148 0.500229 0.672925 -0.096784
C72   C     C_R   0.434428 0.481957 0.294675 -0.257635
H1    H     H_    0.085158 0.283524 0.564975 0.145851
H2    H     H_    0.796485 0.338411 0.028315 0.205467
H3    H     H_    0.795705 0.276652 0.096201 0.240193
H4    H     H_    0.763676 0.400386 0.092801 0.254438
H5    H     H_    0.631130 0.757032 0.468573 0.160774
H6    H     H_    0.369027 0.243800 0.530733 0.139603
H7    H     H_    0.368461 0.757113 0.530530 0.171259
H8    H     H_    0.630600 0.243581 0.468779 0.145946
H9    H     H_    0.209510 0.926090 0.538976 0.254291
H10   H     H_    0.210002 0.830786 0.623285 0.242368
H11   H     H_    0.264584 0.942605 0.638889 0.249068
H12   H     H_    0.915106 0.728911 0.455892 0.150256
H13   H     H_    0.330064 0.835971 0.625808 0.247577
H14   H     H_    0.718497 0.151381 0.414700 0.225844
H15   H     H_    0.760872 0.179689 0.517574 0.249959
H16   H     H_    0.852744 0.158378 0.469512 0.248453
H17   H     H_    0.813200 0.063504 0.514821 0.240479
H18   H     H_    0.788670 0.922963 0.458759 0.246446
H19   H     H_    0.785313 0.834339 0.371310 0.237014
H20   H     H_    0.738482 0.951613 0.359659 0.260100
H21   H     H_    0.665798 0.849531 0.368057 0.248565
H22   H     H_    0.274211 0.152273 0.579330 0.214937
H23   H     H_    0.381978 0.473382 0.209398 0.143325
H24   H     H_    0.142148 0.146988 0.519019 0.236572
H25   H     H_    0.197184 0.062317 0.473725 0.248760
H26   H     H_    0.237583 0.183845 0.477576 0.245294
H27   H     H_    0.353259 0.779568 0.047757 0.223025
H28   H     H_    0.501310 0.857225 0.027748 0.202868
H29   H     H_    0.540223 0.797048 0.091855 0.256079
H30   H     H_    0.452322 0.884483 0.096238 0.241289
H31   H     H_    0.706039 0.264785 0.954170 0.222180
H32   H     H_    0.563160 0.176984 0.974785 0.203016
H33   H     H_    0.612865 0.153027 0.906082 0.240162
H34   H     H_    0.596126 0.627950 0.780109 0.147315
H35   H     H_    0.519948 0.234247 0.910922 0.255959
H36   H     H_    0.659770 0.547318 0.223162 0.143718
H37   H     H_    0.416973 0.389598 0.791054 0.144481
H38   H     H_    0.673022 0.501842 0.374521 0.219765
H39   H     H_    0.763522 0.640112 0.364160 0.237641
H40   H     H_    0.647965 0.676853 0.366820 0.249404
H41   H     H_    0.705899 0.670256 0.298899 0.246177
H42   H     H_    0.425509 0.320032 0.651207 0.250019
H43   H     H_    0.267389 0.336002 0.647343 0.227970
H44   H     H_    0.313880 0.450297 0.628178 0.232314
H45   H     H_    0.396360 0.806264 0.954888 0.221098
H46   H     H_    0.272431 0.429642 0.699910 0.254160
H47   H     H_    0.371173 0.464117 0.314259 0.149238
H48   H     H_    0.589693 0.621564 0.675616 0.168984
H49   H     H_    0.778060 0.645343 0.471635 0.158734
H50   H     H_    0.222408 0.358898 0.537437 0.152630
H51   H     H_    0.777797 0.358557 0.537092 0.184263
H52   H     H_    0.222080 0.645403 0.471583 0.192700
H53   H     H_    0.944489 0.199107 0.567281 0.227899
H54   H     H_    0.940510 0.282192 0.660227 0.244761
H55   H     H_    0.843020 0.210786 0.644918 0.243753
H56   H     H_    0.257914 0.712541 0.977895 0.202079
H57   H     H_    0.838041 0.338113 0.635576 0.252735
H58   H     H_    0.059003 0.813704 0.461954 0.224792
H59   H     H_    0.048220 0.750768 0.363811 0.241336
H60   H     H_    0.150763 0.686137 0.378642 0.250676
H61   H     H_    0.150370 0.814533 0.378796 0.244012
H62   H     H_    0.282511 0.644744 0.914138 0.258626
H63   H     H_    0.258316 0.770310 0.908789 0.238878
H64   H     H_    0.663261 0.233325 0.046306 0.223196
N1    N     N_R   0.512463 0.511981 0.852646 -0.358825
N2    N     N_2   0.265721 0.098419 0.549882 -0.313215
N3    N     N_2   0.414139 0.753175 0.061066 -0.252885
N4    N     N_2   0.643587 0.286799 0.940938 -0.252535
N5    N     N_2   0.670959 0.538314 0.336203 -0.302378
N6    N     N_2   0.394930 0.363300 0.680773 -0.312889
N7    N     N_2   0.910541 0.262468 0.572935 -0.327944
N8    N     N_2   0.089931 0.751072 0.450014 -0.316509
N9    N     N_R   0.527252 0.517162 0.149433 -0.360014
N10   N     N_R   0.500000 0.750030 0.500000 -0.118632
N11   N     N_R   0.500000 0.249970 0.500000 -0.105574
N12   N     N_2   0.384999 0.737095 0.942043 -0.253937
N13   N     N_2   0.669359 0.302628 0.060257 -0.252258
N14   N     N_2   0.269424 0.898040 0.552970 -0.315244
N15   N     N_2   0.730802 0.098254 0.444270 -0.310548
N16   N     N_2   0.728472 0.897789 0.443598 -0.323568
O1    O     O_R   0.367850 0.580280 0.500010 -0.633541
O2    O     O_2   0.447101 0.659787 0.152777 -0.530739
O3    O     O_2   0.431455 0.654082 0.849805 -0.534292
O4    O     O_2   0.605073 0.372947 0.151986 -0.529767
O5    O     O_R   0.632150 0.419720 0.499990 -0.636730
O6    O     O_R   0.632150 0.580280 0.499990 -0.631954
O7    O     O_R   0.367850 0.419720 0.500010 -0.631298
O8    O     O_R   0.499970 0.580290 0.416160 -0.606550
O9    O     O_R   0.500030 0.419710 0.583840 -0.623508
O10   O     O_R   0.500030 0.580290 0.583840 -0.611337
O11   O     O_R   0.499970 0.419710 0.416160 -0.609738
O12   O     O_2   0.600304 0.374665 0.849166 -0.532623
Zn1   Zn    Zn3+2 0.500000 0.607200 0.500000 0.947938
Zn2   Zn    Zn3+2 0.500000 0.392800 0.500000 0.942305

loop_
_geom_bond_atom_site_label_1
_geom_bond_atom_site_label_2
_ccdc_geom_bond_type
C34   C56   A    
C44   N1    A    
C23   C45   A    
C66   H41   S    
C16   O8    A    
C14   C18   A    
H64   N13   S    
C59   N13   S    
C30   N11   A    
C47   C49   A    
C66   N5    S    
C27   C33   A    
C58   H56   S    
C62   N16   S    
H45   N12   S    
H42   N6    S    
C36   C37   A    
C35   C37   A    
C24   C26   A    
C18   C19   A    
C63   H26   S    
C60   H11   S    
C42   O12   S    
C43   C52   A    
C46   N9    A    
H9    N14   S    
O7    Zn2   S    
C39   N15   S    
C33   C36   A    
C55   N3    S    
C40   N16   S    
C67   C72   A    
C64   H30   S    
C32   C39   A    
C49   C50   A    
C61   H15   S    
C68   H46   S    
C15   C19   A    
C65   N4    S    
C60   H10   S    
C28   C35   A    
C49   C51   A    
C22   C25   A    
C62   H20   S    
C22   N7    S    
C45   C67   A    
C70   H61   S    
C50   C52   A    
C68   N6    S    
C51   C57   A    
C66   H39   S    
C43   O2    S    
H58   N8    S    
C25   H1    S    
O9    Zn2   S    
C44   C47   A    
C42   C51   A    
C47   C53   A    
C56   N6    S    
C48   C50   A    
C42   N1    A    
C45   N5    S    
H27   N3    S    
C7    H49   S    
C65   H33   S    
C61   H17   S    
C54   N13   S    
C53   C55   A    
C16   O11   A    
C64   H29   S    
C46   C48   A    
C33   C40   A    
C5    N9    S    
C1    O7    A    
O11   Zn2   S    
C38   C41   A    
H18   N16   S    
C29   N10   A    
C13   H52   S    
C2    H48   S    
C3    C5    A    
C32   C37   A    
C4    H34   S    
C63   H24   S    
C53   N12   S    
C58   H62   S    
C6    C34   A    
C57   N4    S    
C48   C54   A    
H38   N5    S    
C2    C4    A    
C43   N9    A    
N11   Zn2   S    
O10   Zn1   S    
C9    C11   A    
C5    C23   A    
C64   H28   S    
C58   N12   S    
C29   C31   A    
C56   C71   A    
C62   H19   S    
C70   H60   S    
C8    C21   A    
C29   H7    S    
C16   C67   S    
C60   N14   S    
O8    Zn1   S    
C1    O1    A    
C61   N15   S    
C59   H2    S    
C41   N2    S    
C17   O9    A    
C68   H44   S    
C4    C6    A    
C15   C24   A    
N10   Zn1   S    
C69   H54   S    
C17   C71   S    
C13   C15   A    
C12   O5    A    
C63   N2    S    
C2    C71   A    
C59   H3    S    
C39   C40   A    
C28   H6    S    
C7    C9    A    
C21   C25   A    
C28   N11   A    
C26   H12   S    
O1    Zn1   S    
C44   O3    S    
C8    C10   A    
C11   H51   S    
C1    C10   S    
C27   H5    S    
C10   C13   A    
O5    Zn2   S    
C60   H13   S    
C52   C55   A    
C64   N3    S    
C58   H63   S    
C69   N7    S    
C46   O4    S    
C70   N8    S    
C31   C38   A    
C66   H40   S    
C14   C22   A    
C6    N1    S    
C3    C72   A    
C30   H8    S    
C63   H25   S    
H14   N15   S    
C30   C32   A    
C8    H50   S    
C20   C26   A    
C24   N8    S    
C27   N10   A    
H22   N2    S    
C23   H36   S    
C72   H47   S    
C70   H59   S    
C11   C14   A    
C65   H35   S    
C18   C20   A    
C35   C41   A    
C9    C12   S    
C17   O10   A    
C68   H43   S    
H53   N7    S    
C69   H55   S    
C69   H57   S    
C7    C20   A    
C62   H21   S    
C34   H37   S    
C31   C36   A    
C61   H16   S    
C3    H23   S    
C65   H32   S    
C12   O6    A    
H31   N4    S    
C59   H4    S    
C38   N14   S    
O6    Zn1   S    
C19   C21   A    
C54   C57   A    
