data_mof_unit_7360.cif
_audit_creation_date              2013-03-05T16:30:28-0500
_audit_creation_method            fapswitch 2.2
_symmetry_space_group_name_H-M    P1
_symmetry_Int_Tables_number       1
_space_group_crystal_system       triclinic
_cell_length_a                    8.574005
_cell_length_b                    14.909885
_cell_length_c                    14.23597
_cell_angle_alpha                 88.917064
_cell_angle_beta                  98.085922
_cell_angle_gamma                 91.169998
_cell_volume                      1801.18509112

loop_
_atom_site_label
_atom_site_type_symbol
_atom_site_description
_atom_site_fract_x
_atom_site_fract_y
_atom_site_fract_z
_atom_type_partial_charge
O1    O     O_R   0.500010 0.369070 0.579480 -0.572827
O2    O     O_R   0.499990 0.630930 0.420520 -0.534310
O3    O     O_R   0.500010 0.369060 0.420520 -0.605358
O4    O     O_R   0.499990 0.630940 0.579480 -0.558739
C1    C     C_R   0.500107 0.328127 0.500808 1.073406
C2    C     C_R   0.490181 0.672733 0.498296 1.006277
O5    O     O_R   0.271750 0.500000 0.560890 -0.603179
O6    O     O_R   0.728250 0.500000 0.439110 -0.616943
O7    O     O_R   0.271750 0.499990 0.401930 -0.563469
O8    O     O_R   0.728250 0.500010 0.598070 -0.596002
C3    C     C_R   0.201372 0.498272 0.475512 0.978710
C4    C     C_R   0.798665 0.500394 0.524653 0.985756
Zn1   Zn    Zn3+2 0.500000 0.500010 0.606140 1.116660
Zn2   Zn    Zn3+2 0.500000 0.499990 0.393860 1.120571
C5    C     C_2   0.036650 0.492705 0.462933 -0.221307
C6    C     C_2   0.963577 0.502872 0.538008 -0.253871
H1    H     H_    0.975848 0.478996 0.392433 0.225924
H2    H     H_    0.024353 0.514958 0.609125 0.210901
C7    C     C_R   0.309450 0.103692 0.502311 0.232141
C8    C     C_R   0.434299 0.906801 0.397307 0.224457
C9    C     C_R   0.337496 0.195379 0.513169 0.581667
C10   C     C_R   0.456625 0.814658 0.404389 0.583999
C11   C     C_R   0.484536 0.232641 0.500824 -0.418008
C12   C     C_R   0.459110 0.769101 0.492599 -0.450815
C13   C     C_R   0.607200 0.179910 0.477961 0.107213
C14   C     C_R   0.426891 0.816474 0.572891 0.139154
C15   C     C_R   0.580391 0.088137 0.468770 0.641872
C16   C     C_R   0.411170 0.908890 0.566163 0.628009
C17   C     C_R   0.432988 0.050450 0.480662 -0.178061
C18   C     C_R   0.418080 0.953665 0.479821 -0.166675
C19   C     C_R   0.372114 0.459722 0.095937 -0.294388
C20   C     C_R   0.573260 0.568815 0.899733 -0.286914
H3    H     H_    0.270862 0.429366 0.053502 0.196721
H4    H     H_    0.631420 0.624429 0.938905 0.208394
C21   C     C_R   0.377478 0.459892 0.195515 0.750223
C22   C     C_R   0.576280 0.566693 0.801162 0.769693
N1    N     N_R   0.500000 0.499980 0.252470 -0.207748
N2    N     N_R   0.500000 0.500020 0.747530 -0.213187
C23   C     C_R   0.621866 0.538982 0.211550 0.360640
C24   C     C_R   0.422819 0.432704 0.790579 0.316422
C25   C     C_R   0.621223 0.537496 0.112659 -0.255418
C26   C     C_R   0.420884 0.431629 0.889354 -0.273040
H5    H     H_    0.720658 0.566826 0.083345 0.207054
H6    H     H_    0.362188 0.376254 0.921045 0.204658
C27   C     C_R   0.495196 0.499312 0.052506 0.046569
C28   C     C_R   0.495204 0.500383 0.946080 0.044353
N3    N     N_R   0.156631 0.065659 0.512149 0.296239
O9    O     O_R   0.096480 0.000998 0.457610 -0.273010
O10   O     O_R   0.073209 0.098513 0.572523 -0.173450
N4    N     N_R   0.431736 0.952724 0.307090 0.276548
O11   O     O_R   0.337104 0.019223 0.284190 -0.307320
O12   O     O_R   0.520252 0.926608 0.246028 -0.196769
F1    F     F_    0.219030 0.249536 0.529922 -0.546481
F2    F     F_    0.472796 0.769918 0.324162 -0.546175
N5    N     N_R   0.758443 0.218494 0.465407 0.268354
O13   O     O_R   0.821919 0.281879 0.520584 -0.338853
O14   O     O_R   0.837968 0.186634 0.402505 -0.213379
N6    N     N_R   0.405361 0.772190 0.660625 0.291439
O15   O     O_R   0.285956 0.717327 0.663279 -0.346130
O16   O     O_R   0.483836 0.799982 0.739994 -0.212519
F3    F     F_    0.699923 0.034466 0.452624 -0.549037
F4    F     F_    0.391675 0.955792 0.644578 -0.556106
F5    F     F_    0.258779 0.419332 0.234699 -0.601366
F6    F     F_    0.657468 0.631440 0.759564 -0.590588
N7    N     N_R   0.752825 0.582443 0.267411 0.220593
O17   O     O_R   0.728585 0.649636 0.319861 -0.271729
O18   O     O_R   0.893740 0.572774 0.245383 -0.374536
N8    N     N_R   0.344194 0.361548 0.736178 0.250475
O19   O     O_R   0.203053 0.373902 0.691685 -0.300828
O20   O     O_R   0.393501 0.279981 0.751921 -0.296560

loop_
_geom_bond_atom_site_label_1
_geom_bond_atom_site_label_2
_geom_bond_distance
_ccdc_geom_bond_type
N1    C23   1.379454 A    
N4    O12   1.301432 A    
O7    Zn2   1.976452 S    
C19   H3    1.081755 S    
C16   F4    1.360106 S    
C17   C18   1.446226 S    
C13   C15   1.388426 A    
C23   N7    1.432346 S    
C25   H5    1.081759 S    
C14   C16   1.387426 A    
N3    O9    1.301396 A    
C1    C11   1.427218 S    
O6    C4    1.280949 A    
C2    C12   1.465336 S    
N5    O13   1.301210 A    
C16   C18   1.395666 A    
N4    O11   1.301495 A    
C24   N8    1.426460 S    
N3    O10   1.301312 A    
N2    C24   1.372789 A    
C8    C18   1.402984 A    
C27   C28   1.514866 S    
Zn2   N1    2.012828 S    
C9    F1    1.359962 S    
C14   N6    1.434804 S    
O7    C3    1.279936 A    
Zn1   N2    2.012828 S    
O2    C2    1.294570 A    
O3    Zn2   1.981647 S    
C26   H6    1.082268 S    
C8    N4    1.441612 S    
O1    C1    1.285739 A    
O8    C4    1.278303 A    
C3    C5    1.399379 S    
C24   C26   1.408373 A    
C21   N1    1.367953 A    
C12   C14   1.417412 A    
O5    C3    1.279173 A    
C10   C12   1.414060 A    
C10   F2    1.358582 S    
N5    O14   1.301339 A    
C9    C11   1.399635 A    
C26   C28   1.403179 A    
C4    C6    1.399743 S    
O2    Zn2   1.995881 S    
C19   C21   1.411900 A    
O4    C2    1.295625 A    
O1    Zn1   1.995881 S    
N6    O16   1.301363 A    
C5    C6    1.325194 D    
C7    C17   1.408021 A    
C20   C22   1.408091 A    
O5    Zn1   1.972366 S    
C11   C13   1.403546 A    
C22   N2    1.364027 A    
C15   C17   1.403311 A    
C23   C25   1.407638 A    
C6    H2    1.087971 S    
N7    O17   1.298012 A    
C19   C27   1.410215 A    
C7    N3    1.440925 S    
O4    Zn1   1.981647 S    
C5    H1    1.084915 S    
N8    O20   1.300792 A    
C25   C27   1.399299 A    
O6    Zn2   1.972364 S    
N7    O18   1.301654 A    
C15   F3    1.360243 S    
C7    C9    1.390908 A    
N6    O15   1.301610 A    
C22   F6    1.354296 S    
C20   C28   1.412504 A    
C21   F5    1.354425 S    
C13   N5    1.440597 S    
C8    C10   1.390797 A    
N8    O19   1.299471 A    
O3    C1    1.285402 A    
O8    Zn1   1.976451 S    
C20   H4    1.081467 S    
