data_mof_unit_42948.cif
_audit_creation_date              2012-10-26T17:13:04-0400
_audit_creation_method            fapswitch 2.2
_symmetry_space_group_name_H-M    P1
_symmetry_Int_Tables_number       1
_space_group_crystal_system       triclinic
_cell_length_a                    16.972288
_cell_length_b                    16.919806
_cell_length_c                    16.921781
_cell_angle_alpha                 67.949479
_cell_angle_beta                  68.213612
_cell_angle_gamma                 68.078166
_cell_volume                      4024.68991928

loop_
_atom_site_label
_atom_site_type_symbol
_atom_type_description
_atom_site_fract_x
_atom_site_fract_y
_atom_site_fract_z
_atom_type_partial_charge
C1    C     C_R   0.311987 0.989804 0.442275 -0.041699
C2    C     C_R   0.317117 0.449369 0.973872 -0.047032
C3    C     C_R   0.534196 0.408871 0.010757 -0.017495
C4    C     C_R   0.010289 0.456893 0.586408 -0.016635
C5    C     C_R   0.998106 0.538283 0.412656 -0.019227
C6    C     C_R   0.005275 0.686591 0.562220 -0.050146
C7    C     C_R   0.963695 0.319930 0.450997 -0.045725
C8    C     C_R   0.453613 0.971503 0.461249 0.042428
C9    C     C_R   0.548474 0.994073 0.554304 0.043456
C10   C     C_R   0.991458 0.450727 0.453698 0.042520
C11   C     C_R   0.008181 0.546778 0.548622 0.043314
C12   C     C_R   0.446787 0.450055 0.004875 0.043127
C13   C     C_R   0.544211 0.544629 0.020040 0.043700
C14   C     C_R   0.020773 0.829521 0.567368 0.553406
C15   C     C_R   0.681536 0.021968 0.553944 -0.040859
C16   C     C_R   0.971462 0.171755 0.435665 0.562390
C17   C     C_R   0.829479 0.567075 0.021419 0.560604
C18   C     C_R   0.171417 0.435213 0.973567 0.545689
C19   C     C_R   0.565168 0.026455 0.828339 0.542266
C20   C     C_R   0.432898 0.978569 0.170553 0.536930
C21   C     C_R   0.432784 0.170769 0.978757 0.572068
C22   C     C_R   0.564617 0.828176 0.028308 0.526191
C23   C     C_R   0.978872 0.432686 0.170609 0.558560
C24   C     C_R   0.027807 0.564588 0.828312 0.535375
C25   C     C_R   0.168014 0.986555 0.430727 0.569272
C26   C     C_R   0.993050 0.437321 0.314439 -0.049606
C27   C     C_R   0.828325 0.025645 0.565264 0.532137
C28   C     C_R   0.403900 0.970889 0.410058 0.022151
C29   C     C_R   0.595390 0.011389 0.597876 0.021324
C30   C     C_R   0.981664 0.402861 0.406419 0.020123
C31   C     C_R   0.017507 0.594302 0.596546 0.021006
C32   C     C_R   0.399475 0.403976 0.992441 0.018944
C33   C     C_R   0.592898 0.593490 0.025997 0.024287
C34   C     C_R   0.261101 0.992266 0.390675 -0.024108
C35   C     C_R   0.729496 0.036644 0.599623 -0.022845
C36   C     C_R   0.973280 0.394706 0.267744 -0.022926
C37   C     C_R   0.036007 0.549530 0.679628 -0.044200
C38   C     C_R   0.041559 0.598478 0.729281 -0.020567
C39   C     C_R   0.393817 0.267538 0.976370 -0.007363
C40   C     C_R   0.598951 0.728638 0.043726 -0.028464
C41   C     C_R   0.599859 0.037998 0.729391 -0.022708
C42   C     C_R   0.393067 0.975910 0.266757 -0.039269
C43   C     C_R   0.732496 0.604292 0.028043 -0.023220
C44   C     C_R   0.269676 0.401695 0.962444 -0.016567
C45   C     C_R   0.025515 0.732710 0.605307 -0.030578
C46   C     C_R   0.956792 0.270920 0.402120 -0.000930
C47   C     C_R   0.462293 0.030295 0.715465 -0.050073
C48   C     C_R   0.434669 0.312482 0.000436 -0.055496
C49   C     C_R   0.538669 0.933789 0.298871 -0.064270
C50   C     C_R   0.977818 0.727760 0.482995 -0.063172
C51   C     C_R   0.951704 0.289845 0.543583 -0.059638
C52   C     C_R   0.724672 0.479288 0.986401 -0.052543
C53   C     C_R   0.286743 0.541650 0.964888 -0.060592
C54   C     C_R   0.273322 0.012315 0.522770 -0.047992
C55   C     C_R   0.712529 0.025962 0.462834 -0.054590
C56   C     C_R   0.513205 0.271043 0.027282 -0.058035
C57   C     C_R   0.456648 0.705833 0.060618 -0.042087
C58   C     C_R   0.019429 0.516449 0.274038 -0.055308
C59   C     C_R   0.549318 0.677438 0.042525 -0.042965
C60   C     C_R   0.051433 0.456484 0.708586 -0.045783
C61   C     C_R   0.299539 0.003914 0.299245 0.164971
C62   C     C_R   0.682742 0.056225 0.682156 0.197220
C63   C     C_R   0.944958 0.316442 0.316501 0.213402
C64   C     C_R   0.053634 0.683765 0.683935 0.194456
C65   C     C_R   0.316058 0.317615 0.947654 0.213981
C66   C     C_R   0.684705 0.683893 0.054433 0.195771
C67   C     C_R   0.668391 0.006104 0.420406 -0.030498
C68   C     C_R   0.321642 0.994599 0.581557 -0.037452
C69   C     C_R   0.032375 0.411198 0.666508 -0.034000
C70   C     C_R   0.553264 0.023770 0.682800 -0.048666
C71   C     C_R   0.004555 0.574695 0.322489 -0.034640
C72   C     C_R   0.410089 0.662336 0.045520 -0.017825
C73   C     C_R   0.570662 0.319256 0.014648 -0.030544
C74   C     C_R   0.585239 0.954026 0.339150 -0.042996
C75   C     C_R   0.415840 0.006638 0.678591 -0.039325
C76   C     C_R   0.324820 0.583381 0.993372 -0.042605
C77   C     C_R   0.675778 0.421789 0.999944 -0.031417
C78   C     C_R   0.978414 0.327978 0.586782 -0.043230
C79   C     C_R   0.989620 0.679590 0.425438 -0.038909
C80   C     C_R   0.700218 0.012314 0.329349 0.266949
C81   C     C_R   0.445704 0.956906 0.325078 -0.048438
C82   C     C_R   0.279463 0.992764 0.671763 0.253899
C83   C     C_R   0.035252 0.320799 0.702430 0.251440
C84   C     C_R   0.996028 0.667002 0.282490 0.262314
C85   C     C_R   0.320030 0.698056 0.050146 0.259306
C86   C     C_R   0.662770 0.280064 0.003433 0.263654
C87   C     C_R   0.669144 0.969520 0.294328 0.236572
C88   C     C_R   0.325793 0.003117 0.721264 0.256742
C89   C     C_R   0.283235 0.668883 0.007081 0.237575
C90   C     C_R   0.715992 0.330973 0.999261 0.253693
C91   C     C_R   0.992018 0.285079 0.672247 0.239206
C92   C     C_R   0.685022 0.559545 0.011811 -0.041927
C93   C     C_R   0.990423 0.720513 0.334076 0.251815
C94   C     C_R   0.542517 0.969415 0.423108 -0.017007
C95   C     C_R   0.459933 0.990410 0.595190 -0.015128
C96   C     C_R   0.994397 0.411333 0.541878 -0.016341
C97   C     C_R   0.998657 0.588444 0.462004 -0.015957
C98   C     C_R   0.407825 0.537742 0.009224 -0.016030
C99   C     C_R   0.584867 0.458072 0.010713 -0.014063
C100  C     C_R   0.588082 0.986003 0.467411 -0.016353
C101  C     C_R   0.412395 0.982631 0.547313 -0.017196
C102  C     C_R   0.454358 0.582020 0.024090 -0.015451
Cu1   Cu    Cu3+1 0.995180 0.995180 0.424630 1.213455
Cu2   Cu    Cu3+1 0.004820 0.004820 0.575370 1.254411
Cu3   Cu    Cu3+1 0.995180 0.424630 0.995180 1.259787
Cu4   Cu    Cu3+1 0.004820 0.575370 0.004820 1.248805
Cu5   Cu    Cu3+1 0.424630 0.995180 0.995180 1.241086
Cu6   Cu    Cu3+1 0.575370 0.004820 0.004820 1.260717
H1    H     H_    0.424432 0.067658 0.761167 0.200623
H2    H     H_    0.419379 0.761779 0.086648 0.217273
H3    H     H_    0.055326 0.532508 0.205917 0.197165
H4    H     H_    0.079284 0.417839 0.763303 0.235971
H5    H     H_    0.305307 0.178325 0.174016 0.311677
H6    H     H_    0.632947 0.254846 0.739496 0.390492
H7    H     H_    0.823293 0.174367 0.364507 0.376776
H8    H     H_    0.250028 0.748452 0.629670 0.385389
H9    H     H_    0.386983 0.184689 0.813173 0.371421
H10   H     H_    0.754901 0.631951 0.248356 0.387774
H11   H     H_    0.160323 0.014768 0.942487 0.374798
H12   H     H_    0.573959 0.904770 0.245180 0.233541
H13   H     H_    0.831814 0.989452 0.091932 0.379351
H14   H     H_    0.022009 0.935105 0.165694 0.384550
H15   H     H_    0.994375 0.093616 0.845153 0.380718
H16   H     H_    0.924406 0.156829 0.029553 0.370703
H17   H     H_    0.097703 0.840910 0.007759 0.389089
H18   H     H_    0.075079 0.924813 0.829455 0.364573
H19   H     H_    0.874187 0.123478 0.200418 0.403192
H20   H     H_    0.825377 0.083152 0.927766 0.365335
H21   H     H_    0.251774 0.755972 0.257974 0.392330
H22   H     H_    0.937079 0.827732 0.075331 0.361711
H23   H     H_    0.942487 0.796398 0.466801 0.194708
H24   H     H_    0.099748 0.185164 0.902121 0.391262
H25   H     H_    0.919433 0.238762 0.582072 0.234915
H26   H     H_    0.792504 0.462470 0.950125 0.189049
H27   H     H_    0.236595 0.581748 0.932030 0.234957
H28   H     H_    0.206483 0.052323 0.537466 0.192901
H29   H     H_    0.768298 0.049531 0.420467 0.204502
H30   H     H_    0.529501 0.202212 0.061392 0.195505
O1    O     O_R   0.124540 0.978640 0.385460 -0.427370
O2    O     O_R   0.124540 0.385460 0.978640 -0.442037
O3    O     O_R   0.021360 0.875460 0.614540 -0.429553
O4    O     O_R   0.978640 0.124540 0.385460 -0.448414
O5    O     O_R   0.013780 0.867370 0.487190 -0.506477
O6    O     O_R   0.986220 0.132630 0.512810 -0.522683
O7    O     O_R   0.867370 0.487190 0.013780 -0.499357
O8    O     O_R   0.132630 0.512810 0.986220 -0.529452
O9    O     O_R   0.487190 0.013780 0.867370 -0.538713
O10   O     O_R   0.512810 0.986220 0.132630 -0.513300
O11   O     O_R   0.512810 0.132630 0.986220 -0.490057
O12   O     O_R   0.875460 0.021360 0.614540 -0.442546
O13   O     O_R   0.487190 0.867370 0.013780 -0.533887
O14   O     O_R   0.986220 0.512810 0.132630 -0.492580
O15   O     O_R   0.013780 0.487190 0.867370 -0.538925
O16   O     O_R   0.132630 0.986220 0.512810 -0.489055
O17   O     O_R   0.867370 0.013780 0.487190 -0.566636
O18   O     O_2   0.204399 0.031221 0.189412 -0.173234
O19   O     O_2   0.151643 0.137841 0.275609 -0.295357
O20   O     O_3   0.288840 0.148485 0.144471 -0.512644
O21   O     O_2   0.768639 0.076354 0.776040 -0.192611
O22   O     O_2   0.763819 0.184491 0.631460 -0.277103
O23   O     O_R   0.978640 0.385460 0.124540 -0.424898
O24   O     O_3   0.620534 0.196576 0.759912 -0.471630
O25   O     O_2   0.817828 0.368407 0.233295 -0.188141
O26   O     O_2   0.930832 0.228196 0.222356 -0.250701
O27   O     O_3   0.808198 0.234193 0.371377 -0.478205
O28   O     O_2   0.075955 0.778702 0.767130 -0.192918
O29   O     O_2   0.184456 0.635221 0.761204 -0.271324
O30   O     O_3   0.192826 0.764043 0.616859 -0.486816
O31   O     O_2   0.236918 0.224404 0.919395 -0.199518
O32   O     O_2   0.239973 0.370628 0.814988 -0.222309
O33   O     O_3   0.385797 0.246625 0.801739 -0.481516
O34   O     O_R   0.021360 0.614540 0.875460 -0.451141
O35   O     O_2   0.780340 0.768661 0.073273 -0.188070
O36   O     O_2   0.638772 0.761444 0.184165 -0.292686
O37   O     O_3   0.767794 0.618143 0.192151 -0.469060
O38   O     O_2   0.333402 0.935102 0.890151 -0.257471
O39   O     O_2   0.282576 0.096025 0.837779 -0.273518
O40   O     O_3   0.172632 0.010876 0.881863 -0.395238
O41   O     O_2   0.773093 0.826465 0.243284 -0.195319
O42   O     O_2   0.696624 0.940514 0.136759 -0.253315
O43   O     O_3   0.828348 0.967522 0.155897 -0.380931
O44   O     O_2   0.900967 0.890384 0.317517 -0.256317
O45   O     O_R   0.385460 0.124540 0.978640 -0.429959
O46   O     O_2   0.052403 0.848869 0.325936 -0.278776
O47   O     O_3   0.030842 0.870753 0.178194 -0.375250
O48   O     O_2   0.839185 0.256579 0.774899 -0.190787
O49   O     O_2   0.940853 0.135685 0.712707 -0.258495
O50   O     O_3   0.971121 0.157638 0.841361 -0.405699
O51   O     O_2   0.885514 0.309943 0.909723 -0.240511
O52   O     O_2   0.845971 0.320942 0.060235 -0.234468
O53   O     O_3   0.859304 0.173182 0.042998 -0.408650
O54   O     O_2   0.267336 0.777681 0.851409 -0.198556
O55   O     O_2   0.141773 0.717729 0.940302 -0.256719
O56   O     O_R   0.614540 0.875460 0.021360 -0.441845
O57   O     O_3   0.160840 0.839486 0.983630 -0.388778
O58   O     O_2   0.107394 0.055503 0.684824 -0.281986
O59   O     O_2   0.177696 0.906292 0.669731 -0.227245
O60   O     O_3   0.135400 0.926230 0.821649 -0.368104
O61   O     O_2   0.719816 0.134045 0.172668 -0.191017
O62   O     O_2   0.706663 0.177703 0.299170 -0.265089
O63   O     O_3   0.854770 0.069892 0.238838 -0.463248
O64   O     O_2   0.673574 0.107157 0.051353 -0.274155
O65   O     O_2   0.669034 0.190937 0.900395 -0.222514
O66   O     O_3   0.815225 0.140466 0.938167 -0.382512
O67   O     O_R   0.614540 0.021360 0.875460 -0.429636
O68   O     O_2   0.236345 0.853336 0.091257 -0.204887
O69   O     O_2   0.164943 0.731770 0.166397 -0.208149
O70   O     O_3   0.295402 0.722419 0.215642 -0.541031
O71   O     O_2   0.064832 0.677925 0.110668 -0.288004
O72   O     O_2   0.913190 0.669710 0.174900 -0.227339
O73   O     O_3   0.941344 0.818667 0.135121 -0.387988
O74   O     O_2   0.139886 0.159419 0.749306 -0.209556
O75   O     O_2   0.194434 0.282104 0.726786 -0.213816
O76   O     O_3   0.070493 0.245123 0.870164 -0.444159
O77   O     O_R   0.385460 0.978640 0.124540 -0.428664
O78   O     O_R   0.875460 0.614540 0.021360 -0.433714
S1    S     S_3+6 0.232440 0.080678 0.227166 0.061054
S2    S     S_3+6 0.934554 0.206308 0.749954 0.114557
S3    S     S_3+6 0.828901 0.283630 0.002309 0.110168
S4    S     S_3+6 0.211018 0.750432 0.944034 0.117232
S5    S     S_3+6 0.173487 0.970541 0.713614 0.111754
S6    S     S_3+6 0.744618 0.102211 0.257780 0.082428
S7    S     S_3+6 0.706089 0.177882 0.973604 0.113657
S8    S     S_3+6 0.250763 0.754984 0.130966 0.071567
S9    S     S_3+6 0.979151 0.709424 0.174059 0.104773
S10   S     S_3+6 0.113502 0.249458 0.762146 0.100580
S11   S     S_3+6 0.712949 0.128880 0.712242 0.098330
S12   S     S_3+6 0.874880 0.287106 0.282223 0.106514
S13   S     S_3+6 0.127348 0.715425 0.711057 0.096715
S14   S     S_3+6 0.291164 0.289598 0.870269 0.116100
S15   S     S_3+6 0.717966 0.711824 0.126510 0.099571
S16   S     S_3+6 0.278390 0.010598 0.834114 0.115027
S17   S     S_3+6 0.741396 0.924719 0.205064 0.118247
S18   S     S_3+6 0.993005 0.834470 0.288393 0.112031

loop_
_geom_bond_atom_site_label_1
_geom_bond_atom_site_label_2
_ccdc_geom_bond_type
O55   S4    D    
Cu3   O15   S    
C23   O14   A    
C87   S17   S    
C6    C45   A    
C15   C29   A    
C52   H26   S    
C74   C94   A    
C17   O7    A    
C53   H27   S    
O41   S17   D    
O52   S3    D    
O39   S16   D    
C72   C85   A    
C44   C65   A    
C75   C95   A    
C82   S5    S    
O40   S16   S    
O48   S2    D    
C52   C77   A    
C65   S14   S    
O68   S8    D    
C60   H4    S    
O63   S6    S    
C16   O6    A    
C61   S1    S    
C79   C93   A    
C80   C87   A    
O59   S5    D    
C43   C66   A    
C64   S13   S    
C58   C71   A    
C57   C59   A    
C49   H12   S    
C54   C68   A    
H17   O57   S    
C76   C98   A    
C62   S11   S    
O38   S16   D    
C55   H29   S    
C78   C91   A    
Cu5   O9    S    
O31   S14   D    
C2    C32   A    
H20   O66   S    
C49   C81   A    
H15   O50   S    
H9    O33   S    
C4    C69   A    
C3    C12   A    
O35   S15   D    
O30   S13   S    
C4    C96   A    
O51   S3    D    
C78   C96   A    
C41   C70   A    
C1    C28   A    
C24   C38   S    
Cu5   Cu6   S    
C20   O10   A    
O29   S13   D    
O18   S1    D    
O75   S10   D    
H11   O40   S    
O21   S11   D    
H5    O20   S    
H7    O27   S    
C17   O78   A    
O36   S15   D    
C9    C95   A    
C12   C98   A    
O58   S5    D    
C9    C29   A    
C25   C34   S    
O74   S10   D    
H18   O60   S    
O47   S18   S    
C25   O16   A    
O33   S14   S    
C11   C31   A    
O69   S8    D    
C33   C59   A    
C40   C59   A    
C40   C66   A    
C12   C32   A    
C39   C65   A    
H22   O73   S    
C42   C81   A    
O71   S9    D    
C41   C62   A    
C24   O34   A    
C84   S9    S    
C15   C35   A    
O57   S4    S    
C1    C34   A    
O24   S11   S    
C14   C45   S    
C38   C64   A    
C27   O17   A    
C77   C90   A    
C50   C79   A    
Cu4   O14   S    
C58   H3    S    
C20   O77   A    
O53   S3    S    
O60   S5    S    
C8    C94   A    
C68   C101  A    
C86   C90   A    
C33   C92   A    
C2    C44   A    
H21   O70   S    
C85   C89   A    
C22   C40   S    
H14   O47   S    
O70   S8    S    
C27   C35   S    
C47   H1    S    
C80   S6    S    
C66   S15   S    
O27   S12   S    
C19   O9    A    
C31   C37   A    
Cu5   O45   S    
C15   C55   A    
C13   C99   A    
C77   C99   A    
C16   O4    A    
C1    C54   A    
C17   C43   S    
C47   C70   A    
C13   C33   A    
C37   C38   A    
C69   C83   A    
O43   S17   S    
C68   C82   A    
C7    C51   A    
C56   H30   S    
C94   C100  A    
C10   C30   A    
C20   C42   S    
C57   H2    S    
C21   C39   S    
C10   C96   A    
Cu3   O7    S    
C71   C84   A    
O19   S1    D    
C90   S3    S    
O65   S7    D    
O26   S12   D    
O61   S6    D    
C6    C50   A    
C4    C11   A    
C18   O2    A    
C26   C58   A    
C42   C61   A    
O46   S18   D    
C7    C46   A    
C67   C100  A    
Cu1   O17   S    
C88   S16   S    
C5    C97   A    
H10   O37   S    
C26   C30   A    
C27   O12   A    
C21   O11   A    
O66   S7    S    
O73   S9    S    
Cu1   O1    S    
C74   C87   A    
O72   S9    D    
Cu3   O23   S    
C52   C92   A    
C53   C76   A    
H24   O76   S    
C86   S7    S    
O54   S4    D    
C16   C46   S    
O25   S12   D    
C36   C63   A    
Cu1   O4    S    
C18   C44   S    
Cu4   O78   S    
C24   O15   A    
H13   O43   S    
C29   C70   A    
C8    C101  A    
C26   C36   A    
C48   C56   A    
C22   O13   A    
C50   H23   S    
O76   S10   S    
C23   O23   A    
C56   C73   A    
C25   O1    A    
C28   C81   A    
C49   C74   A    
Cu4   O34   S    
O64   S7    D    
C79   C97   A    
C22   O56   A    
C67   C80   A    
Cu6   O67   S    
C18   O8    A    
C2    C53   A    
Cu1   O5    S    
O42   S17   D    
C55   C67   A    
Cu2   O12   S    
C63   S12   S    
O50   S2    S    
C93   S18   S    
O28   S13   D    
C83   C91   A    
Cu3   Cu4   S    
C76   C89   A    
C45   C64   A    
C95   C101  A    
C43   C92   A    
Cu4   O8    S    
O22   S11   D    
C21   O45   A    
C46   C63   A    
C11   C97   A    
O62   S6    D    
C91   S2    S    
O37   S15   S    
C14   O5    A    
C51   C78   A    
Cu5   O13   S    
C5    C10   A    
C5    C71   A    
C98   C102  A    
C54   H28   S    
Cu3   O2    S    
C51   H25   S    
C32   C48   A    
C72   C102  A    
C60   C69   A    
O20   S1    S    
C82   C88   A    
O32   S14   D    
C9    C100  A    
C6    C31   A    
C35   C62   A    
C84   C93   A    
H19   O63   S    
C57   C72   A    
C3    C73   A    
C85   S8    S    
C73   C86   A    
C14   O3    A    
C37   C60   A    
H6    O24   S    
Cu2   O6    S    
O44   S18   D    
C47   C75   A    
Cu6   O11   S    
C3    C99   A    
C75   C88   A    
Cu5   O77   S    
C19   O67   A    
C8    C28   A    
C89   S4    S    
C23   C36   S    
C34   C61   A    
Cu1   Cu2   S    
C7    C30   A    
Cu2   O3    S    
H8    O30   S    
Cu2   O16   S    
C13   C102  A    
Cu6   O56   S    
O49   S2    D    
H16   O53   S    
C19   C41   S    
C39   C48   A    
Cu6   O10   S    
C83   S10   S    
