data_mof_unit_37034.cif
_audit_creation_date              2013-03-05T15:48:44-0500
_audit_creation_method            fapswitch 2.2
_symmetry_space_group_name_H-M    P1
_symmetry_Int_Tables_number       1
_space_group_crystal_system       triclinic
_cell_length_a                    22.327272
_cell_length_b                    7.120129
_cell_length_c                    19.559382
_cell_angle_alpha                 89.963609
_cell_angle_beta                  98.822259
_cell_angle_gamma                 90.031772
_cell_volume                      3072.62591743

loop_
_atom_site_label
_atom_site_type_symbol
_atom_site_description
_atom_site_fract_x
_atom_site_fract_y
_atom_site_fract_z
_atom_type_partial_charge
O1    O     O_R   0.448420 0.506120 0.415750 -0.583983
O2    O     O_R   0.551580 0.006120 0.584250 -0.579028
O3    O     O_R   0.436490 0.174470 0.555610 -0.555122
O4    O     O_R   0.563510 0.674470 0.444390 -0.556029
C1    C     C_R   0.423874 0.343474 0.578242 0.999019
C2    C     C_R   0.575972 0.843651 0.421617 0.994920
O5    O     O_R   0.441310 0.176330 0.414520 -0.593770
O6    O     O_R   0.558690 0.676330 0.585480 -0.596267
O7    O     O_R   0.556430 0.007110 0.442150 -0.557864
O8    O     O_R   0.443570 0.507110 0.557850 -0.557416
C3    C     C_R   0.426493 0.345590 0.389340 1.114614
C4    C     C_R   0.573902 0.845367 0.610419 1.113429
O9    O     O_3   0.537770 0.339560 0.509230 -0.268225
O10   O     O_3   0.462230 0.839560 0.490770 -0.270012
V1    V     V_3+5 0.492990 0.064280 0.498290 1.347154
V2    V     V_3+5 0.507010 0.564280 0.501710 1.345112
C5    C     C_R   0.874232 0.881654 0.697711 0.871652
C6    C     C_R   0.126714 0.396229 0.302354 0.871913
C7    C     C_R   0.887444 0.933030 0.821421 -0.540235
C8    C     C_R   0.112960 0.434012 0.178114 -0.542242
C9    C     C_R   0.590463 0.845923 0.737478 0.654603
C10   C     C_R   0.411299 0.379591 0.263216 0.654355
C11   C     C_R   0.626285 0.842836 0.802974 0.178738
C12   C     C_R   0.376607 0.416605 0.198713 0.173511
C13   C     C_R   0.689489 0.855385 0.808004 -0.228432
C14   C     C_R   0.313388 0.428414 0.193363 -0.237057
C15   C     C_R   0.718712 0.877484 0.749358 0.134642
C16   C     C_R   0.282533 0.396064 0.250284 0.136563
C17   C     C_R   0.681798 0.869118 0.682320 -0.205631
C18   C     C_R   0.318943 0.367516 0.316878 -0.206581
C19   C     C_R   0.783884 0.897106 0.755287 -0.161314
C20   C     C_R   0.216893 0.401012 0.243860 -0.158739
C21   C     C_R   0.810801 0.881631 0.694335 -0.539519
C22   C     C_R   0.190042 0.386356 0.305026 -0.542001
C23   C     C_R   0.774315 0.869430 0.629791 0.899531
C24   C     C_R   0.226387 0.361690 0.369128 0.899142
C25   C     C_R   0.711510 0.869822 0.623411 0.137127
C26   C     C_R   0.288990 0.352577 0.375331 0.137538
C27   C     C_R   0.823776 0.933325 0.818665 0.716599
C28   C     C_R   0.176218 0.416554 0.179712 0.717257
C29   C     C_R   0.912795 0.904574 0.760520 0.028299
C30   C     C_R   0.087970 0.422694 0.239888 0.023359
C31   C     C_R   0.616859 0.854959 0.677016 -0.392928
C32   C     C_R   0.383992 0.359199 0.322637 -0.393531
H1    H     H_    0.715051 0.836244 0.858637 0.256325
H2    H     H_    0.290002 0.472990 0.144175 0.263972
C33   C     C_3   0.803732 0.717515 0.249692 0.199088
C34   C     C_3   0.195392 0.216514 0.749511 0.200093
C35   C     C_3   0.793474 0.079326 0.258666 -0.041377
C36   C     C_3   0.205893 0.578353 0.740462 -0.042268
C37   C     C_3   0.739312 0.067140 0.304246 0.807387
C38   C     C_3   0.260042 0.566368 0.694911 0.807165
H3    H     H_    0.781624 0.198853 0.223606 0.260085
H4    H     H_    0.217785 0.697755 0.775525 0.259940
C39   C     C_1   0.620447 0.851174 0.374705 -0.046274
C40   C     C_1   0.379000 0.350589 0.624680 -0.047760
C41   C     C_3   0.792372 0.907959 0.207735 -0.487776
C42   C     C_3   0.206870 0.406924 0.791405 -0.488371
C43   C     C_3   0.761038 0.722517 0.309201 0.732849
C44   C     C_3   0.238086 0.221719 0.689958 0.732928
C45   C     C_3   0.707438 0.870840 0.291645 -0.560330
C46   C     C_3   0.291790 0.369954 0.707485 -0.560982
C47   C     C_3   0.677764 0.867619 0.212802 -0.045393
C48   C     C_3   0.321464 0.366513 0.786327 -0.041849
C49   C     C_3   0.726961 0.900243 0.164983 0.540524
C50   C     C_3   0.272290 0.399027 0.834151 0.539735
C51   C     C_1   0.658785 0.858017 0.336726 0.398581
C52   C     C_1   0.340479 0.357255 0.662435 0.398271
C53   C     C_1   0.836494 0.933939 0.157802 0.383327
C54   C     C_1   0.162819 0.433229 0.841369 0.383578
C55   C     C_1   0.874124 0.944054 0.118993 -0.110265
C56   C     C_1   0.125428 0.443946 0.880437 -0.107131
H5    H     H_    0.724508 0.788464 0.125078 0.163718
H6    H     H_    0.274709 0.287147 0.874064 0.164323
H7    H     H_    0.645650 0.987711 0.204007 0.256427
H8    H     H_    0.353624 0.486573 0.795114 0.257921
O11   O     O_R   0.056480 0.288780 0.942210 -0.576612
O12   O     O_R   0.943520 0.788780 0.057790 -0.576147
O13   O     O_R   0.058700 0.616820 0.085490 -0.601715
O14   O     O_R   0.941300 0.116820 0.914510 -0.589050
C57   C     C_R   0.072772 0.447794 0.110811 1.185270
C58   C     C_R   0.927392 0.947880 0.888968 1.171476
O15   O     O_R   0.063520 0.618570 0.944410 -0.557820
O16   O     O_R   0.936480 0.118570 0.055590 -0.558225
O17   O     O_R   0.948420 0.787670 0.915740 -0.587503
O18   O     O_R   0.051580 0.287670 0.084260 -0.579337
C59   C     C_R   0.079205 0.450581 0.925196 0.977471
C60   C     C_R   0.920669 0.950510 0.074637 0.969510
O19   O     O_3   0.962260 0.453430 0.990800 -0.281166
O20   O     O_3   0.037740 0.953430 0.009200 -0.280188
V3    V     V_3+5 0.007000 0.728750 0.001710 1.313458
V4    V     V_3+5 0.993000 0.228750 0.998290 1.322005
N1    N     N_R   0.977471 0.904811 0.760678 0.282198
O21   O     O_R   0.014395 0.829408 0.811094 -0.344768
O22   O     O_R   0.999393 0.964207 0.706675 -0.144415
N2    N     N_R   0.023427 0.433524 0.240503 0.282493
O23   O     O_R   0.984746 0.367484 0.189678 -0.339883
O24   O     O_R   0.003084 0.492317 0.295558 -0.143602
N3    N     N_R   0.868815 0.694678 0.280273 0.322587
O25   O     O_R   0.885029 0.620287 0.341119 -0.095666
O26   O     O_R   0.911243 0.717666 0.242319 -0.297422
N4    N     N_R   0.130252 0.193558 0.719021 0.322062
O27   O     O_R   0.113992 0.120521 0.657981 -0.095998
O28   O     O_R   0.087864 0.214654 0.757165 -0.300501
N5    N     N_R   0.854914 0.124630 0.294567 0.287773
O29   O     O_R   0.885097 0.014531 0.340371 -0.166953
O30   O     O_R   0.883666 0.265805 0.272617 -0.227100
N6    N     N_R   0.144516 0.623812 0.704532 0.288469
O31   O     O_R   0.114214 0.513721 0.658842 -0.165972
O32   O     O_R   0.115967 0.765414 0.726325 -0.224862
N7    N     N_R   0.754214 0.106391 0.380010 0.305093
O33   O     O_R   0.711037 0.159856 0.413317 -0.236967
O34   O     O_R   0.809082 0.110678 0.413731 -0.124752
N8    N     N_R   0.245178 0.606025 0.619168 0.304686
O35   O     O_R   0.288355 0.660395 0.585970 -0.235942
O36   O     O_R   0.190330 0.609853 0.585379 -0.125335
F1    F     F_    0.696898 0.201548 0.277821 -0.608981
F2    F     F_    0.302495 0.700699 0.721373 -0.608218
F3    F     F_    0.714325 0.065749 0.127977 -0.577182
F4    F     F_    0.285009 0.564413 0.871158 -0.576994
N9    N     N_R   0.639787 0.702868 0.190778 0.277440
O37   O     O_R   0.612834 0.693406 0.126965 -0.216564
O38   O     O_R   0.624286 0.582773 0.235008 -0.231200
N10   N     N_R   0.359394 0.201742 0.808365 0.276681
O39   O     O_R   0.386467 0.192387 0.872139 -0.223053
O40   O     O_R   0.374715 0.081450 0.764162 -0.235910
N11   N     N_R   0.788833 0.559164 0.200710 0.205928
O41   O     O_R   0.735022 0.485201 0.189538 -0.325601
O42   O     O_R   0.826655 0.512333 0.159162 -0.315979
N12   N     N_R   0.210327 0.058126 0.798525 0.205976
O43   O     O_R   0.264114 0.984136 0.809575 -0.325536
O44   O     O_R   0.172617 0.011378 0.840250 -0.316472
N13   N     N_R   0.742910 0.534864 0.325739 0.301838
O45   O     O_R   0.788125 0.421760 0.341543 -0.288638
O46   O     O_R   0.695454 0.506774 0.355488 -0.243674
N14   N     N_R   0.256126 0.034131 0.673371 0.301688
O47   O     O_R   0.210871 0.921116 0.657466 -0.287966
O48   O     O_R   0.303606 0.006229 0.643677 -0.242922
F5    F     F_    0.799404 0.867156 0.570611 -0.504362
F6    F     F_    0.201482 0.351940 0.428351 -0.504652
F7    F     F_    0.899346 0.851498 0.639582 -0.510224
F8    F     F_    0.101762 0.373856 0.361037 -0.509033
F9    F     F_    0.802573 0.981348 0.877623 -0.701574
F10   F     F_    0.195335 0.401059 0.117472 -0.708952
F11   F     F_    0.529058 0.836950 0.731886 -0.630511
F12   F     F_    0.472670 0.367477 0.269100 -0.631342
N15   N     N_R   0.599004 0.824326 0.865005 0.281231
O49   O     O_R   0.542189 0.778781 0.861841 -0.193420
O50   O     O_R   0.631108 0.850842 0.925629 -0.275297
N16   N     N_R   0.405225 0.446488 0.138188 0.279127
O51   O     O_R   0.463268 0.476610 0.143732 -0.189732
O52   O     O_R   0.373180 0.446308 0.076687 -0.271472
N17   N     N_R   0.679278 0.875456 0.555028 0.212817
O53   O     O_R   0.685522 0.735671 0.513916 -0.327316
O54   O     O_R   0.663758 0.039246 0.528796 -0.345500
N18   N     N_R   0.320999 0.347203 0.443802 0.212617
O55   O     O_R   0.333333 0.507127 0.474708 -0.356409
O56   O     O_R   0.316971 0.197007 0.480740 -0.317551
F13   F     F_    0.795559 0.779995 0.370413 -0.569624
F14   F     F_    0.203590 0.279494 0.628771 -0.569742

loop_
_geom_bond_atom_site_label_1
_geom_bond_atom_site_label_2
_geom_bond_distance
_ccdc_geom_bond_type
O15   C59   1.317555 A    
C47   C49   1.565210 S    
O11   V4    1.967309 S    
O4    V2    1.973698 S    
N1    O21   1.300292 A    
C15   C17   1.439002 A    
C1    C40   1.452791 S    
N15   O49   1.301394 A    
O1    C3    1.317391 A    
C26   N18   1.418498 S    
C2    C39   1.452651 S    
C34   N12   1.484277 S    
C2    O7    1.327072 A    
N8    O35   1.300811 A    
O17   V3    2.009795 S    
C35   C41   1.573456 S    
O5    C3    1.324431 A    
C8    C30   1.408644 A    
N5    O30   1.300043 A    
C36   H4    1.099193 S    
C30   N2    1.445066 S    
C5    F7    1.359865 S    
N18   O55   1.298969 A    
N15   O50   1.301902 A    
C12   C14   1.401848 A    
C4    C31   1.496044 S    
C6    C30   1.397253 A    
C8    C28   1.413476 A    
C50   H6    1.110518 S    
C33   N3    1.493101 S    
N6    O31   1.298334 A    
C18   C26   1.414209 A    
C44   C46   1.594442 S    
C53   C55   1.217686 T    
C46   C48   1.582466 S    
C23   F5    1.361183 S    
C9    C31   1.401309 A    
C43   F13   1.382827 S    
C42   C50   1.568785 S    
C10   C32   1.400247 A    
C10   F12   1.360140 S    
C19   C27   1.434559 A    
C16   C18   1.440074 A    
C35   C37   1.610969 S    
N2    O24   1.300746 A    
C36   C38   1.610407 S    
C19   C21   1.419368 A    
O19   V3    2.195264 S    
C7    C58   1.480156 S    
C44   N14   1.446615 S    
O13   V3    2.017926 S    
C57   O18   1.310808 A    
O5    V1    2.017922 S    
O2    C4    1.319886 A    
O6    V2    2.018240 S    
C50   F4    1.388851 S    
C8    C57   1.478266 S    
C17   C31   1.441124 A    
C36   N6    1.476940 S    
C18   C32   1.440654 A    
C5    C21   1.407648 A    
C47   N9    1.472443 S    
C34   C44   1.614723 S    
C48   H8    1.112446 S    
C29   N1    1.443586 S    
C43   C45   1.593835 S    
C54   C56   1.217578 T    
C15   C19   1.448574 A    
C36   C42   1.573217 S    
C25   N17   1.418872 S    
C6    F8    1.359790 S    
O14   C58   1.321236 A    
C49   H5    1.110528 S    
O13   C57   1.320728 A    
C12   N16   1.444507 S    
C42   C54   1.500921 S    
C35   N5    1.477591 S    
C40   C52   1.217469 T    
C11   N15   1.444591 S    
C43   N13   1.446598 S    
C20   C22   1.421765 A    
O14   V4    2.018242 S    
N12   O44   1.302258 A    
N11   O42   1.302259 A    
N16   O52   1.301887 A    
C33   C41   1.584807 S    
C24   F6    1.361347 S    
C45   C51   1.503135 S    
O20   V4    2.196011 S    
N3    O25   1.302018 A    
O9    V1    2.195420 S    
C16   C20   1.452053 A    
O6    C4    1.323386 A    
C34   N4    1.493792 S    
N2    O23   1.300777 A    
C45   C47   1.582477 S    
C49   F3    1.388812 S    
C3    C32   1.494046 S    
N7    O34   1.299547 A    
O1    V2    2.008788 S    
O19   V4    1.738333 S    
N4    O28   1.300670 A    
O2    V1    2.008648 S    
C6    C22   1.408651 A    
C48   C50   1.565134 S    
N9    O37   1.301617 A    
C7    C27   1.414269 A    
N14   O48   1.299949 A    
N3    O26   1.300251 A    
C27   F9    1.356104 S    
C9    C11   1.402496 A    
N13   O45   1.291540 A    
C37   F1    1.389251 S    
O10   V2    2.196167 S    
O4    C2    1.328089 A    
N17   O54   1.299431 A    
N11   O41   1.299048 A    
C13   H1    1.073150 S    
C56   C59   1.452932 S    
O3    V1    1.974819 S    
N10   O40   1.300035 A    
N5    O29   1.298369 A    
O12   C60   1.321978 A    
C37   N7    1.494654 S    
N7    O33   1.300785 A    
C23   C25   1.388609 A    
O10   V1    1.738252 S    
C44   F14   1.382646 S    
C41   C49   1.568613 S    
N14   O47   1.291591 A    
O3    C1    1.327639 A    
N8    O36   1.299593 A    
C34   C42   1.584865 S    
C38   N8    1.494459 S    
O12   V3    1.967954 S    
C13   C15   1.412612 A    
C58   O17   1.311596 A    
O15   V3    1.974853 S    
C48   N10   1.472364 S    
C14   C16   1.414913 A    
C28   F10   1.354992 S    
C46   C52   1.503449 S    
N18   O56   1.300987 A    
N12   O43   1.299003 A    
O7    V1    1.963682 S    
C39   C51   1.217327 T    
O18   V4    2.009940 S    
C37   C45   1.570435 S    
O20   V3    1.737804 S    
O16   C60   1.317036 A    
C47   H7    1.112433 S    
C33   N11   1.484213 S    
C35   H3    1.099271 S    
C24   C26   1.385907 A    
C21   C23   1.396262 A    
C22   C24   1.396130 A    
N6    O32   1.299666 A    
C10   C12   1.400418 A    
C20   C28   1.435848 A    
N4    O27   1.302034 A    
C5    C29   1.397429 A    
N9    O38   1.299994 A    
C14   H2    1.069901 S    
C33   C43   1.614068 S    
C55   C60   1.453015 S    
C1    O8    1.327632 A    
C11   C13   1.402276 A    
O11   C59   1.321378 A    
N1    O22   1.300714 A    
O9    V2    1.738781 S    
C17   C25   1.414992 A    
C38   C46   1.570331 S    
N13   O46   1.299997 A    
N16   O51   1.301459 A    
O8    V2    1.963064 S    
O16   V4    1.973732 S    
C41   C53   1.501085 S    
N17   O53   1.300851 A    
C7    C29   1.409815 A    
C9    F11   1.359999 S    
N10   O39   1.301706 A    
C38   F2    1.389342 S    
