data_mof_unit_13845.cif
_audit_creation_date              2012-12-11T14:52:42-0500
_audit_creation_method            fapswitch 2.2
_symmetry_space_group_name_H-M    P1
_symmetry_Int_Tables_number       1
_space_group_crystal_system       triclinic
_cell_length_a                    20.53126
_cell_length_b                    7.251694
_cell_length_c                    20.461435
_cell_angle_alpha                 89.999217
_cell_angle_beta                  101.4928
_cell_angle_gamma                 89.999402
_cell_volume                      2985.34802489

loop_
_atom_site_label
_atom_site_type_symbol
_atom_type_description
_atom_site_fract_x
_atom_site_fract_y
_atom_site_fract_z
_atom_type_partial_charge
O1    O     O_R   0.673670 0.377510 0.185950 -0.519858
O2    O     O_R   0.326330 0.622490 0.814050 -0.531477
O3    O     O_R   0.826330 0.877510 0.314050 -0.519904
O4    O     O_R   0.173670 0.122490 0.685950 -0.531478
O5    O     O_R   0.806260 0.705340 0.185590 -0.545050
O6    O     O_R   0.193740 0.294660 0.814410 -0.544916
O7    O     O_R   0.693740 0.205340 0.314410 -0.545043
O8    O     O_R   0.306260 0.794660 0.685590 -0.544919
C1    C     C_R   0.824981 0.538657 0.170344 0.709320
C2    C     C_R   0.174917 0.461304 0.829563 0.725735
C3    C     C_R   0.675020 0.038656 0.329657 0.709414
C4    C     C_R   0.325085 0.961304 0.670439 0.725749
O9    O     O_R   0.672940 0.707120 0.178050 -0.517284
O10   O     O_R   0.327060 0.292880 0.821950 -0.525512
O11   O     O_R   0.827060 0.207120 0.321950 -0.517360
O12   O     O_R   0.172940 0.792880 0.678050 -0.525512
O13   O     O_R   0.692060 0.879040 0.306460 -0.528145
O14   O     O_R   0.307940 0.120960 0.693540 -0.523955
O15   O     O_R   0.807940 0.379040 0.193540 -0.528129
O16   O     O_R   0.192060 0.620960 0.806460 -0.523942
C5    C     C_R   0.648404 0.539763 0.161508 0.765984
C6    C     C_R   0.351777 0.460505 0.838545 0.781439
C7    C     C_R   0.851597 0.039759 0.338490 0.766084
C8    C     C_R   0.148224 0.960508 0.661453 0.781494
O17   O     O_3   0.756430 0.544390 0.292140 -0.373185
O18   O     O_3   0.243570 0.455610 0.707860 -0.381345
O19   O     O_3   0.743570 0.044390 0.207860 -0.373130
O20   O     O_3   0.256430 0.955610 0.792140 -0.381341
V1    V     V_3+5 0.748810 0.818610 0.242180 1.512655
V2    V     V_3+5 0.251190 0.181390 0.757820 1.459400
V3    V     V_3+5 0.751190 0.318610 0.257820 1.512604
V4    V     V_3+5 0.248810 0.681390 0.742180 1.459400
C9    C     C_R   0.085782 0.962286 0.608884 -0.225462
C10   C     C_R   0.913033 0.039427 0.391886 -0.222625
C11   C     C_R   0.414218 0.462273 0.891115 -0.225451
C12   C     C_R   0.586972 0.539447 0.108106 -0.222736
C13   C     C_R   0.017727 0.185206 0.444278 -0.267868
C14   C     C_R   0.981878 0.813055 0.555591 -0.280984
C15   C     C_R   0.482309 0.685337 0.055678 -0.267691
C16   C     C_R   0.518098 0.312956 0.944434 -0.280915
C17   C     C_R   0.963796 0.170015 0.389207 0.370493
C18   C     C_R   0.036168 0.827134 0.610404 0.338054
C19   C     C_R   0.536231 0.670133 0.110749 0.370472
C20   C     C_R   0.463821 0.327076 0.889611 0.337990
C21   C     C_R   0.918627 0.920964 0.447666 0.388038
C22   C     C_R   0.077213 0.090354 0.555614 0.356278
C23   C     C_R   0.581357 0.420893 0.052349 0.388179
C24   C     C_R   0.422800 0.590384 0.944369 0.356266
C25   C     C_R   0.974528 0.933941 0.501126 -0.042688
C26   C     C_R   0.023111 0.071050 0.500504 -0.041303
C27   C     C_R   0.525461 0.433891 0.998883 -0.042697
C28   C     C_R   0.476901 0.571083 0.999480 -0.041378
H1    H     H_    0.055956 0.286992 0.443905 0.156884
H2    H     H_    0.945429 0.705160 0.554326 0.162530
H3    H     H_    0.444120 0.787255 0.056035 0.156954
H4    H     H_    0.554525 0.204992 0.945713 0.162550
C29   C     C_3   0.557472 0.072616 0.533063 0.315924
C30   C     C_3   0.443637 0.926681 0.468002 0.316534
C31   C     C_3   0.942539 0.572593 0.966945 0.315962
C32   C     C_3   0.056381 0.426720 0.032025 0.316545
C33   C     C_3   0.524894 0.894223 0.553602 0.319271
C34   C     C_3   0.476196 0.105063 0.447464 0.318134
C35   C     C_3   0.975130 0.394200 0.946424 0.319296
C36   C     C_3   0.023809 0.605103 0.052544 0.318142
C37   C     C_1   0.369990 0.969272 0.624250 -0.196332
C38   C     C_1   0.630483 0.030492 0.376191 -0.212149
C39   C     C_1   0.130019 0.469269 0.875760 -0.196312
C40   C     C_1   0.869521 0.530500 0.123814 -0.212063
C41   C     C_3   0.489592 0.172065 0.520591 0.285785
C42   C     C_3   0.511522 0.827272 0.480464 0.286806
C43   C     C_3   0.010414 0.672065 0.979411 0.285795
C44   C     C_3   0.988502 0.327287 0.019568 0.286759
C45   C     C_3   0.456666 0.993425 0.541642 -0.231267
C46   C     C_3   0.544429 0.005932 0.459411 -0.229410
C47   C     C_3   0.043353 0.493422 0.958379 -0.231303
C48   C     C_3   0.955581 0.505947 0.040602 -0.229441
C49   C     C_1   0.408598 0.977921 0.586565 0.089036
C50   C     C_1   0.592211 0.021607 0.414202 0.086062
C51   C     C_1   0.091417 0.477915 0.913450 0.089001
C52   C     C_1   0.907796 0.521624 0.085806 0.086003
O21   O     O_3   0.124994 0.224649 0.554892 -0.562754
C53   C     C_3   0.102865 0.390529 0.579367 -0.144271
H5    H     H_    0.057071 0.443492 0.546297 0.116606
H6    H     H_    0.142084 0.496577 0.581055 0.166941
H7    H     H_    0.093794 0.373866 0.630862 0.159233
O22   O     O_3   0.869585 0.790996 0.449527 -0.543183
C54   C     C_3   0.820791 0.870383 0.480591 -0.234278
H8    H     H_    0.841857 0.910184 0.533070 0.125636
H9    H     H_    0.781343 0.766511 0.481641 0.157327
H10   H     H_    0.796862 0.991849 0.452353 0.110456
O23   O     O_3   0.375030 0.724721 0.945080 -0.562771
C55   C     C_3   0.397164 0.890549 0.920572 -0.144089
H11   H     H_    0.442969 0.943508 0.953623 0.116642
H12   H     H_    0.357956 0.996633 0.918882 0.166975
H13   H     H_    0.406219 0.873816 0.869075 0.159251
O24   O     O_3   0.630376 0.290833 0.050513 -0.543123
C56   C     C_3   0.679188 0.370083 0.019441 -0.234174
H14   H     H_    0.658134 0.409843 0.966955 0.125574
H15   H     H_    0.718618 0.266137 0.018411 0.157324
H16   H     H_    0.703138 0.491547 0.047660 0.110432
O25   O     O_3   0.045021 0.707874 0.665229 -0.552446
C57   C     C_3   0.985129 0.631507 0.677236 0.047864
H17   H     H_    0.968103 0.518171 0.641276 0.119023
H18   H     H_    0.945723 0.738572 0.674524 0.121539
C58   C     C_3   0.997444 0.548058 0.746686 -0.672054
H19   H     H_    0.015151 0.656043 0.784459 0.213211
H20   H     H_    0.950646 0.488030 0.756643 0.188237
H21   H     H_    0.035226 0.436978 0.750528 0.213577
O26   O     O_3   0.955873 0.285066 0.333221 -0.541345
C59   C     C_3   0.015925 0.361559 0.321742 0.076709
H22   H     H_    0.055417 0.254521 0.325117 0.115440
H23   H     H_    0.032480 0.475663 0.357529 0.129789
C60   C     C_3   0.004222 0.443760 0.252089 -0.663783
H24   H     H_    0.966352 0.554763 0.247606 0.223100
H25   H     H_    0.051176 0.503731 0.242513 0.184144
H26   H     H_    0.986871 0.335192 0.214429 0.209173
O27   O     O_3   0.454968 0.207771 0.834803 -0.552472
C61   C     C_3   0.514884 0.131673 0.822740 0.047817
H27   H     H_    0.531988 0.018320 0.858673 0.119038
H28   H     H_    0.554238 0.238891 0.825445 0.121533
C62   C     C_3   0.502563 0.048328 0.753274 -0.672048
H29   H     H_    0.484754 0.156314 0.715531 0.213214
H30   H     H_    0.549381 0.988581 0.743262 0.188230
H31   H     H_    0.464856 0.937054 0.749447 0.213597
O28   O     O_3   0.544175 0.785423 0.166667 -0.541243
C63   C     C_3   0.484066 0.861022 0.178345 0.076675
H32   H     H_    0.444754 0.753493 0.175034 0.115400
H33   H     H_    0.467236 0.975092 0.142631 0.129788
C64   C     C_3   0.495827 0.943012 0.248029 -0.663873
H34   H     H_    0.533528 0.054440 0.252456 0.223212
H35   H     H_    0.448841 0.002370 0.257752 0.184069
H36   H     H_    0.513421 0.834466 0.285621 0.209133
O29   O     O_3   0.546954 0.789682 0.612053 -0.541915
C65   C     C_3   0.606095 0.695885 0.608108 -0.201072
H37   H     H_    0.642505 0.784334 0.589045 0.130539
H38   H     H_    0.594923 0.570364 0.577046 0.223199
H39   H     H_    0.630026 0.650412 0.658982 0.128030
O30   O     O_3   0.454088 0.209580 0.389018 -0.542061
C66   C     C_3   0.395029 0.303631 0.393082 -0.193814
H40   H     H_    0.406306 0.428992 0.424215 0.222243
H41   H     H_    0.358603 0.215257 0.412148 0.136747
H42   H     H_    0.371074 0.349369 0.342248 0.129790
O31   O     O_3   0.953070 0.289604 0.887988 -0.541916
C67   C     C_3   0.893926 0.195840 0.891945 -0.200939
H43   H     H_    0.857516 0.284326 0.910993 0.130546
H44   H     H_    0.905092 0.070351 0.923027 0.223237
H45   H     H_    0.869996 0.150319 0.841078 0.128009
O32   O     O_3   0.045907 0.709675 0.110977 -0.542074
C68   C     C_3   0.104977 0.803677 0.106917 -0.193792
H46   H     H_    0.093717 0.929006 0.075762 0.222241
H47   H     H_    0.141406 0.715253 0.087877 0.136794
H48   H     H_    0.128920 0.849462 0.157748 0.129788
O33   O     O_3   0.618919 0.151490 0.563585 -0.543332
C69   C     C_3   0.619660 0.187143 0.631458 -0.224545
H49   H     H_    0.625781 0.057660 0.660828 0.158518
H50   H     H_    0.574695 0.262306 0.639369 0.167327
H51   H     H_    0.663191 0.275584 0.651250 0.132834
O34   O     O_3   0.382174 0.847688 0.437604 -0.539918
C70   C     C_3   0.381272 0.812119 0.369708 -0.212416
H52   H     H_    0.426276 0.737376 0.361670 0.164228
H53   H     H_    0.374877 0.941631 0.340362 0.157549
H54   H     H_    0.337815 0.723285 0.350042 0.135709
O35   O     O_3   0.881089 0.651429 0.936412 -0.543318
C71   C     C_3   0.880356 0.687084 0.868540 -0.224589
H55   H     H_    0.874284 0.557592 0.839175 0.158546
H56   H     H_    0.925304 0.762348 0.860639 0.167335
H57   H     H_    0.836803 0.775429 0.848731 0.132858
O36   O     O_3   0.117849 0.347779 0.062444 -0.539910
C72   C     C_3   0.118725 0.312168 0.130334 -0.212530
H58   H     H_    0.073756 0.237195 0.138338 0.164242
H59   H     H_    0.125014 0.441681 0.159679 0.157626
H60   H     H_    0.162229 0.223530 0.150032 0.135754
O37   O     O_3   0.515598 0.640602 0.461809 -0.516244
C73   C     C_3   0.573428 0.606987 0.436667 -0.119384
H61   H     H_    0.618574 0.667637 0.468555 0.093014
H62   H     H_    0.566956 0.657660 0.384614 0.118690
H63   H     H_    0.581229 0.455748 0.435534 0.191138
O38   O     O_3   0.485627 0.358865 0.539132 -0.517102
C74   C     C_3   0.428200 0.392497 0.564933 -0.117854
H64   H     H_    0.435042 0.340868 0.616894 0.116847
H65   H     H_    0.382795 0.332798 0.533184 0.103958
H66   H     H_    0.420656 0.543773 0.566513 0.191403
O39   O     O_3   0.984434 0.140611 0.038220 -0.516260
C75   C     C_3   0.926650 0.107025 0.063442 -0.119488
H67   H     H_    0.881474 0.167575 0.031568 0.093090
H68   H     H_    0.933168 0.157822 0.115483 0.118760
H69   H     H_    0.918872 0.955785 0.064632 0.191153
O40   O     O_3   0.014371 0.858862 0.960863 -0.517105
C76   C     C_3   0.071786 0.892483 0.935041 -0.117879
H70   H     H_    0.064933 0.840812 0.883084 0.116874
H71   H     H_    0.117200 0.832818 0.966787 0.103976
H72   H     H_    0.079322 0.043759 0.933440 0.191404

loop_
_geom_bond_atom_site_label_1
_geom_bond_atom_site_label_2
_ccdc_geom_bond_type
C33   C42   S    
C40   C52   T    
C54   H8    S    
O1    C5    A    
C63   H32   S    
O29   C65   S    
O19   V1    S    
O13   V1    S    
C72   H58   S    
C58   H19   S    
O3    C7    A    
O35   C71   S    
C43   O40   S    
C44   C48   S    
O15   V3    S    
C19   O28   S    
C65   H39   S    
O38   C74   S    
C33   O29   S    
C5    C12   S    
C2    C39   S    
O7    C3    A    
C6    C11   S    
C58   H20   S    
O5    C1    A    
O25   C57   S    
C12   C23   A    
C9    C18   A    
O9    V1    S    
C71   H55   S    
C14   C18   A    
C68   H47   S    
O4    C8    A    
C66   H42   S    
C32   C44   S    
O31   C67   S    
O1    V3    S    
C75   H67   S    
C57   C58   S    
O2    V4    S    
C36   C43   S    
O3    V1    S    
C45   C49   S    
C61   H27   S    
C62   H31   S    
C59   H22   S    
C68   H46   S    
C1    O15   A    
C74   H66   S    
C15   H3    S    
C2    O16   A    
C16   H4    S    
C24   O23   S    
C42   C46   S    
C23   O24   S    
C70   H53   S    
C41   C45   S    
O14   V2    S    
C16   C20   A    
C69   H50   S    
C3    C38   S    
C60   H26   S    
C13   H1    S    
O11   C7    A    
C15   C28   A    
O5    V1    S    
O12   C8    A    
C17   O26   S    
C36   O32   S    
C9    C22   A    
C72   H59   S    
C76   H70   S    
C10   C17   A    
O10   V2    S    
C67   H45   S    
C11   C24   A    
C56   H15   S    
C56   H14   S    
C61   H28   S    
C38   C50   T    
C58   H21   S    
C37   C49   T    
C27   C28   A    
O8    V4    S    
O7    V3    S    
O32   C68   S    
C69   H51   S    
C67   H44   S    
C30   O34   S    
C68   H48   S    
O23   C55   S    
C14   C25   A    
O18   V4    S    
C30   C42   S    
C15   C19   A    
C63   C64   S    
C33   C45   S    
O37   C73   S    
C29   O33   S    
O11   V3    S    
C55   H13   S    
O21   C53   S    
C34   C41   S    
C60   H25   S    
O40   C76   S    
C61   C62   S    
C29   C46   S    
C76   H72   S    
O39   C75   S    
O2    C6    A    
C23   C27   A    
C41   O38   S    
C22   O21   S    
C70   H52   S    
C14   H2    S    
C21   C25   A    
O8    C4    A    
C7    C10   S    
O24   C56   S    
C55   H12   S    
C36   C48   S    
C70   H54   S    
O9    C5    A    
C10   C21   A    
C32   O36   S    
C34   O30   S    
C57   H18   S    
C11   C20   A    
C73   H63   S    
C69   H49   S    
C30   C34   S    
O36   C72   S    
O6    V2    S    
C53   H5    S    
C53   H6    S    
C54   H9    S    
O28   C63   S    
C72   H60   S    
C4    O14   A    
C16   C27   A    
C18   O25   S    
C56   H16   S    
C60   H24   S    
O16   V4    S    
C3    O13   A    
C63   H33   S    
O22   C54   S    
O17   V3    S    
C71   H57   S    
C48   C52   S    
C44   O39   S    
C67   H43   S    
O6    C2    A    
C65   H38   S    
C66   H40   S    
C62   H29   S    
C29   C33   S    
C65   H37   S    
O12   V4    S    
C53   H7    S    
C4    C37   S    
C22   C26   A    
C32   C47   S    
C31   C35   S    
C8    C9    S    
C75   H69   S    
C32   C36   S    
C64   H36   S    
C71   H56   S    
C21   O22   S    
C64   H34   S    
C1    C40   S    
O27   C61   S    
C43   C47   S    
C13   C26   A    
C66   H41   S    
O10   C6    A    
O34   C70   S    
C35   C47   S    
C20   O27   S    
O20   V2    S    
C55   H11   S    
C73   H62   S    
C75   H68   S    
C13   C17   A    
C57   H17   S    
C42   O37   S    
C59   H23   S    
C62   H30   S    
C31   O35   S    
O30   C66   S    
C74   H64   S    
C64   H35   S    
C24   C28   A    
C35   C44   S    
C25   C26   A    
C46   C50   S    
C54   H10   S    
C59   C60   S    
C35   O31   S    
C34   C46   S    
C12   C19   A    
C29   C41   S    
O33   C69   S    
O26   C59   S    
C47   C51   S    
C31   C48   S    
C39   C51   T    
O4    V2    S    
C30   C45   S    
C31   C43   S    
C76   H71   S    
C74   H65   S    
C73   H61   S    
