data_mof_unit_15707.cif
_audit_creation_date              2012-12-10T17:11:26-0500
_audit_creation_method            fapswitch 2.2
_symmetry_space_group_name_H-M    P1
_symmetry_Int_Tables_number       1
_space_group_crystal_system       triclinic
_cell_length_a                    15.062226
_cell_length_b                    13.09478
_cell_length_c                    11.679403
_cell_angle_alpha                 98.917706
_cell_angle_beta                  93.086501
_cell_angle_gamma                 90.673729
_cell_volume                      2271.98577067

loop_
_atom_site_label
_atom_site_type_symbol
_atom_type_description
_atom_site_fract_x
_atom_site_fract_y
_atom_site_fract_z
_atom_type_partial_charge
C1    C     C_R   0.499985 0.299747 0.480417 0.820016
C2    C     C_R   0.532884 0.870102 0.634719 -0.379640
C3    C     C_R   0.531333 0.137310 0.563087 0.449323
C4    C     C_R   0.474782 0.863705 0.436423 0.496692
C5    C     C_R   0.516545 0.029763 0.555865 -0.162888
C6    C     C_R   0.474330 0.972881 0.452584 -0.184451
C7    C     C_R   0.409441 0.409999 0.024180 0.335973
C8    C     C_R   0.596617 0.580140 0.974519 0.311283
C9    C     C_R   0.416667 0.420187 0.147593 0.581469
C10   C     C_R   0.584074 0.579002 0.852283 0.581553
C11   C     C_R   0.542061 0.532995 0.154540 -0.047153
C12   C     C_R   0.500368 0.700432 0.519995 0.900334
C13   C     C_R   0.458694 0.465453 0.845217 -0.091803
C14   C     C_R   0.534901 0.528543 0.032482 -0.167032
C15   C     C_R   0.466413 0.468661 0.967098 -0.149298
C16   C     C_R   0.328797 0.501243 0.501912 0.913582
C17   C     C_R   0.671205 0.499099 0.498632 0.871249
C18   C     C_R   0.813514 0.596149 0.529448 0.425894
C19   C     C_R   0.185925 0.410119 0.516428 0.389104
C20   C     C_R   0.768136 0.500811 0.497103 -0.274913
C21   C     C_R   0.232282 0.502952 0.510746 -0.298694
C22   C     C_R   0.815434 0.408578 0.471431 0.398452
C23   C     C_R   0.043977 0.319140 0.530350 0.461410
C24   C     C_R   0.189519 0.598682 0.531641 0.430996
C25   C     C_R   0.906898 0.409753 0.501178 -0.103558
C26   C     C_R   0.096017 0.601252 0.542296 -0.107702
C27   C     C_R   0.954051 0.505406 0.529765 -0.156516
C28   C     C_R   0.048007 0.506358 0.535380 -0.165265
C29   C     C_R   0.907645 0.599424 0.544815 -0.120973
C30   C     C_R   0.093339 0.411435 0.528357 -0.123973
C31   C     C_R   0.952079 0.316376 0.505181 0.425042
C32   C     C_R   0.049525 0.695795 0.560019 0.420678
C33   C     C_3   0.751498 0.719628 0.435031 -0.227536
C34   C     C_R   0.956573 0.694081 0.572433 0.394257
C35   C     C_3   0.279331 0.297259 0.593395 -0.204671
C36   C     C_3   0.374513 0.241265 0.955178 -0.387902
C37   C     C_3   0.740502 0.561364 0.033359 -0.353420
C38   C     C_3   0.710168 0.274819 0.432981 -0.210950
C39   C     C_3   0.273489 0.722974 0.649945 -0.273149
C40   C     C_3   0.878368 0.189596 0.581153 -0.231825
C41   C     C_3   0.095895 0.860084 0.648497 -0.187589
C42   C     C_3   0.091468 0.237228 0.678685 -0.332992
C43   C     C_3   0.893139 0.799008 0.717800 -0.276628
C44   C     C_3   0.520703 0.801255 0.257319 -0.201969
C45   C     C_R   0.501885 0.813080 0.529833 -0.237580
C46   C     C_3   0.562857 0.239582 0.742836 -0.162847
C47   C     C_3   0.393131 0.003234 0.168837 -0.307033
C48   C     C_3   0.520686 0.019561 0.842958 -0.409201
C49   C     C_3   0.664505 0.730381 0.841808 -0.249072
C50   C     C_3   0.271861 0.392143 0.189972 -0.226317
C51   C     C_R   0.493775 0.187781 0.473702 -0.246351
C52   C     C_R   0.434905 0.025327 0.366204 0.549707
C53   C     C_R   0.542165 0.976876 0.649088 0.570277
C54   C     C_R   0.442913 0.132872 0.380668 -0.353044
Cu1   Cu    Cu3+1 0.506660 0.507730 0.615930 0.957468
Cu2   Cu    Cu3+1 0.493340 0.492270 0.384070 1.004430
H1    H     H_    0.552843 0.831104 0.706160 0.191842
H2    H     H_    0.264094 0.217866 0.609496 0.191253
H3    H     H_    0.359819 0.211811 0.036368 0.201051
H4    H     H_    0.446479 0.232594 0.939545 0.142821
H5    H     H_    0.336682 0.192118 0.882435 0.176050
H6    H     H_    0.798590 0.601352 0.084319 0.192179
H7    H     H_    0.760521 0.537392 0.942900 0.181258
H8    H     H_    0.723997 0.492158 0.073354 0.175788
H9    H     H_    0.701303 0.296606 0.527707 0.149946
H10   H     H_    0.720710 0.190388 0.414708 0.192033
H11   H     H_    0.649625 0.288656 0.381052 0.171360
H12   H     H_    0.408645 0.174664 0.319089 0.216658
H13   H     H_    0.225385 0.713056 0.716774 0.126559
H14   H     H_    0.291009 0.806439 0.658975 0.177444
H15   H     H_    0.335614 0.683100 0.668524 0.177966
H16   H     H_    0.865069 0.254734 0.651380 0.107937
H17   H     H_    0.926642 0.135563 0.612607 0.186198
H18   H     H_    0.815485 0.144308 0.559811 0.188456
H19   H     H_    0.100958 0.824075 0.728869 0.089207
H20   H     H_    0.038369 0.912175 0.648908 0.198222
H21   H     H_    0.156048 0.909939 0.649551 0.167078
H22   H     H_    0.025974 0.244246 0.717884 0.128931
H23   H     H_    0.407274 0.418420 0.793377 0.189366
H24   H     H_    0.133106 0.304534 0.720734 0.155628
H25   H     H_    0.122619 0.165942 0.700846 0.180703
H26   H     H_    0.954242 0.805342 0.776211 0.113642
H27   H     H_    0.850500 0.734700 0.737297 0.189536
H28   H     H_    0.856057 0.871620 0.738536 0.191474
H29   H     H_    0.499402 0.755946 0.171799 0.184162
H30   H     H_    0.578159 0.761868 0.293766 0.127367
H31   H     H_    0.542555 0.879119 0.241956 0.133842
H32   H     H_    0.489005 0.234407 0.744709 0.126398
H33   H     H_    0.584842 0.321701 0.754701 0.176104
H34   H     H_    0.594354 0.578745 0.206172 0.183697
H35   H     H_    0.593750 0.211162 0.819676 0.189553
H36   H     H_    0.463969 0.023209 0.157760 0.124169
H37   H     H_    0.349722 0.069192 0.157199 0.168215
H38   H     H_    0.373151 0.938572 0.098733 0.186070
H39   H     H_    0.521385 0.940933 0.867361 0.162337
H40   H     H_    0.451525 0.040800 0.818862 0.147809
H41   H     H_    0.544071 0.073779 0.921649 0.181526
H42   H     H_    0.607336 0.769793 0.885281 0.124881
H43   H     H_    0.683365 0.773756 0.772241 0.192536
H44   H     H_    0.724118 0.734424 0.902394 0.197217
H45   H     H_    0.711101 0.662792 0.372219 0.135125
H46   H     H_    0.239748 0.347666 0.109642 0.189589
H47   H     H_    0.264705 0.476828 0.190055 0.147808
H48   H     H_    0.234599 0.372058 0.263000 0.202103
H49   H     H_    0.815805 0.735544 0.397854 0.185742
H50   H     H_    0.714472 0.792909 0.447614 0.174079
H51   H     H_    0.269789 0.352775 0.674197 0.123041
H52   H     H_    0.349886 0.298777 0.576060 0.163292
N1    N     N_R   0.516670 0.519360 0.790130 -0.261004
N2    N     N_R   0.483330 0.480640 0.209870 -0.244441
O1    O     O_R   0.504720 0.354460 0.582000 -0.606800
O2    O     O_3   0.228620 0.316440 0.493729 -0.539293
O3    O     O_3   0.346591 0.344188 0.959112 -0.598943
O4    O     O_3   0.669227 0.630504 0.037077 -0.609300
O5    O     O_3   0.781173 0.326151 0.391316 -0.541422
O6    O     O_3   0.239060 0.689133 0.535068 -0.518770
O7    O     O_3   0.907660 0.221450 0.479014 -0.513408
O8    O     O_3   0.092422 0.787204 0.545564 -0.501639
O9    O     O_3   0.084373 0.230674 0.556245 -0.503178
O10   O     O_3   0.913487 0.786676 0.599606 -0.541007
O11   O     O_3   0.448284 0.806232 0.330037 -0.505278
O12   O     O_R   0.495280 0.645540 0.418000 -0.555433
O13   O     O_3   0.597766 0.186791 0.640352 -0.578503
O14   O     O_3   0.379965 0.970995 0.276856 -0.502927
O15   O     O_3   0.578929 0.028180 0.753628 -0.544116
O16   O     O_3   0.644630 0.627028 0.791159 -0.546533
O17   O     O_3   0.361353 0.363192 0.205971 -0.569790
O18   O     O_R   0.493480 0.341410 0.386200 -0.556932
O19   O     O_R   0.506520 0.658590 0.613800 -0.575054
O20   O     O_R   0.375880 0.506510 0.597910 -0.631145
O21   O     O_R   0.624120 0.493490 0.402090 -0.605101
O22   O     O_R   0.364640 0.493450 0.402110 -0.524690
O23   O     O_R   0.635360 0.506550 0.597890 -0.525323
O24   O     O_3   0.764648 0.685831 0.543648 -0.552469

loop_
_geom_bond_atom_site_label_1
_geom_bond_atom_site_label_2
_ccdc_geom_bond_type
C25   C31   A    
Cu1   Cu2   S    
C13   H23   S    
C26   C32   A    
C16   C21   S    
C48   H39   S    
C17   O21   A    
C43   H27   S    
C47   H36   S    
C1    O18   A    
C36   H3    S    
C37   H6    S    
C2    H1    S    
C46   H33   S    
C19   O2    S    
C50   H48   S    
C49   O16   S    
C9    O17   S    
C35   H2    S    
C33   H45   S    
C5    C53   A    
C19   C21   A    
C24   C26   A    
C41   H21   S    
C42   H24   S    
C11   C14   A    
C42   O9    S    
C27   C29   A    
C48   H40   S    
C44   O11   S    
C17   C20   S    
C40   H17   S    
C10   N1    A    
C31   O7    S    
C13   N1    A    
C35   H52   S    
C48   O15   S    
C33   O24   S    
C47   H38   S    
C38   H10   S    
C3    O13   S    
Cu1   O19   S    
C22   C25   A    
C41   O8    S    
C44   H31   S    
C16   O20   A    
C8    O4    S    
C43   O10   S    
C7    C15   A    
C40   O7    S    
C49   H42   S    
C50   H47   S    
C40   H16   S    
Cu1   N1    S    
C11   N2    A    
C43   H28   S    
C42   H25   S    
C44   H30   S    
C36   O3    S    
Cu2   N2    S    
C37   H7    S    
C52   C54   A    
C46   H32   S    
C4    C45   A    
C2    C45   A    
C34   O10   S    
C12   O19   A    
C23   C30   A    
C33   H49   S    
C4    C6    A    
C49   H43   S    
C3    C51   A    
C46   H35   S    
C36   H4    S    
Cu1   O23   S    
C29   C34   A    
C24   O6    S    
C32   C34   A    
C48   H41   S    
C41   H19   S    
C38   H9    S    
Cu1   O20   S    
C39   H13   S    
C12   O12   A    
C18   C29   A    
C1    C51   S    
Cu2   O22   S    
C53   O15   S    
C22   O5    S    
C20   C22   A    
C50   H46   S    
C13   C15   A    
C17   O23   A    
C46   O13   S    
C44   H29   S    
C37   H8    S    
C9    N2    A    
C7    C9    A    
C8    C14   A    
C47   H37   S    
Cu1   O1    S    
C33   H50   S    
C32   O8    S    
C12   C45   S    
C3    C5    A    
C2    C53   A    
Cu2   O12   S    
C42   H22   S    
C37   O4    S    
C25   C27   A    
C26   C28   A    
C51   C54   A    
C7    O3    S    
C28   C30   A    
C1    O1    A    
C41   H20   S    
C23   O9    S    
C38   O5    S    
C52   O14   S    
C11   H34   S    
C47   O14   S    
C5    C6    A    
C39   H14   S    
C40   H18   S    
C4    O11   S    
C18   O24   S    
C18   C20   A    
Cu2   O18   S    
C16   O22   A    
Cu2   O21   S    
C35   H51   S    
C54   H12   S    
C38   H11   S    
C8    C10   A    
C39   O6    S    
C21   C24   A    
C27   C28   A    
C43   H26   S    
C39   H15   S    
C14   C15   A    
C50   O17   S    
C6    C52   A    
C10   O16   S    
C19   C30   A    
C35   O2    S    
C36   H5    S    
C23   C31   A    
C49   H44   S    
