data_mof_unit_22596.cif
_audit_creation_date              2013-03-05T15:52:32-0500
_audit_creation_method            fapswitch 2.2
_symmetry_space_group_name_H-M    P1
_symmetry_Int_Tables_number       1
_space_group_crystal_system       triclinic
_cell_length_a                    6.982318
_cell_length_b                    20.463927
_cell_length_c                    24.416224
_cell_angle_alpha                 89.993932
_cell_angle_beta                  89.702475
_cell_angle_gamma                 89.120281
_cell_volume                      3488.26968564

loop_
_atom_site_label
_atom_site_type_symbol
_atom_site_description
_atom_site_fract_x
_atom_site_fract_y
_atom_site_fract_z
_atom_type_partial_charge
O1    O     O_R   0.507310 0.423620 0.460450 -0.590352
O2    O     O_R   0.170760 0.556060 0.437190 -0.583326
O3    O     O_R   0.004040 0.576380 0.539550 -0.577299
C1    C     C_R   0.339397 0.576292 0.421586 0.958204
O4    O     O_R   0.177350 0.422870 0.454070 -0.606542
O5    O     O_R   0.010680 0.442240 0.556560 -0.575246
C2    C     C_R   0.347242 0.398220 0.444295 0.998689
O6    O     O_R   0.500670 0.557760 0.443440 -0.587198
O7    O     O_3   0.340380 0.506510 0.533610 -0.268498
V1    V     V_3+5 0.064130 0.498790 0.493770 1.196249
O8    O     O_R   0.681170 0.443940 0.562810 -0.576387
C3    C     C_R   0.850061 0.424249 0.578837 0.948314
O9    O     O_R   0.674570 0.577130 0.545930 -0.612748
C4    C     C_R   0.840957 0.601061 0.557037 1.034322
V2    V     V_3+5 0.564560 0.501210 0.506230 1.186886
O10   O     O_3   0.838170 0.493490 0.466390 -0.277268
C5    C     C_R   0.987997 0.833515 0.913800 -0.357780
C6    C     C_R   0.834740 0.661110 0.591313 -0.331917
C7    C     C_R   0.167740 0.731919 0.897443 0.439060
C8    C     C_R   0.138421 0.789977 0.926729 -0.178843
C9    C     C_R   0.864791 0.816468 0.869765 0.385718
C10   C     C_R   0.937323 0.771347 0.829450 -0.028777
C11   C     C_R   0.069993 0.723102 0.847451 -0.087960
C12   C     C_R   0.878465 0.770827 0.772908 -0.030775
C13   C     C_R   0.918477 0.714059 0.739526 -0.138727
C14   C     C_R   0.000582 0.658812 0.766445 0.560145
C15   C     C_R   0.095520 0.666448 0.816051 -0.294702
C16   C     C_R   0.789359 0.826559 0.748831 0.604798
C17   C     C_R   0.720811 0.822278 0.695022 -0.307926
C18   C     C_R   0.753326 0.767096 0.662205 -0.076130
C19   C     C_R   0.867858 0.714130 0.682038 -0.088329
C20   C     C_R   0.673467 0.764788 0.609065 0.408434
C21   C     C_R   0.707021 0.710620 0.575852 -0.371532
C22   C     C_R   0.927553 0.665066 0.642479 0.513349
H1    H     H_    0.179314 0.625412 0.830945 0.199125
H2    H     H_    0.634329 0.707528 0.536842 0.169619
H3    H     H_    0.647016 0.863833 0.677588 0.172066
H4    H     H_    0.227005 0.799397 0.962110 0.195217
C23   C     C_3   0.760630 0.253890 0.801015 0.437780
C24   C     C_3   0.117316 0.249926 0.784497 -0.584297
C25   C     C_3   0.086545 0.302871 0.738865 0.146762
H5    H     H_    0.729532 0.353467 0.766714 0.188933
H6    H     H_    0.245141 0.218552 0.775507 0.222117
H7    H     H_    0.148083 0.274859 0.823774 0.213971
H8    H     H_    0.076873 0.351277 0.759791 0.121794
C26   C     C_1   0.859722 0.379231 0.624780 -0.235114
C27   C     C_3   0.935692 0.206868 0.790267 0.055787
C28   C     C_3   0.732674 0.301979 0.751999 -0.496792
C29   C     C_3   0.892891 0.292646 0.708388 0.004547
C30   C     C_3   0.881293 0.221267 0.686078 0.318154
C31   C     C_3   0.914522 0.171097 0.733937 0.040075
C32   C     C_1   0.870994 0.340863 0.662722 0.149448
C33   C     C_1   0.954805 0.158659 0.836272 0.087609
C34   C     C_1   0.964350 0.120229 0.874397 -0.283806
H9    H     H_    0.054993 0.146346 0.725320 0.114711
H10   H     H_    0.630293 0.223410 0.804944 0.072039
H11   H     H_    0.591812 0.293315 0.733522 0.262379
H12   H     H_    0.000544 0.214807 0.655940 0.056267
C35   C     C_3   0.610078 0.704695 0.268805 0.040386
C36   C     C_3   0.257345 0.697577 0.247283 -0.378433
C37   C     C_3   0.278662 0.748878 0.201149 -0.371961
H13   H     H_    0.108511 0.699537 0.263649 0.227391
H14   H     H_    0.271823 0.647937 0.229848 0.246751
H15   H     H_    0.293430 0.723068 0.161496 0.255378
H16   H     H_    0.144458 0.776859 0.197200 0.269664
C38   C     C_1   0.473757 0.879649 0.124980 -0.160913
C39   C     C_3   0.403025 0.709748 0.294005 -0.140731
C40   C     C_3   0.637133 0.754054 0.218202 0.387227
C41   C     C_3   0.445362 0.797104 0.212080 -0.269558
C42   C     C_3   0.395019 0.835946 0.268529 0.376058
C43   C     C_3   0.360654 0.781553 0.314764 0.206447
C44   C     C_1   0.460598 0.842650 0.163870 0.361691
C45   C     C_1   0.372023 0.661059 0.338949 0.143669
C46   C     C_1   0.351954 0.622180 0.376243 -0.267753
H17   H     H_    0.202734 0.780343 0.319811 0.193605
H18   H     H_    0.707317 0.718244 0.301760 0.092083
C47   C     C_R   0.463625 0.162644 0.088386 -0.277886
C48   C     C_R   0.358368 0.336692 0.412594 -0.332240
C49   C     C_R   0.405793 0.279481 0.091879 -0.295329
C50   C     C_R   0.421095 0.221686 0.061691 0.527052
C51   C     C_R   0.481185 0.161875 0.145825 -0.292926
C52   C     C_R   0.449000 0.219595 0.177691 0.166888
C53   C     C_R   0.411923 0.278572 0.149180 0.076125
C54   C     C_R   0.441918 0.220382 0.236447 -0.056353
C55   C     C_R   0.400953 0.280242 0.265282 -0.069568
C56   C     C_R   0.349918 0.337024 0.234740 0.529898
C57   C     C_R   0.363416 0.335614 0.177441 -0.349141
C58   C     C_R   0.459774 0.162306 0.267191 -0.305632
C59   C     C_R   0.420540 0.160852 0.323182 0.592516
C60   C     C_R   0.394090 0.219522 0.352294 -0.108788
C61   C     C_R   0.396879 0.280017 0.324111 0.108013
C62   C     C_R   0.362105 0.218529 0.409196 -0.273664
C63   C     C_R   0.326320 0.276335 0.438200 0.583476
C64   C     C_R   0.398570 0.337942 0.356193 -0.177062
H19   H     H_    0.318752 0.377945 0.153957 0.151705
H20   H     H_    0.434237 0.384287 0.338251 0.156899
H21   H     H_    0.377111 0.324847 0.070230 0.154271
H22   H     H_    0.513321 0.115127 0.164135 0.143848
H23   H     H_    0.490418 0.115669 0.248508 0.177851
H24   H     H_    0.355095 0.172696 0.431250 0.182827
O11   O     O_R   0.323590 0.942280 0.056590 -0.584098
O12   O     O_R   0.647030 0.077140 0.045940 -0.597632
O13   O     O_R   0.813570 0.057750 0.943430 -0.592383
C65   C     C_R   0.476917 0.101258 0.056467 1.005560
O14   O     O_R   0.653510 0.943950 0.062820 -0.565604
O15   O     O_R   0.820100 0.923600 0.960440 -0.548532
C66   C     C_R   0.484917 0.924057 0.078640 0.976830
O16   O     O_R   0.317060 0.076430 0.039590 -0.604998
O17   O     O_3   0.483830 0.993520 0.966410 -0.262787
V3    V     V_3+5 0.760140 0.001200 0.006230 1.230767
O18   O     O_R   0.149560 0.922820 0.954030 -0.581729
C67   C     C_R   0.982638 0.897438 0.944119 1.014904
O19   O     O_R   0.143080 0.056020 0.937150 -0.591574
C68   C     C_R   0.974063 0.075487 0.920820 0.952005
V4    V     V_3+5 0.259690 0.998730 0.993720 1.218569
O20   O     O_3   0.986120 0.006480 0.033580 -0.274230
N1    N     N_R   0.548569 0.815622 0.589150 0.222262
O21   O     O_R   0.375111 0.801763 0.574369 -0.427030
O22   O     O_R   0.617793 0.872428 0.576716 -0.380902
O23   O     O_3   0.793820 0.290432 0.849437 -0.632828
C69   C     C_3   0.622007 0.300989 0.879052 0.190152
H25   H     H_    0.573428 0.254089 0.896995 0.147535
H26   H     H_    0.507653 0.322076 0.852387 0.101100
C70   C     C_3   0.657979 0.348644 0.925550 -0.756695
H27   H     H_    0.709291 0.395739 0.908791 0.252610
H28   H     H_    0.523371 0.357771 0.948900 0.218885
H29   H     H_    0.767294 0.328122 0.953871 0.243913
N2    N     N_R   0.248492 0.305193 0.700540 0.226829
O24   O     O_R   0.312847 0.252537 0.676509 -0.398192
O25   O     O_R   0.323711 0.361157 0.688238 -0.418784
N3    N     N_R   0.770369 0.119568 0.735166 0.249325
O26   O     O_R   0.590114 0.132760 0.744292 -0.399281
O27   O     O_R   0.821690 0.060086 0.722535 -0.427612
O28   O     O_3   0.700439 0.212382 0.660785 -0.548645
C71   C     C_3   0.719443 0.173799 0.613027 0.312559
H30   H     H_    0.785677 0.125293 0.622472 0.129245
H31   H     H_    0.808966 0.199308 0.582346 0.061477
C72   C     C_3   0.523102 0.163117 0.588216 -0.689019
H32   H     H_    0.456089 0.210864 0.577231 0.283147
H33   H     H_    0.537614 0.132963 0.550568 0.185414
H34   H     H_    0.429462 0.137505 0.617969 0.268579
O29   O     O_3   0.071192 0.619710 0.652578 -0.596761
C73   C     C_3   0.250499 0.650020 0.647860 0.329140
H35   H     H_    0.259424 0.694355 0.674178 0.087504
H36   H     H_    0.279070 0.663719 0.604473 0.117711
C74   C     C_3   0.404515 0.601772 0.666370 -0.810734
H37   H     H_    0.408486 0.558492 0.638961 0.271057
H38   H     H_    0.545897 0.625377 0.665448 0.188357
H39   H     H_    0.374484 0.585490 0.708900 0.262675
N4    N     N_R   0.687753 0.716580 0.167868 0.274001
O30   O     O_R   0.851120 0.685021 0.166101 -0.330761
O31   O     O_R   0.597564 0.724977 0.121843 -0.369839
N5    N     N_R   0.665011 0.636370 0.256032 0.271655
O32   O     O_R   0.803015 0.608117 0.283268 -0.415890
O33   O     O_R   0.579519 0.603168 0.218119 -0.372875
O34   O     O_3   0.411189 0.798750 0.369528 -0.571766
C75   C     C_3   0.600043 0.782839 0.385638 0.261290
H40   H     H_    0.706929 0.803578 0.357412 0.180449
H41   H     H_    0.621443 0.729339 0.389871 0.076582
C76   C     C_3   0.634934 0.812308 0.441781 -0.640168
H42   H     H_    0.527408 0.793862 0.471344 0.257424
H43   H     H_    0.780557 0.798446 0.456242 0.193137
H44   H     H_    0.622664 0.866425 0.439822 0.286821
N6    N     N_R   0.545371 0.882717 0.283954 0.253315
O35   O     O_R   0.539400 0.908653 0.332611 -0.323652
O36   O     O_R   0.622200 0.918435 0.245886 -0.336850
N7    N     N_R   0.796925 0.798946 0.226967 0.222726
O37   O     O_R   0.852447 0.836279 0.186869 -0.335830
O38   O     O_R   0.888233 0.801678 0.273022 -0.459362
N8    N     N_R   0.217003 0.875747 0.263456 0.261155
O39   O     O_R   0.178499 0.907163 0.218423 -0.365931
O40   O     O_R   0.132023 0.896252 0.308022 -0.313655
O41   O     O_3   0.270618 0.272714 0.492540 -0.662898
C77   C     C_3   0.067888 0.277005 0.496084 0.293276
H45   H     H_    0.006969 0.318068 0.471544 0.106574
H46   H     H_    0.029343 0.287219 0.539441 0.125917
C78   C     C_3   0.971913 0.213316 0.479386 -1.021314
H47   H     H_    0.034890 0.171490 0.502426 0.273016
H48   H     H_    0.815886 0.216940 0.488075 0.242617
H49   H     H_    0.988417 0.204583 0.434783 0.256270
O42   O     O_3   0.417986 0.100859 0.349393 -0.622604
C79   C     C_3   0.226530 0.079250 0.353686 0.211476
H50   H     H_    0.125448 0.118293 0.368186 0.073547
H51   H     H_    0.223318 0.039933 0.385011 0.185835
C80   C     C_3   0.155587 0.050770 0.299734 -0.702792
H52   H     H_    0.265043 0.016605 0.282435 0.302086
H53   H     H_    0.020262 0.024233 0.306941 0.270242
H54   H     H_    0.125949 0.090345 0.269728 0.199992
O43   O     O_3   0.396748 0.223445 0.005631 -0.651477
C81   C     C_3   0.198531 0.228804 0.994672 0.249682
H55   H     H_    0.124543 0.267095 0.019896 0.095990
H56   H     H_    0.128637 0.181138 0.002193 0.118614
C82   C     C_3   0.170702 0.247371 0.935236 -0.920428
H57   H     H_    0.248217 0.211974 0.908382 0.253985
H58   H     H_    0.015953 0.246783 0.925671 0.261123
H59   H     H_    0.224803 0.297276 0.927669 0.251998
O44   O     O_3   0.243450 0.386616 0.259978 -0.640148
C83   C     C_3   0.311280 0.449222 0.246084 0.214227
H60   H     H_    0.261084 0.464069 0.204770 0.143569
H61   H     H_    0.470662 0.451156 0.247871 0.124133
C84   C     C_3   0.228382 0.498557 0.286601 -0.724079
H62   H     H_    0.275256 0.486574 0.328804 0.200443
H63   H     H_    0.278396 0.547988 0.275961 0.227211
H64   H     H_    0.069459 0.498366 0.285121 0.279420
N9    N     N_R   0.302595 0.684259 0.917913 0.237030
O45   O     O_R   0.465924 0.703032 0.937373 -0.320733
O46   O     O_R   0.247032 0.625035 0.927945 -0.385064
N10   N     N_R   0.659424 0.827461 0.873947 0.244862
O47   O     O_R   0.582970 0.847698 0.919628 -0.378701
O48   O     O_R   0.545621 0.799666 0.839230 -0.437845
O49   O     O_3   0.983572 0.596067 0.746583 -0.590399
C85   C     C_3   0.811015 0.569690 0.766398 0.282831
H65   H     H_    0.686388 0.602985 0.758505 0.086447
H66   H     H_    0.821289 0.560262 0.811210 0.119235
C86   C     C_3   0.775564 0.505197 0.737417 -0.827298
H67   H     H_    0.895274 0.470220 0.745553 0.251433
H68   H     H_    0.639839 0.483857 0.752485 0.217257
H69   H     H_    0.764590 0.513325 0.692546 0.253416
O50   O     O_3   0.790779 0.886084 0.777027 -0.656576
C87   C     C_3   0.624906 0.925304 0.768043 0.266551
H70   H     H_    0.492085 0.895802 0.767393 0.120305
H71   H     H_    0.638977 0.952280 0.728831 0.169855
C88   C     C_3   0.604782 0.975772 0.813708 -0.689360
H72   H     H_    0.740332 0.002793 0.818532 0.252685
H73   H     H_    0.487630 0.011073 0.803810 0.221293
H74   H     H_    0.569718 0.951753 0.853074 0.249156

loop_
_geom_bond_atom_site_label_1
_geom_bond_atom_site_label_2
_geom_bond_distance
_ccdc_geom_bond_type
C13   C19   1.449217 A    
C24   C27   1.561050 S    
C49   C53   1.400064 A    
O14   V3    1.962591 S    
O11   C66   1.300437 A    
C81   H55   1.115588 S    
C73   H36   1.113577 S    
C71   C72   1.520536 S    
C45   C46   1.218078 T    
C4    C6    1.486795 S    
C53   C57   1.392484 A    
O18   C67   1.307021 A    
C65   O16   1.302315 A    
C38   C66   1.453656 S    
C1    O6    1.299862 A    
N2    O24   1.299929 A    
C21   H2    1.083915 S    
C64   H20   1.076761 S    
C87   H71   1.109761 S    
C51   C52   1.428747 A    
C55   C61   1.436527 A    
C88   H74   1.107468 S    
C71   H30   1.113242 S    
N7    O38   1.297144 A    
O15   C67   1.307709 A    
C55   C56   1.422372 A    
O14   C66   1.307906 A    
C14   C15   1.393690 A    
C75   H40   1.102899 S    
C9    N10   1.451139 S    
C36   H14   1.104459 S    
O16   V4    1.991896 S    
C23   C27   1.565090 S    
C16   C17   1.403827 A    
O19   C68   1.304147 A    
C41   C42   1.625291 S    
C86   H68   1.110491 S    
O5    C3    1.302095 A    
C18   C19   1.423427 A    
C80   H53   1.110265 S    
N8    O39   1.300843 A    
C48   C63   1.404766 A    
C23   O23   1.420938 S    
C26   C32   1.216380 T    
C5    C8    1.404016 A    
C36   H13   1.111598 S    
C50   O43   1.380558 S    
C29   C30   1.562430 S    
C77   H45   1.112486 S    
C69   C70   1.521104 S    
C81   C82   1.512843 S    
C35   C39   1.570207 S    
C9    C10   1.434790 A    
C79   H50   1.114440 S    
O8    V2    1.981651 S    
C24   H6    1.112378 S    
C38   C44   1.218370 T    
C7    C8    1.398554 A    
C36   C39   1.554991 S    
C40   C41   1.599135 S    
C82   H58   1.106885 S    
C57   H19   1.081627 S    
N1    O22   1.301072 A    
C83   H60   1.110403 S    
C39   C45   1.499234 S    
C11   C15   1.398602 A    
N5    O33   1.301242 A    
O7    V1    2.172690 S    
C20   N1    1.433722 S    
C31   H9    1.115989 S    
C82   H57   1.109916 S    
C27   C33   1.500036 S    
C58   C59   1.393276 A    
C78   H49   1.108754 S    
C10   C12   1.442546 A    
O13   V3    1.958685 S    
C75   H41   1.107598 S    
O41   C77   1.419095 S    
O9    C4    1.297627 A    
C84   H63   1.105691 S    
C25   N2    1.465330 S    
O43   C81   1.413616 S    
C58   H23   1.075880 S    
C25   C29   1.563662 S    
C87   H70   1.114522 S    
C22   O29   1.379150 S    
C74   H38   1.105791 S    
N9    O46   1.301060 A    
C35   N5    1.477049 S    
O29   C73   1.409878 S    
V2    O10   2.142988 S    
C30   H12   1.114699 S    
C76   H44   1.110480 S    
C54   C58   1.409861 A    
C28   H11   1.101049 S    
O13   C68   1.303185 A    
C12   C13   1.442148 A    
C88   H72   1.110243 S    
C3    C26   1.452672 S    
C30   O28   1.422757 S    
C86   H69   1.110985 S    
C59   C60   1.404587 A    
N7    O37   1.302871 A    
O4    C2    1.302799 A    
C31   N3    1.469081 S    
C56   C57   1.401979 A    
N10   O47   1.299077 A    
C80   H54   1.109835 S    
C27   C31   1.566832 S    
C15   H1    1.080183 S    
C13   C14   1.422220 A    
C33   C34   1.219970 T    
C5    C9    1.427119 A    
C42   N6    1.481565 S    
C36   C37   1.547857 S    
C79   C80   1.528434 S    
C76   H43   1.110784 S    
O42   C79   1.417837 S    
C37   H15   1.106532 S    
O2    C1    1.308931 A    
C86   H67   1.110750 S    
C17   C18   1.399719 A    
C18   C20   1.415956 A    
C37   H16   1.095300 S    
C35   C40   1.608019 S    
C74   H39   1.110442 S    
C8    H4    1.084089 S    
C60   C62   1.406202 A    
O49   C85   1.411017 S    
C85   C86   1.521790 S    
C47   C51   1.408490 A    
C29   C32   1.495684 S    
C83   C84   1.519624 S    
C30   C31   1.571176 S    
C19   C22   1.448429 A    
C23   H10   1.114881 S    
H5    C28   1.113113 S    
C54   C55   1.437134 A    
O12   C65   1.303589 A    
C6    C22   1.413245 A    
C77   C78   1.530921 S    
C69   H25   1.111970 S    
C14   O49   1.379641 S    
O3    C4    1.308192 A    
C72   H33   1.110516 S    
C2    C48   1.478880 S    
O1    V2    1.988670 S    
C24   C25   1.567320 S    
C85   H66   1.113490 S    
C78   H47   1.110572 S    
C16   O50   1.399448 S    
C52   C54   1.435271 A    
C70   H29   1.110271 S    
O9    V2    1.997008 S    
O11   V4    1.969980 S    
C84   H64   1.110497 S    
N4    O31   1.301112 A    
O12   V3    1.983301 S    
C73   C74   1.519180 S    
N3    O26   1.301252 A    
O2    V1    1.962666 S    
C5    C67   1.502978 S    
V3    O20   1.721470 S    
O50   C87   1.416949 S    
C41   C44   1.505691 S    
O23   C69   1.411303 S    
C62   H24   1.083087 S    
C70   H28   1.110121 S    
C74   H37   1.110075 S    
O15   V3    1.980427 S    
C47   C50   1.401299 A    
C37   C41   1.561579 S    
C71   H31   1.108821 S    
N9    O45   1.301154 A    
N6    O35   1.301454 A    
C81   H56   1.112213 S    
O1    C2    1.302821 A    
C1    C46   1.454819 S    
C49   H21   1.084736 S    
C12   C16   1.419604 A    
N3    O27   1.300276 A    
C72   H34   1.111486 S    
N2    O25   1.301685 A    
O5    V1    1.958519 S    
C83   H61   1.115243 S    
O8    C3    1.302420 A    
C88   H73   1.110518 S    
O28   C71   1.412820 S    
C75   C76   1.519953 S    
O6    V2    1.969632 S    
C80   H52   1.109770 S    
N4    O30   1.302678 A    
C84   H62   1.109087 S    
C20   C21   1.389769 A    
N6    O36   1.301032 A    
C42   N8    1.481279 S    
O4    V1    1.983162 S    
O3    V1    1.980301 S    
V1    O10   1.721663 S    
N1    O21   1.301021 A    
C76   H42   1.109134 S    
C61   C64   1.421121 A    
C43   H17   1.109536 S    
C60   C61   1.416634 A    
N8    O40   1.303038 A    
C48   C64   1.404304 A    
C28   C29   1.550129 S    
C43   O34   1.430052 S    
C34   C68   1.458205 S    
C63   O41   1.382969 S    
C62   C63   1.397334 A    
C77   H46   1.110029 S    
C78   H48   1.110170 S    
C39   C43   1.577613 S    
O7    V2    1.700814 S    
O44   C83   1.413380 S    
C6    C21   1.392820 A    
C79   H51   1.110445 S    
C69   H26   1.114624 S    
C42   C43   1.605012 S    
C40   N4    1.486837 S    
C72   H32   1.110326 S    
O17   V4    1.699803 S    
C56   O44   1.390841 S    
C49   C50   1.396074 A    
C40   N7    1.472611 S    
C82   H59   1.109450 S    
C7    C11   1.414492 A    
C24   H7    1.109855 S    
O34   C75   1.411285 S    
C85   H65   1.114499 S    
N10   O48   1.301709 A    
C52   C53   1.414339 A    
C51   H22   1.076912 S    
C17   H3    1.076372 S    
C7    N9    1.436742 S    
C25   H8    1.115586 S    
C10   C11   1.414942 A    
C23   C28   1.560480 S    
C47   C65   1.479828 S    
O18   V4    1.997060 S    
V4    O20   2.142998 S    
N5    O32   1.301716 A    
O17   V3    2.172774 S    
C35   H18   1.093980 S    
C87   C88   1.524368 S    
C73   H35   1.114551 S    
C59   O42   1.384738 S    
C70   H27   1.110668 S    
O19   V4    1.981720 S    
