data_mof_unit_61756.cif
_audit_creation_date              2013-03-05T16:01:06-0500
_audit_creation_method            fapswitch 2.2
_symmetry_space_group_name_H-M    P1
_symmetry_Int_Tables_number       1
_space_group_crystal_system       triclinic
_cell_length_a                    18.327731
_cell_length_b                    18.342979
_cell_length_c                    25.81821
_cell_angle_alpha                 89.994339
_cell_angle_beta                  89.9999
_cell_angle_gamma                 89.999953
_cell_volume                      8679.69965898

loop_
_atom_site_label
_atom_site_type_symbol
_atom_site_description
_atom_site_fract_x
_atom_site_fract_y
_atom_site_fract_z
_atom_type_partial_charge
Zn1   Zn    Zn3+2 0.086750 0.999990 0.706190 0.953031
Zn2   Zn    Zn3+2 0.913250 0.999990 0.706190 0.971062
Zn3   Zn    Zn3+2 0.913250 0.999990 0.293810 0.971150
Zn4   Zn    Zn3+2 0.086750 0.999990 0.293810 0.953073
Zn5   Zn    Zn3+2 0.586750 0.499990 0.206190 0.970772
Zn6   Zn    Zn3+2 0.413250 0.499990 0.206190 0.953075
Zn7   Zn    Zn3+2 0.413250 0.499990 0.793810 0.953056
Zn8   Zn    Zn3+2 0.586750 0.499990 0.793810 0.971378
Zn9   Zn    Zn3+2 0.000000 0.086770 0.793750 0.976858
Zn10  Zn    Zn3+2 0.000000 0.086770 0.206250 0.976943
Zn11  Zn    Zn3+2 0.500000 0.586770 0.293750 0.976518
Zn12  Zn    Zn3+2 0.500000 0.586770 0.706250 0.977204
Zn13  Zn    Zn3+2 1.000000 0.913230 0.793740 1.026096
Zn14  Zn    Zn3+2 1.000000 0.913230 0.206260 1.025854
Zn15  Zn    Zn3+2 0.500000 0.413230 0.293740 1.027023
Zn16  Zn    Zn3+2 0.500000 0.413230 0.706260 1.024866
O1    O     O_3   1.000000 1.000000 0.749970 -0.484814
O2    O     O_3   0.000000 0.000000 0.250030 -0.484783
O3    O     O_3   0.500000 0.500000 0.249970 -0.484995
O4    O     O_3   0.500000 0.500000 0.750030 -0.484594
O5    O     O_R   0.853810 0.085480 0.719360 -0.646487
O6    O     O_R   0.146190 0.085480 0.719360 -0.649322
O7    O     O_R   0.146190 0.085480 0.280640 -0.649295
O8    O     O_R   0.853810 0.085480 0.280640 -0.646462
O9    O     O_R   0.353810 0.585480 0.219360 -0.649303
O10   O     O_R   0.646190 0.585480 0.219360 -0.646508
O11   O     O_R   0.646190 0.585480 0.780640 -0.646447
O12   O     O_R   0.353810 0.585480 0.780640 -0.649308
O13   O     O_R   0.146170 0.914530 0.719320 -0.651373
O14   O     O_R   0.853830 0.914530 0.719320 -0.652877
O15   O     O_R   0.853830 0.914530 0.280680 -0.652861
O16   O     O_R   0.146170 0.914530 0.280680 -0.651352
O17   O     O_R   0.646170 0.414530 0.219320 -0.652906
O18   O     O_R   0.353830 0.414530 0.219320 -0.651418
O19   O     O_R   0.353830 0.414530 0.780680 -0.651305
O20   O     O_R   0.646170 0.414530 0.780680 -0.652825
O21   O     O_R   0.085450 0.146180 0.780600 -0.651949
O22   O     O_R   0.914550 0.146180 0.780600 -0.645539
O23   O     O_R   0.914550 0.146180 0.219400 -0.645545
O24   O     O_R   0.085450 0.146180 0.219400 -0.651976
O25   O     O_R   0.585450 0.646180 0.280600 -0.645586
O26   O     O_R   0.414550 0.646180 0.280600 -0.651880
O27   O     O_R   0.414550 0.646180 0.719400 -0.652026
O28   O     O_R   0.585450 0.646180 0.719400 -0.645517
O29   O     O_R   0.914560 0.853830 0.780620 -0.623042
O30   O     O_R   0.085440 0.853830 0.780620 -0.648022
O31   O     O_R   0.085440 0.853830 0.219380 -0.648125
O32   O     O_R   0.914560 0.853830 0.219380 -0.623080
O33   O     O_R   0.414560 0.353830 0.280620 -0.647526
O34   O     O_R   0.585440 0.353830 0.280620 -0.622875
O35   O     O_R   0.585440 0.353830 0.719380 -0.623283
O36   O     O_R   0.414560 0.353830 0.719380 -0.648549
O37   O     O_R   0.000000 0.060730 0.866830 -0.652363
O38   O     O_R   0.000000 0.060730 0.133170 -0.652370
O39   O     O_R   0.500000 0.560730 0.366830 -0.652413
O40   O     O_R   0.500000 0.560730 0.633170 -0.652310
O41   O     O_R   0.939250 0.000010 0.633130 -0.648009
O42   O     O_R   0.060750 0.000010 0.633130 -0.650765
O43   O     O_R   0.060750 0.000010 0.366870 -0.650756
O44   O     O_R   0.939250 0.000010 0.366870 -0.648018
O45   O     O_R   0.439250 0.500010 0.133130 -0.650758
O46   O     O_R   0.560750 0.500010 0.133130 -0.647967
O47   O     O_R   0.560750 0.500010 0.866870 -0.648051
O48   O     O_R   0.439250 0.500010 0.866870 -0.650763
O49   O     O_R   0.000000 0.939270 0.866820 -0.600020
O50   O     O_R   0.000000 0.939270 0.133180 -0.600302
O51   O     O_R   0.500000 0.439270 0.366820 -0.598744
O52   O     O_R   0.500000 0.439270 0.633180 -0.601515
C1    C     C_R   0.859880 0.140144 0.749963 0.798851
C2    C     C_R   0.140130 0.140131 0.749977 0.783907
C3    C     C_R   0.140130 0.140133 0.250022 0.783975
C4    C     C_R   0.859880 0.140146 0.250036 0.798956
C5    C     C_R   0.359870 0.640131 0.249977 0.783992
C6    C     C_R   0.640120 0.640144 0.249962 0.798691
C7    C     C_R   0.640120 0.640146 0.750036 0.799062
C8    C     C_R   0.359870 0.640133 0.750022 0.783910
C9    C     C_R   0.140105 0.859880 0.749963 0.777448
C10   C     C_R   0.859869 0.859910 0.749995 0.806043
C11   C     C_R   0.859868 0.859912 0.250006 0.806158
C12   C     C_R   0.140105 0.859882 0.250038 0.777420
C13   C     C_R   0.640131 0.359910 0.249994 0.805349
C14   C     C_R   0.359895 0.359880 0.249963 0.777413
C15   C     C_R   0.359894 0.359882 0.750038 0.777476
C16   C     C_R   0.640132 0.359912 0.750006 0.806724
C17   C     C_R   0.998758 0.999934 0.890836 0.868841
C18   C     C_R   0.998742 0.999942 0.109165 0.869268
C19   C     C_R   0.501195 0.499921 0.390839 0.866783
C20   C     C_R   0.501315 0.499954 0.609169 0.870915
C21   C     C_R   0.000096 0.000019 0.608644 0.745778
C22   C     C_R   0.000096 0.000019 0.391356 0.745762
C23   C     C_R   0.499904 0.500019 0.108644 0.745813
C24   C     C_R   0.499904 0.500019 0.891356 0.745730
C25   C     C_3   0.960967 0.931278 0.529953 -0.393838
C26   C     C_3   0.079840 0.000047 0.529739 -0.381686
C27   C     C_3   0.079840 0.000047 0.470261 -0.381665
C28   C     C_3   0.960966 0.931278 0.470057 -0.393844
C29   C     C_3   0.420160 0.500047 0.029739 -0.381680
C30   C     C_3   0.539034 0.431278 0.029953 -0.393832
C31   C     C_3   0.539034 0.431278 0.970057 -0.393848
C32   C     C_3   0.420160 0.500047 0.970261 -0.381668
H1    H     H_    0.903678 0.929796 0.544214 0.183185
H2    H     H_    0.109648 0.049026 0.543926 0.179209
H3    H     H_    0.109648 0.049026 0.456067 0.179228
H4    H     H_    0.903678 0.929796 0.455796 0.183186
H5    H     H_    0.390351 0.549025 0.043926 0.179220
H6    H     H_    0.596322 0.429796 0.044213 0.183194
H7    H     H_    0.596322 0.429796 0.955796 0.183181
H8    H     H_    0.390351 0.549026 0.956068 0.179219
H9    H     H_    0.988644 0.881243 0.544401 0.156223
H10   H     H_    0.109677 0.951085 0.543932 0.177457
H11   H     H_    0.109677 0.951085 0.456075 0.177461
H12   H     H_    0.988644 0.881243 0.455616 0.156221
H13   H     H_    0.390323 0.451084 0.043932 0.177459
H14   H     H_    0.511357 0.381242 0.044401 0.156225
H15   H     H_    0.511357 0.381243 0.955616 0.156216
H16   H     H_    0.390323 0.451084 0.956075 0.177458
H17   H     H_    0.903638 0.070199 0.544204 0.187394
H18   H     H_    0.988576 0.118800 0.544385 0.159512
H19   H     H_    0.988576 0.118800 0.455598 0.159516
H20   H     H_    0.903638 0.070199 0.455786 0.187394
H21   H     H_    0.511423 0.618800 0.044385 0.159511
H22   H     H_    0.596362 0.570199 0.044204 0.187393
H23   H     H_    0.596361 0.570199 0.955786 0.187383
H24   H     H_    0.511423 0.618800 0.955598 0.159502
C33   C     C_3   0.960927 0.068749 0.529944 -0.388349
C34   C     C_3   0.960927 0.068749 0.470047 -0.388348
C35   C     C_3   0.539072 0.568749 0.029943 -0.388348
C36   C     C_3   0.539072 0.568749 0.970047 -0.388372
C37   C     C_3   0.000439 0.000024 0.550885 0.190666
C38   C     C_3   0.000439 0.000024 0.449115 0.190664
C39   C     C_3   0.499561 0.500024 0.050885 0.190652
C40   C     C_3   0.499561 0.500024 0.949115 0.190692
C41   C     C_R   0.190305 0.743846 0.783433 -0.185132
C42   C     C_R   0.809098 0.744458 0.784042 -0.150191
C43   C     C_R   0.809101 0.744466 0.215961 -0.150185
C44   C     C_R   0.190302 0.743854 0.216570 -0.185144
C45   C     C_R   0.690902 0.244458 0.284043 -0.150151
C46   C     C_R   0.309694 0.243848 0.283434 -0.184916
C47   C     C_R   0.309699 0.243853 0.716572 -0.185357
C48   C     C_R   0.690899 0.244465 0.715962 -0.150235
H25   H     H_    0.144452 0.738215 0.809596 0.169923
H26   H     H_    0.854523 0.739264 0.810627 0.182713
H27   H     H_    0.854527 0.739278 0.189378 0.182627
H28   H     H_    0.144447 0.738229 0.190409 0.169858
H29   H     H_    0.645478 0.239266 0.310628 0.183154
H30   H     H_    0.355545 0.238218 0.309599 0.170244
H31   H     H_    0.355555 0.238227 0.690411 0.169543
H32   H     H_    0.645471 0.239277 0.689380 0.182160
C49   C     C_R   0.744345 0.190976 0.284041 -0.182126
C50   C     C_R   0.256231 0.190390 0.283456 -0.190040
C51   C     C_R   0.256237 0.190394 0.716549 -0.190053
C52   C     C_R   0.744341 0.190982 0.715963 -0.182038
C53   C     C_R   0.243768 0.690389 0.783455 -0.190034
C54   C     C_R   0.755655 0.690976 0.784040 -0.182080
C55   C     C_R   0.755659 0.690983 0.215962 -0.182117
C56   C     C_R   0.243764 0.690395 0.216548 -0.190050
H33   H     H_    0.739079 0.145583 0.310613 0.167848
H34   H     H_    0.261904 0.144593 0.309634 0.163942
H35   H     H_    0.261915 0.144600 0.690375 0.163819
H36   H     H_    0.739071 0.145593 0.689393 0.167737
H37   H     H_    0.238094 0.644590 0.809631 0.163890
H38   H     H_    0.760922 0.645582 0.810612 0.167794
H39   H     H_    0.760928 0.645594 0.189392 0.167799
H40   H     H_    0.238087 0.644602 0.190373 0.163877
C57   C     C_R   0.803775 0.196327 0.250078 0.001346
C58   C     C_R   0.196276 0.196268 0.250010 0.008786
C59   C     C_R   0.196277 0.196266 0.749989 0.008861
C60   C     C_R   0.803775 0.196326 0.749921 0.001365
C61   C     C_R   0.303724 0.696268 0.750010 0.008833
C62   C     C_R   0.696224 0.696328 0.750078 0.001311
C63   C     C_R   0.696225 0.696326 0.249921 0.001409
C64   C     C_R   0.303723 0.696266 0.249989 0.008804
C65   C     C_R   0.809242 0.255746 0.216151 -0.180713
C66   C     C_R   0.190338 0.256156 0.216541 -0.190962
C67   C     C_R   0.190333 0.256150 0.783454 -0.190945
C68   C     C_R   0.809247 0.255740 0.783843 -0.180625
C69   C     C_R   0.309663 0.756157 0.716542 -0.190995
C70   C     C_R   0.690756 0.755747 0.716152 -0.180675
C71   C     C_R   0.690753 0.755740 0.283844 -0.180672
C72   C     C_R   0.309665 0.756149 0.283454 -0.190915
H41   H     H_    0.854687 0.260967 0.189589 0.164612
H42   H     H_    0.144486 0.261783 0.190376 0.162498
H43   H     H_    0.144478 0.261773 0.809615 0.162511
H44   H     H_    0.854696 0.260958 0.810402 0.164621
H45   H     H_    0.355516 0.761785 0.690378 0.162482
H46   H     H_    0.645311 0.760969 0.689591 0.164594
H47   H     H_    0.645305 0.760956 0.310403 0.164633
H48   H     H_    0.355520 0.761771 0.309616 0.162525
C73   C     C_R   0.256200 0.809615 0.716521 -0.191272
C74   C     C_R   0.744210 0.809213 0.716140 -0.188243
C75   C     C_R   0.744205 0.809207 0.283857 -0.188266
C76   C     C_R   0.256204 0.809608 0.283477 -0.191270
C77   C     C_R   0.755789 0.309212 0.216139 -0.188191
C78   C     C_R   0.243801 0.309614 0.216520 -0.191240
C79   C     C_R   0.243795 0.309609 0.783476 -0.191296
C80   C     C_R   0.755796 0.309208 0.783856 -0.188306
H49   H     H_    0.261876 0.855413 0.690344 0.162235
H50   H     H_    0.738938 0.854607 0.689569 0.163946
H51   H     H_    0.738930 0.854595 0.310427 0.163969
H52   H     H_    0.261882 0.855401 0.309652 0.162260
H53   H     H_    0.761060 0.354604 0.189567 0.163977
H54   H     H_    0.238126 0.355411 0.190342 0.162257
H55   H     H_    0.238116 0.355403 0.809650 0.162241
H56   H     H_    0.761071 0.354597 0.810426 0.163944
C81   C     C_R   0.196247 0.803739 0.749968 0.008761
C82   C     C_R   0.803679 0.803822 0.750060 -0.000477
C83   C     C_R   0.803677 0.803824 0.249941 -0.000472
C84   C     C_R   0.196247 0.803740 0.250033 0.008783
C85   C     C_R   0.696321 0.303822 0.250060 -0.000463
C86   C     C_R   0.303753 0.303739 0.249969 0.008646
C87   C     C_R   0.303752 0.303740 0.750033 0.008885
C88   C     C_R   0.696323 0.303824 0.749941 -0.000465
C89   C     C_R   0.955321 0.945408 0.972969 0.220277
C90   C     C_R   0.955263 0.945437 0.027040 0.219559
C91   C     C_R   0.544457 0.445298 0.472970 0.223368
C92   C     C_R   0.544953 0.445518 0.527040 0.216541
C93   C     C_R   0.994953 0.999757 0.053498 -0.145972
C94   C     C_R   0.995005 0.999730 0.946505 -0.146063
C95   C     C_R   0.505234 0.499824 0.553509 -0.145764
C96   C     C_R   0.504826 0.499655 0.446515 -0.146479
C97   C     C_R   0.032278 0.054274 0.026658 -0.228988
C98   C     C_R   0.032295 0.054266 0.973340 -0.228905
C99   C     C_R   0.467807 0.554296 0.526679 -0.229188
C100  C     C_R   0.467682 0.554265 0.473362 -0.228590
H57   H     H_    0.062739 0.096044 0.047009 0.173440
H58   H     H_    0.062758 0.096037 0.952985 0.173455
H59   H     H_    0.437357 0.596063 0.547043 0.173410
H60   H     H_    0.437237 0.596062 0.453021 0.173519
N1    N     N_R   0.910670 0.894268 0.945282 0.234944
O53   O     O_R   0.858154 0.917446 0.915634 -0.394710
O54   O     O_R   0.926126 0.825082 0.946289 -0.329062
N2    N     N_R   0.910515 0.894353 0.054724 0.234433
O55   O     O_R   0.858391 0.917605 0.084687 -0.394822
O56   O     O_R   0.925139 0.825012 0.053060 -0.328938
N3    N     N_R   0.588682 0.393909 0.445234 0.237253
O57   O     O_R   0.569811 0.325594 0.443357 -0.329840
O58   O     O_R   0.643047 0.416692 0.417146 -0.393855
N4    N     N_R   0.590024 0.394595 0.554676 0.232484
O59   O     O_R   0.640598 0.418032 0.585888 -0.395025
O60   O     O_R   0.578974 0.324834 0.550200 -0.328678

loop_
_geom_bond_atom_site_label_1
_geom_bond_atom_site_label_2
_geom_bond_distance
_ccdc_geom_bond_type
C13   C85   1.455684 S    
C52   H36   1.083136 S    
O24   C3    1.281277 A    
Zn5   O10   1.939480 S    
O28   C7    1.281337 A    
C76   C84   1.401673 A    
C4    C57   1.455800 S    
Zn14  O2    1.952091 S    
C99   C100  1.376567 A    
C32   H16   1.113490 S    
Zn16  O35   1.937508 S    
C17   C94   1.438923 S    
C90   N2    1.435735 S    
C48   H32   1.083181 S    
H23   C36   1.112981 S    
Zn2   O41   1.945537 S    
C69   H45   1.083131 S    
Zn13  O49   1.946362 S    
C89   C90   1.396014 A    
C46   C50   1.386229 A    
Zn15  O3    1.951909 S    
Zn6   O3    1.950772 S    
C28   H12   1.112992 S    
C16   C88   1.455698 S    
C48   C88   1.401854 A    
N1    O53   1.301163 A    
O41   C21   1.281898 A    
C31   C40   1.551037 S    
Zn11  O26   1.937899 S    
C41   C53   1.386227 A    
O32   C11   1.281582 A    
C45   H29   1.083183 S    
C24   C40   1.491242 S    
C75   H51   1.083135 S    
H21   C35   1.112993 S    
Zn12  O27   1.937936 S    
C31   H15   1.112995 S    
Zn13  O30   1.937545 S    
C44   C56   1.386232 A    
H20   C34   1.112981 S    
C11   C83   1.455699 S    
C30   H14   1.112994 S    
Zn6   O9    1.939479 S    
C23   C39   1.491242 S    
C98   H58   1.083923 S    
C57   C65   1.401782 A    
O16   C12   1.281870 A    
C78   H54   1.083138 S    
C97   H57   1.083926 S    
C77   H53   1.083136 S    
C54   C62   1.401750 A    
Zn3   O2    1.950769 S    
Zn10  O24   1.937937 S    
Zn8   O20   1.938648 S    
Zn15  O34   1.937545 S    
C61   C69   1.401811 A    
H22   C35   1.112981 S    
Zn9   O22   1.937899 S    
C72   H48   1.083133 S    
O25   C6    1.281373 A    
O17   C13   1.281831 A    
C74   C82   1.401665 A    
C73   C81   1.401685 A    
C3    C58   1.455735 S    
Zn5   O17   1.938595 S    
C30   C39   1.551036 S    
C27   C38   1.554279 S    
H17   C33   1.112980 S    
O23   C4    1.281335 A    
C92   C95   1.410444 A    
O29   C10   1.281545 A    
Zn16  O52   1.946270 S    
H18   C33   1.112991 S    
C80   H56   1.083136 S    
C48   C52   1.386295 A    
H24   C36   1.112992 S    
Zn4   O2    1.950772 S    
Zn3   O44   1.945539 S    
C64   C72   1.401828 A    
C43   H27   1.083180 S    
O22   C1    1.281374 A    
C65   H41   1.083128 S    
Zn1   O6    1.939480 S    
O21   C2    1.281314 A    
Zn2   O1    1.950772 S    
N3    O58   1.301233 A    
C66   H42   1.083134 S    
Zn3   O8    1.939425 S    
C26   C27   1.535597 S    
Zn1   O42   1.945539 S    
O31   C12   1.281662 A    
C7    C62   1.455802 S    
C25   C37   1.551038 S    
C100  H60   1.083916 S    
C67   C79   1.386237 A    
O6    C2    1.281508 A    
C52   C60   1.401735 A    
C27   H3    1.113488 S    
C46   H30   1.083134 S    
C94   C98   1.395693 A    
Zn7   O4    1.950769 S    
O8    C4    1.281405 A    
C93   C97   1.395718 A    
N4    O60   1.300715 A    
C32   H8    1.113488 S    
C26   C37   1.554277 S    
C58   C66   1.401812 A    
C71   C75   1.386213 A    
Zn15  O51   1.946362 S    
C91   N3    1.434736 S    
C29   C39   1.554279 S    
C72   C76   1.386238 A    
C43   C55   1.386299 A    
C25   H1    1.112980 S    
C78   C86   1.401685 A    
O38   C18   1.275950 A    
Zn4   O7    1.939425 S    
O19   C15   1.281868 A    
C76   H52   1.083137 S    
Zn14  O32   1.937510 S    
C55   H39   1.083135 S    
C46   C86   1.401825 A    
Zn7   O12   1.939425 S    
Zn6   O18   1.938596 S    
C45   C85   1.401841 A    
Zn10  O23   1.937936 S    
O43   C22   1.278831 A    
C51   H35   1.083141 S    
O33   C14   1.281625 A    
O47   C24   1.281899 A    
O36   C15   1.281663 A    
C44   C84   1.401842 A    
C91   C92   1.396037 A    
C10   C82   1.455686 S    
C79   C87   1.401671 A    
C97   C98   1.376575 A    
C43   C83   1.401856 A    
C70   H46   1.083130 S    
C9    C81   1.455755 S    
C42   H26   1.083181 S    
C77   C85   1.401664 A    
N1    O54   1.300568 A    
Zn16  O4    1.952091 S    
Zn11  O3    1.952240 S    
O46   C23   1.281901 A    
Zn12  O4    1.952058 S    
Zn2   O5    1.939479 S    
N2    O56   1.300571 A    
Zn14  O50   1.946270 S    
C99   H59   1.083929 S    
C49   C57   1.401751 A    
C75   C83   1.401653 A    
C19   C96   1.439005 S    
C68   C80   1.386213 A    
C5    C64   1.455747 S    
O49   C17   1.274107 A    
C42   C82   1.401839 A    
C26   H2    1.113490 S    
C6    C63   1.455814 S    
Zn12  O40   1.946362 S    
O45   C23   1.278830 A    
C70   C74   1.386210 A    
C60   C68   1.401796 A    
C47   H31   1.083134 S    
Zn9   O1    1.952240 S    
C45   C49   1.386292 A    
Zn8   O4    1.950772 S    
C62   C70   1.401780 A    
C66   C78   1.386233 A    
C25   C28   1.546408 S    
C28   H4    1.112981 S    
C33   C37   1.551049 S    
C65   C77   1.386208 A    
C33   C34   1.546426 S    
O52   C20   1.274276 A    
C26   H10   1.113489 S    
Zn9   O37   1.946270 S    
O48   C24   1.278832 A    
C29   H13   1.113489 S    
C35   C36   1.546426 S    
O12   C8    1.281432 A    
C96   C100  1.395502 A    
O5    C1    1.281482 A    
C89   N1    1.435536 S    
C74   H50   1.083136 S    
C28   C38   1.551037 S    
Zn9   O21   1.937898 S    
O34   C13   1.281543 A    
C73   H49   1.083138 S    
O27   C8    1.281275 A    
C68   H44   1.083130 S    
N4    O59   1.301310 A    
C36   C40   1.551051 S    
O26   C5    1.281316 A    
C29   C32   1.535597 S    
C50   H34   1.083140 S    
C12   C84   1.455768 S    
C22   C38   1.491242 S    
C67   H43   1.083133 S    
Zn7   O19   1.938651 S    
C29   H5    1.113489 S    
C54   H38   1.083137 S    
Zn6   O45   1.945537 S    
Zn16  O36   1.937510 S    
O11   C7    1.281405 A    
C90   C93   1.410230 A    
O50   C18   1.274122 A    
O30   C9    1.281624 A    
C89   C94   1.410170 A    
C32   C40   1.554279 S    
O15   C11   1.281906 A    
Zn14  O31   1.937508 S    
Zn5   O3    1.950769 S    
O44   C22   1.281900 A    
C31   H7    1.112980 S    
Zn1   O1    1.950769 S    
C30   H6    1.112981 S    
C20   C95   1.438830 S    
Zn13  O1    1.951909 S    
C69   C73   1.386234 A    
Zn2   O14   1.938596 S    
Zn11  O39   1.946270 S    
C47   C87   1.401843 A    
C63   C71   1.401797 A    
C71   H47   1.083130 S    
O20   C16   1.281907 A    
C1    C60   1.455813 S    
C92   N4    1.436601 S    
C44   H28   1.083135 S    
C27   H11   1.113489 S    
C2    C59   1.455748 S    
Zn3   O15   1.938651 S    
Zn13  O29   1.937548 S    
Zn1   O13   1.938595 S    
C42   C54   1.386292 A    
C49   H33   1.083136 S    
Zn10  O2    1.952058 S    
C51   C59   1.401661 A    
Zn4   O43   1.945537 S    
C47   C51   1.386231 A    
N2    O55   1.301192 A    
O10   C6    1.281481 A    
C56   C64   1.401663 A    
Zn5   O46   1.945539 S    
Zn11  O25   1.937898 S    
C59   C67   1.401830 A    
O9    C5    1.281508 A    
Zn15  O33   1.937548 S    
O39   C19   1.276225 A    
C8    C61   1.455734 S    
Zn10  O38   1.946362 S    
O42   C21   1.278833 A    
C35   C39   1.551051 S    
Zn7   O48   1.945539 S    
O40   C20   1.275742 A    
N3    O57   1.300876 A    
Zn8   O47   1.945537 S    
C95   C99   1.395910 A    
Zn4   O16   1.938648 S    
O14   C10   1.281832 A    
H19   C34   1.112992 S    
C55   C63   1.401737 A    
O13   C9    1.281792 A    
C56   H40   1.083141 S    
O7    C3    1.281432 A    
Zn12  O28   1.937937 S    
C30   C31   1.546408 S    
C53   C61   1.401677 A    
Zn8   O11   1.939425 S    
C34   C38   1.551050 S    
C80   C88   1.401652 A    
O37   C17   1.275980 A    
C41   H25   1.083136 S    
O18   C14   1.281794 A    
C91   C96   1.409992 A    
C21   C37   1.491242 S    
C41   C81   1.401825 A    
O35   C16   1.281584 A    
C18   C93   1.438906 S    
C53   H37   1.083140 S    
C15   C87   1.455769 S    
C79   H55   1.083139 S    
O51   C19   1.273925 A    
C25   H9    1.112993 S    
C14   C86   1.455755 S    
C50   C58   1.401678 A    
