data_mof_unit_30270.cif
_audit_creation_date              2012-12-11T16:05:08-0500
_audit_creation_method            fapswitch 2.2
_symmetry_space_group_name_H-M    P1
_symmetry_Int_Tables_number       1
_space_group_crystal_system       triclinic
_cell_length_a                    10.680832
_cell_length_b                    10.635013
_cell_length_c                    16.930322
_cell_angle_alpha                 98.600876
_cell_angle_beta                  98.638579
_cell_angle_gamma                 61.494717
_cell_volume                      1664.09709463

loop_
_atom_site_label
_atom_site_type_symbol
_atom_type_description
_atom_site_fract_x
_atom_site_fract_y
_atom_site_fract_z
_atom_type_partial_charge
C1    C     C_R   0.354994 0.774766 0.398387 0.539209
C2    C     C_3   0.415973 0.685025 0.252866 -0.112686
C3    C     C_3   0.348813 0.809103 0.318005 0.056789
C4    C     C_R   0.371561 0.347389 0.358494 0.538185
C5    C     C_3   0.409645 0.894856 0.287076 -0.125194
C6    C     C_3   0.269068 0.964366 0.232920 -0.113163
C7    C     C_3   0.209256 0.877314 0.264951 -0.122381
C8    C     C_3   0.274865 0.754511 0.198955 -0.115270
C9    C     C_3   0.333844 0.841204 0.167172 0.057573
C10   C     C_3   0.459603 0.263387 0.775870 -0.113222
C11   C     C_3   0.395947 0.404076 0.735215 -0.108109
C12   C     C_3   0.761809 0.292512 0.248539 -0.118757
C13   C     C_3   0.337267 0.333999 0.663378 0.053958
C14   C     C_3   0.400946 0.194151 0.703420 -0.113081
C15   C     C_3   0.258448 0.252642 0.741048 -0.111375
C16   C     C_R   0.776542 0.377104 0.401696 0.545402
C17   C     C_3   0.194971 0.393491 0.699829 -0.123401
C18   C     C_3   0.253486 0.462446 0.773235 -0.121530
C19   C     C_3   0.317986 0.321946 0.812803 0.053735
C20   C     C_1   0.817381 0.341634 0.709583 -0.045021
C21   C     C_1   0.843759 0.314976 0.778120 -0.047899
C22   C     C_1   0.338222 0.812024 0.709762 -0.047510
C23   C     C_3   0.830945 0.342961 0.323968 0.057776
C24   C     C_1   0.313268 0.839251 0.778519 -0.045859
C25   C     C_R   0.957749 0.284738 0.102491 0.555315
C26   C     C_R   0.319680 0.300303 0.119925 0.533827
C27   C     C_R   0.297870 0.885508 0.086516 0.533331
C28   C     C_R   0.356654 0.771295 0.627216 0.542531
C29   C     C_R   0.884729 0.299590 0.860923 0.552725
C30   C     C_R   0.308111 0.294442 0.891936 0.544084
C31   C     C_R   0.280020 0.884773 0.859023 0.542885
C32   C     C_R   0.367051 0.345442 0.585177 0.539834
C33   C     C_R   0.774188 0.379371 0.629589 0.542497
C34   C     C_3   0.980973 0.235983 0.301912 -0.150652
C35   C     C_1   0.346087 0.337797 0.274674 -0.065221
C36   C     C_1   0.333734 0.328014 0.203458 -0.064127
C37   C     C_3   0.913226 0.184478 0.224738 -0.122869
C38   C     C_3   0.980868 0.352436 0.256831 -0.137565
C39   C     C_3   0.829519 0.460007 0.279913 -0.102339
C40   C     C_3   0.762026 0.408332 0.203724 -0.114535
C41   C     C_3   0.912788 0.301401 0.181538 0.055796
C42   C     C_3   0.475035 0.772775 0.219842 -0.127760
Cr1   Cr    Cr6+3 0.608340 0.611040 0.520430 1.020908
Cr2   Cr    Cr6+3 0.287650 0.601120 0.489350 1.024903
Cr3   Cr    Cr6+3 0.604040 0.287870 0.490280 1.021489
Cr4   Cr    Cr6+3 0.054020 0.052700 0.970850 1.021387
Cr5   Cr    Cr6+3 0.059230 0.375120 0.993390 1.019647
Cr6   Cr    Cr6+3 0.374950 0.061200 0.992340 1.024984
H1    H     H_    0.671147 0.268380 0.247174 0.129225
H2    H     H_    0.195128 0.571578 0.803945 0.132277
H3    H     H_    0.067953 0.168579 0.345224 0.109852
H4    H     H_    0.069865 0.378486 0.258275 0.115913
H5    H     H_    0.794771 0.573782 0.303482 0.132389
H6    H     H_    0.674271 0.475705 0.160777 0.120258
H7    H     H_    0.475846 0.569708 0.263971 0.110961
H8    H     H_    0.582624 0.731277 0.199054 0.114518
H9    H     H_    0.462519 0.953613 0.325165 0.128775
H10   H     H_    0.943469 0.073737 0.197051 0.131519
H11   H     H_    0.214406 0.078944 0.220966 0.108484
H12   H     H_    0.103162 0.916806 0.287224 0.121037
H13   H     H_    0.221555 0.695581 0.161472 0.125926
H14   H     H_    0.453057 0.466535 0.730743 0.115806
H15   H     H_    0.567585 0.212276 0.808637 0.130637
H16   H     H_    0.459407 0.084589 0.673183 0.129859
H17   H     H_    0.201348 0.190265 0.745708 0.114481
H18   H     H_    0.087508 0.444577 0.666538 0.132056
O1    O     O_R   0.751220 0.499230 0.435170 -0.523330
O2    O     O_R   0.412990 0.180750 0.091610 -0.505662
O3    O     O_R   0.366620 0.943130 0.065760 -0.500662
O4    O     O_R   0.477220 0.727600 0.436870 -0.504106
O5    O     O_R   0.160510 0.906330 0.879210 -0.511349
O6    O     O_R   0.930190 0.179050 0.889450 -0.492022
O7    O     O_R   0.909140 0.398170 0.896710 -0.503019
O8    O     O_R   0.186190 0.363460 0.918830 -0.501460
O9    O     O_R   0.401670 0.173200 0.913310 -0.513142
O10   O     O_R   0.356120 0.936130 0.900470 -0.493912
O11   O     O_3   0.162740 0.163010 0.985530 -0.277703
O12   O     O_R   0.297880 0.469080 0.560050 -0.500275
O13   O     O_R   0.258650 0.745120 0.411470 -0.517334
O14   O     O_R   0.297070 0.467240 0.395960 -0.497803
O15   O     O_R   0.488830 0.252610 0.387790 -0.518717
O16   O     O_R   0.724400 0.302390 0.420980 -0.504266
O17   O     O_R   0.752100 0.501210 0.612190 -0.510669
O18   O     O_R   0.478040 0.729440 0.600970 -0.498368
O19   O     O_R   0.259530 0.747110 0.588490 -0.507645
O20   O     O_R   0.489720 0.254590 0.564810 -0.517046
O21   O     O_R   0.725220 0.304230 0.585080 -0.495529
O22   O     O_3   0.500010 0.500010 0.500020 -0.258491
O23   O     O_R   0.171830 0.913880 0.057510 -0.528417
O24   O     O_R   0.940690 0.186050 0.054730 -0.499238
O25   O     O_R   0.920470 0.405720 0.075010 -0.514265
O26   O     O_R   0.196690 0.370460 0.084120 -0.518791

loop_
_geom_bond_atom_site_label_1
_geom_bond_atom_site_label_2
_ccdc_geom_bond_type
C5    C42   S    
C11   C18   S    
C28   O18   A    
C34   C37   S    
Cr1   O17   S    
Cr5   O26   S    
Cr6   O10   S    
C13   C32   S    
Cr3   O16   S    
Cr6   O3    S    
C11   H14   S    
C6    C9    S    
C12   H1    S    
Cr3   O20   S    
C7    C8    S    
Cr4   O23   S    
C39   H5    S    
C15   C19   S    
C12   C23   S    
C18   H2    S    
C9    C42   S    
Cr1   O22   S    
Cr3   O21   S    
C4    O14   A    
C3    C7    S    
C2    H7    S    
C38   C39   S    
C30   O8    A    
C38   H4    S    
C26   O26   A    
C15   H17   S    
C18   C19   S    
C12   C37   S    
C42   H8    S    
C4    O15   A    
C10   H15   S    
C8    C9    S    
Cr4   O6    S    
C37   H10   S    
C27   O3    A    
C8    H13   S    
C29   O6    A    
C31   O5    A    
C4    C35   S    
C32   O20   A    
C22   C28   S    
C13   C14   S    
C37   C41   S    
Cr1   O18   S    
Cr6   O9    S    
Cr3   O15   S    
C25   O25   A    
Cr2   O14   S    
Cr3   O22   S    
Cr5   O7    S    
C38   C41   S    
C10   C14   S    
C25   C41   S    
C39   C40   S    
C21   C29   S    
C1    C3    S    
C35   C36   T    
Cr6   O11   S    
C12   C40   S    
C25   O24   A    
C10   C19   S    
C23   C34   S    
C14   H16   S    
C16   O16   A    
C17   C18   S    
C34   H3    S    
C16   O1    A    
Cr6   O2    S    
C33   O17   A    
Cr4   O5    S    
C20   C33   S    
C26   C36   S    
C40   C41   S    
Cr1   O4    S    
C40   H6    S    
C1    O13   A    
C22   C24   T    
Cr5   O11   S    
Cr2   O19   S    
C7    H12   S    
C9    C27   S    
C15   C17   S    
C34   C38   S    
Cr5   O25   S    
C6    H11   S    
Cr2   O13   S    
C2    C8    S    
Cr5   O8    S    
C3    C5    S    
Cr4   O11   S    
C6    C7    S    
Cr4   O24   S    
C5    H9    S    
C16   C23   S    
C1    O4    A    
C13   C17   S    
C26   O2    A    
Cr2   O12   S    
C2    C3    S    
C33   O21   A    
C24   C31   S    
C30   O9    A    
C11   C13   S    
C31   O10   A    
C5    C6    S    
C2    C42   S    
C23   C39   S    
C27   O23   A    
C17   H18   S    
C10   C11   S    
C32   O12   A    
C29   O7    A    
C20   C21   T    
Cr1   O1    S    
C28   O19   A    
C14   C15   S    
Cr2   O22   S    
C19   C30   S    
