data_mof_unit_62837.cif
_audit_creation_date              2012-12-11T16:11:15-0500
_audit_creation_method            fapswitch 2.2
_symmetry_space_group_name_H-M    P1
_symmetry_Int_Tables_number       1
_space_group_crystal_system       triclinic
_cell_length_a                    12.859444
_cell_length_b                    13.28816
_cell_length_c                    26.925714
_cell_angle_alpha                 97.209294
_cell_angle_beta                  90.181669
_cell_angle_gamma                 118.921112
_cell_volume                      3984.5552513

loop_
_atom_site_label
_atom_site_type_symbol
_atom_type_description
_atom_site_fract_x
_atom_site_fract_y
_atom_site_fract_z
_atom_type_partial_charge
Br1   Br    Br    0.929485 0.528749 0.219108 -0.529134
Br2   Br    Br    0.928963 0.643951 0.669346 -0.489274
C1    C     C_R   0.627943 0.894692 0.424369 0.546529
C2    C     C_1   0.142626 0.826173 0.179188 0.038227
C3    C     C_1   0.163556 0.839859 0.231549 0.067311
C4    C     C_R   0.601783 0.223496 0.443166 0.548693
C5    C     C_1   0.177772 0.846658 0.276252 0.041042
C6    C     C_1   0.196808 0.852665 0.328278 -0.020519
C7    C     C_1   0.221849 0.860116 0.372137 0.006730
C8    C     C_1   0.689078 0.799004 0.136106 0.016517
C9    C     C_1   0.672527 0.808771 0.179937 -0.013567
C10   C     C_1   0.661452 0.818132 0.232037 0.024465
C11   C     C_1   0.655836 0.827325 0.276804 0.019379
C12   C     C_R   0.580425 0.247331 0.218041 0.227579
C13   C     C_1   0.650339 0.842405 0.329193 -0.025428
C14   C     C_1   0.643084 0.861720 0.373500 0.006713
C15   C     C_1   0.694116 0.385595 0.874719 0.001017
C16   C     C_R   0.268463 0.875683 0.422436 0.547460
C17   C     C_1   0.685526 0.359955 0.829893 -0.036319
C18   C     C_1   0.677498 0.339903 0.777123 0.008048
C19   C     C_1   0.669218 0.324892 0.732004 0.023476
C20   C     C_1   0.654846 0.303509 0.679265 0.000593
C21   C     C_1   0.635859 0.276094 0.634541 0.030482
C22   C     C_1   0.212724 0.862326 0.608007 0.033456
C23   C     C_R   0.570156 0.235528 0.268802 -0.076752
C24   C     C_R   0.055382 0.757534 0.716757 0.206457
C25   C     C_R   0.044904 0.747799 0.767726 -0.084243
C26   C     C_R   0.238710 0.919457 0.788070 -0.106489
C27   C     C_R   0.249489 0.929779 0.737274 -0.125740
C28   C     C_R   0.630605 0.898338 0.563827 0.546791
C29   C     C_R   0.158857 0.848396 0.701559 0.077561
C30   C     C_R   0.137211 0.827520 0.803126 0.000900
C31   C     C_1   0.125327 0.813889 0.854845 -0.049394
C32   C     C_1   0.181061 0.853802 0.649779 0.032660
C33   C     C_1   0.103930 0.795727 0.897072 0.002514
C34   C     C_R   0.664715 0.310279 0.304127 -0.036062
C35   C     C_1   0.656100 0.856916 0.606128 0.027352
C36   C     C_R   0.802336 0.850439 0.717790 0.281003
C37   C     C_R   0.812020 0.833213 0.767389 -0.064441
C38   C     C_R   0.598740 0.703703 0.763705 -0.109536
C39   C     C_R   0.588622 0.720330 0.714168 -0.143321
C40   C     C_R   0.603076 0.227350 0.582864 0.551063
C41   C     C_R   0.689654 0.795312 0.691397 0.058771
C42   C     C_R   0.710006 0.762064 0.790636 -0.004043
C43   C     C_1   0.718956 0.755076 0.842996 -0.051754
C44   C     C_1   0.673481 0.826224 0.643935 0.020377
C45   C     C_R   0.686618 0.334446 0.202578 0.057096
C46   C     C_1   0.729489 0.752359 0.887085 -0.004449
C47   C     C_R   0.065610 0.772037 0.084109 0.558378
C48   C     C_R   0.715692 0.438072 0.066395 0.551395
C49   C     C_R   0.720101 0.782383 0.086033 0.561835
C50   C     C_R   0.059523 0.765044 0.944237 0.540935
C51   C     C_R   0.709547 0.432365 0.926611 0.535560
C52   C     C_R   0.267578 0.879157 0.561818 0.547227
C53   C     C_R   0.748401 0.751065 0.939203 0.559877
C54   C     C_1   0.633946 0.270133 0.397369 0.008851
C55   C     C_R   0.771233 0.395422 0.288830 -0.080644
C56   C     C_1   0.693222 0.357381 0.151763 0.069575
C57   C     C_R   0.782599 0.408048 0.238114 0.140196
C58   C     C_1   0.652153 0.294580 0.355724 -0.040571
C59   C     C_1   0.701194 0.387200 0.111082 0.058147
C60   C     C_1   0.115099 0.806678 0.134905 0.050455
Cl1   Cl    Cl    0.457904 0.153593 0.175012 -0.600428
Cl2   Cl    Cl    0.931439 0.946169 0.690773 -0.573504
Cr1   Cr    Cr6+3 0.416010 0.828400 0.490230 1.052975
Cr2   Cr    Cr6+3 0.676380 0.087280 0.505260 1.067560
Cr3   Cr    Cr6+3 0.407590 0.084280 0.504540 1.058163
Cr4   Cr    Cr6+3 0.914090 0.832340 0.018020 1.059142
Cr5   Cr    Cr6+3 0.923310 0.576840 0.003860 1.058723
Cr6   Cr    Cr6+3 0.654200 0.573160 0.004700 1.058029
H1    H     H_    0.844896 0.452223 0.316193 0.159108
H2    H     H_    0.898318 0.878261 0.788271 0.144783
H3    H     H_    0.519458 0.648594 0.781490 0.135679
H4    H     H_    0.501270 0.678486 0.694302 0.127569
H5    H     H_    0.488114 0.168458 0.280754 0.154132
H6    H     H_    0.965545 0.677308 0.779664 0.138580
H7    H     H_    0.309882 0.981783 0.815380 0.129847
H8    H     H_    0.330037 0.999500 0.725678 0.118453
O1    O     O_R   0.294740 0.800910 0.434410 -0.497105
O2    O     O_R   0.635480 0.460400 0.052590 -0.494284
O3    O     O_R   0.662650 0.681410 0.060750 -0.485164
O4    O     O_R   0.526010 0.837250 0.440870 -0.492745
O5    O     O_R   0.814500 0.852290 0.965490 -0.492873
O6    O     O_R   0.013160 0.821640 0.966980 -0.511777
O7    O     O_R   0.038850 0.666600 0.954370 -0.499685
O8    O     O_R   0.813260 0.476410 0.948680 -0.495383
O9    O     O_R   0.630060 0.454430 0.944230 -0.509192
O10   O     O_R   0.657630 0.675880 0.960300 -0.486463
O11   O     O_3   0.830530 0.660780 0.008860 -0.292185
O12   O     O_R   0.664100 0.185180 0.560770 -0.487940
O13   O     O_R   0.704290 0.994500 0.446090 -0.499305
O14   O     O_R   0.662870 0.181760 0.460430 -0.491706
O15   O     O_R   0.498970 0.199080 0.457120 -0.500630
O16   O     O_R   0.309350 0.975930 0.448180 -0.492877
O17   O     O_R   0.296060 0.804610 0.542650 -0.500955
O18   O     O_R   0.527240 0.840670 0.541200 -0.501520
O19   O     O_R   0.705610 0.998200 0.554330 -0.485184
O20   O     O_R   0.500290 0.202770 0.565360 -0.501143
O21   O     O_R   0.310570 0.979360 0.548520 -0.491056
O22   O     O_3   0.499990 0.999990 0.500010 -0.267719
O23   O     O_R   0.819910 0.858260 0.073860 -0.491931
O24   O     O_R   0.018180 0.827180 0.067430 -0.489378
O25   O     O_R   0.044260 0.672570 0.062730 -0.487635
O26   O     O_R   0.818270 0.481940 0.049130 -0.483988

loop_
_geom_bond_atom_site_label_1
_geom_bond_atom_site_label_2
_ccdc_geom_bond_type
C46   C53   S    
C48   O26   A    
Cr1   O1    S    
C17   C18   S    
Cr6   O10   S    
C5    C6    S    
Cr2   O12   S    
C10   C11   T    
C28   O19   A    
C24   C25   A    
C21   C40   S    
Cr2   O19   S    
C26   C27   A    
Cr4   O24   S    
Br1   C57   S    
C36   C37   A    
C55   C57   A    
Cr6   O9    S    
C22   C52   S    
C13   C14   T    
C2    C60   T    
C38   H3    S    
C1    O13   A    
Cr2   O22   S    
C53   O10   A    
C50   O6    A    
Cr6   O3    S    
C28   O18   A    
Cr3   O20   S    
C31   C33   T    
C39   H4    S    
Cr1   O18   S    
C27   H8    S    
C6    C7    T    
Cr3   O16   S    
C37   H2    S    
C51   O8    A    
C49   O3    A    
Cr3   O21   S    
C56   C59   T    
C24   C29   A    
C19   C20   S    
C39   C41   A    
Cr5   O11   S    
C8    C49   S    
C36   Cl2   S    
Cr5   O25   S    
Cr6   O2    S    
Cr4   O6    S    
C26   C30   A    
Cr4   O23   S    
C51   O9    A    
C34   C55   A    
C47   O24   A    
C3    C5    T    
C16   O1    A    
Cr2   O14   S    
C22   C32   T    
C54   C58   T    
C28   C35   S    
C23   H5    S    
Cr1   O17   S    
C4    O15   A    
C1    O4    A    
Cr4   O11   S    
C29   C32   S    
Br2   C24   S    
C55   H1    S    
C26   H7    S    
C52   O17   A    
C12   C45   A    
Cr3   O22   S    
C38   C39   A    
C11   C13   S    
C16   O16   A    
C52   O21   A    
Cr6   O11   S    
C37   C42   A    
C53   O5    A    
C25   H6    S    
C15   C51   S    
Cr5   O7    S    
C42   C43   S    
C43   C46   T    
C50   O7    A    
C47   C60   S    
C25   C30   A    
Cr4   O5    S    
Cr1   O22   S    
C4    C54   S    
C2    C3    S    
C34   C58   S    
C48   O2    A    
C47   O25   A    
C9    C10   S    
Cr2   O13   S    
C49   O23   A    
C30   C31   S    
C40   O20   A    
C36   C41   A    
C27   C29   A    
C45   C56   S    
Cr1   O4    S    
C4    O14   A    
C12   Cl1   S    
C15   C17   T    
C12   C23   A    
C41   C44   S    
C8    C9    T    
Cr5   O8    S    
C23   C34   A    
C45   C57   A    
C7    C16   S    
C38   C42   A    
C18   C19   T    
C33   C50   S    
Cr3   O15   S    
C48   C59   S    
C20   C21   T    
C40   O12   A    
C35   C44   T    
C1    C14   S    
Cr5   O26   S    
