data_mof_unit_52840.cif
_audit_creation_date              2012-12-10T20:02:19-0500
_audit_creation_method            fapswitch 2.2
_symmetry_space_group_name_H-M    P1
_symmetry_Int_Tables_number       1
_space_group_crystal_system       triclinic
_cell_length_a                    10.737768
_cell_length_b                    14.875473
_cell_length_c                    14.135058
_cell_angle_alpha                 89.119282
_cell_angle_beta                  91.18345
_cell_angle_gamma                 89.742172
_cell_volume                      2257.00953547

loop_
_atom_site_label
_atom_site_type_symbol
_atom_type_description
_atom_site_fract_x
_atom_site_fract_y
_atom_site_fract_z
_atom_type_partial_charge
C1    C     C_R   0.499433 0.327065 0.500911 0.918985
C2    C     C_R   0.499969 0.672515 0.499331 0.969822
C3    C     C_R   0.872155 0.490838 0.500948 -0.074882
C4    C     C_R   0.127034 0.491772 0.494599 -0.072658
C5    C     C_R   0.940678 0.451472 0.576860 0.006869
C6    C     C_R   0.057066 0.518386 0.412975 0.014475
C7    C     C_R   0.489204 0.084542 0.576959 -0.231968
C8    C     C_R   0.452035 0.916152 0.443398 -0.226146
C9    C     C_R   0.464185 0.176173 0.576677 0.440253
C10   C     C_R   0.429533 0.824483 0.446164 0.387945
C11   C     C_R   0.513588 0.230338 0.503301 -0.195094
C12   C     C_R   0.513128 0.768502 0.497993 -0.159882
C13   C     C_R   0.585020 0.191715 0.432257 -0.247173
C14   C     C_R   0.614987 0.804456 0.547860 -0.241112
C15   C     C_R   0.605800 0.100022 0.432310 -0.128056
C16   C     C_R   0.634325 0.896344 0.546638 -0.127056
C17   C     C_R   0.557258 0.047074 0.504383 0.030214
C18   C     C_R   0.552764 0.951459 0.494227 0.051309
C19   C     C_R   0.501115 0.417536 0.106151 0.407102
C20   C     C_R   0.608787 0.528224 0.895802 0.419079
C21   C     C_R   0.499553 0.420317 0.205895 -0.112400
C22   C     C_R   0.604318 0.526876 0.795833 -0.084134
C23   C     C_R   0.259628 0.498031 0.498484 0.963294
C24   C     C_R   0.739965 0.496755 0.500843 0.852312
C25   C     C_R   0.501491 0.578981 0.202489 0.048849
C26   C     C_R   0.396668 0.474936 0.795512 0.053017
C27   C     C_R   0.499746 0.579974 0.103133 -0.264437
C28   C     C_R   0.395975 0.475473 0.894848 -0.287296
C29   C     C_R   0.500943 0.499114 0.053141 0.026020
C30   C     C_R   0.502464 0.501545 0.946765 0.047814
C31   C     C_R   0.126977 0.632720 0.178710 -0.058558
C32   C     C_R   0.756807 0.268786 0.700236 -0.073516
C33   C     C_R   0.091986 0.619829 0.272707 -0.021891
C34   C     C_R   0.805107 0.324122 0.629301 -0.106137
C35   C     C_R   0.107897 0.535454 0.317462 0.122975
C36   C     C_R   0.883597 0.396243 0.652838 0.111663
C37   C     C_R   0.155072 0.463473 0.265464 -0.091971
C38   C     C_R   0.914626 0.410751 0.748426 -0.139099
C39   C     C_R   0.189554 0.476593 0.171436 -0.135996
C40   C     C_R   0.865764 0.355342 0.819212 -0.074769
C41   C     C_R   0.176104 0.561248 0.128224 -0.106583
C42   C     C_R   0.787001 0.284417 0.795088 -0.047567
C43   C     C_R   0.930214 0.523006 0.419981 -0.231949
C44   C     C_R   0.068812 0.457401 0.574948 -0.200931
H1    H     H_    0.202826 0.571266 0.055418 0.142857
H2    H     H_    0.750572 0.240818 0.849743 0.195388
H3    H     H_    0.655952 0.069995 0.374936 0.171776
H4    H     H_    0.710468 0.924611 0.587749 0.165619
H5    H     H_    0.498237 0.358211 0.246321 0.185405
H6    H     H_    0.684689 0.547321 0.756242 0.178674
H7    H     H_    0.504489 0.641807 0.239462 0.183524
H8    H     H_    0.314204 0.453827 0.756913 0.158114
H9    H     H_    0.497739 0.643838 0.065369 0.201759
H10   H     H_    0.312554 0.455287 0.931158 0.186907
H11   H     H_    0.115119 0.698013 0.144807 0.156602
H12   H     H_    0.697190 0.213086 0.681614 0.158010
H13   H     H_    0.051170 0.675213 0.310280 0.178558
H14   H     H_    0.782880 0.309942 0.555965 0.109587
H15   H     H_    0.225672 0.420914 0.131795 0.172932
H16   H     H_    0.889859 0.366894 0.892728 0.202394
H17   H     H_    0.876118 0.548849 0.359694 0.173214
H18   H     H_    0.123572 0.430555 0.634259 0.185190
H19   H     H_    0.449758 0.040922 0.630543 0.200902
H20   H     H_    0.387869 0.961037 0.405613 0.194527
H21   H     H_    0.624371 0.232497 0.376248 0.191881
H22   H     H_    0.679086 0.761253 0.587873 0.172957
N1    N     N_R   0.500000 0.499980 0.252470 -0.121454
N2    N     N_R   0.500000 0.500020 0.747530 -0.110738
O1    O     O_R   0.500010 0.369070 0.579480 -0.541663
O2    O     O_R   0.499990 0.630930 0.420520 -0.593530
O3    O     O_R   0.500010 0.369060 0.420520 -0.649046
O4    O     O_R   0.499990 0.630940 0.579480 -0.617883
O5    O     O_R   0.316760 0.500010 0.579480 -0.622343
O6    O     O_R   0.683240 0.499990 0.420520 -0.624848
O7    O     O_R   0.316760 0.500000 0.420520 -0.604683
O8    O     O_R   0.683240 0.500000 0.579480 -0.631567
Zn1   Zn    Zn3+2 0.500000 0.500010 0.606140 1.016349
Zn2   Zn    Zn3+2 0.500000 0.499990 0.393860 0.991669
S1    S     S_3+6 0.503313 0.311613 0.050997 0.010753
O9    O     O_2   0.590753 0.313701 0.969406 -0.297645
O10   O     O_2   0.544780 0.239628 0.120690 -0.296979
O11   O     O_3   0.358830 0.288155 0.010834 -0.589640
H23   H     H_    0.366345 0.228926 0.980338 0.397951
S2    S     S_3+6 0.748235 0.561352 0.954463 -0.005503
O12   O     O_2   0.783543 0.492387 0.029250 -0.299973
O13   O     O_2   0.852325 0.570434 0.885616 -0.338829
O14   O     O_3   0.725910 0.661185 0.005731 -0.566366
H24   H     H_    0.801087 0.670209 0.046217 0.384407
H25   H     H_    0.163466 0.397034 0.297479 0.142715
H26   H     H_    0.977021 0.464655 0.767964 0.171808
S3    S     S_3+6 0.365124 0.217811 0.665111 0.014682
O15   O     O_2   0.274200 0.284725 0.622348 -0.335960
O16   O     O_2   0.294042 0.141975 0.709887 -0.293493
O17   O     O_3   0.452716 0.267850 0.748831 -0.542672
H27   H     H_    0.395777 0.277460 0.801994 0.393688
S4    S     S_3+6 0.292404 0.783993 0.390250 0.002281
O18   O     O_2   0.238095 0.708933 0.448259 -0.314636
O19   O     O_2   0.197060 0.857900 0.378846 -0.295042
O20   O     O_3   0.327625 0.745713 0.282944 -0.577513
H28   H     H_    0.361166 0.798459 0.248463 0.348194

loop_
_geom_bond_atom_site_label_1
_geom_bond_atom_site_label_2
_ccdc_geom_bond_type
O14   H24   S    
C5    C36   S    
C40   H16   S    
O2    Zn2   S    
O1    Zn1   S    
C25   N1    A    
S2    O14   S    
C15   H3    S    
C2    C12   S    
C16   H4    S    
C21   H5    S    
C39   C41   A    
C20   C30   A    
C3    C43   A    
C1    O3    A    
C35   C37   A    
S2    O13   D    
C27   C29   A    
S4    O20   S    
C6    C35   S    
C7    C9    A    
C42   H2    S    
O5    Zn1   S    
O4    Zn1   S    
C22   N2    A    
C7    C17   A    
S4    O19   D    
C31   C33   A    
C22   H6    S    
C40   C42   A    
C21   N1    A    
C9    S3    S    
C3    C24   S    
N1    Zn2   S    
C23   O5    A    
C2    O4    A    
O8    Zn1   S    
C4    C6    A    
C23   O7    A    
S3    O15   D    
S1    O10   D    
C4    C23   S    
C28   H10   S    
C24   O8    A    
C13   H21   S    
C4    C44   A    
C44   H18   S    
C1    O1    A    
C32   C34   A    
C25   H7    S    
C29   C30   S    
C26   H8    S    
S3    O16   D    
O20   H28   S    
C10   S4    S    
C39   H15   S    
S4    O18   D    
C17   C18   S    
C14   H22   S    
S2    O12   D    
C19   S1    S    
C9    C11   A    
C7    H19   S    
C10   C12   A    
C8    H20   S    
C16   C18   A    
C5    C44   A    
C20   C22   A    
C6    C43   A    
C13   C15   A    
C14   C16   A    
C36   C38   A    
C19   C29   A    
C43   H17   S    
N2    Zn1   S    
C15   C17   A    
C33   H13   S    
C31   C41   A    
C19   C21   A    
C12   C14   A    
C3    C5    A    
S1    O11   S    
C27   H9    S    
C25   C27   A    
C38   H26   S    
C26   C28   A    
C37   H25   S    
C26   N2    A    
C20   S2    S    
C37   C39   A    
C41   H1    S    
S3    O17   S    
C38   C40   A    
C11   C13   A    
C24   O6    A    
C28   C30   A    
C33   C35   A    
C34   C36   A    
O17   H27   S    
O7    Zn2   S    
C8    C18   A    
S1    O9    D    
C8    C10   A    
O11   H23   S    
O6    Zn2   S    
C34   H14   S    
C32   C42   A    
C1    C11   S    
C31   H11   S    
C2    O2    A    
C32   H12   S    
O3    Zn2   S    
