data_mof_unit_20794.cif
_audit_creation_date              2012-12-10T18:10:48-0500
_audit_creation_method            fapswitch 2.2
_symmetry_space_group_name_H-M    P1
_symmetry_Int_Tables_number       1
_space_group_crystal_system       triclinic
_cell_length_a                    12.624919
_cell_length_b                    13.154738
_cell_length_c                    15.74994
_cell_angle_alpha                 89.630295
_cell_angle_beta                  102.879762
_cell_angle_gamma                 82.285378
_cell_volume                      2525.02816656

loop_
_atom_site_label
_atom_site_type_symbol
_atom_type_description
_atom_site_fract_x
_atom_site_fract_y
_atom_site_fract_z
_atom_type_partial_charge
C1    C     C_R   0.438491 0.691394 0.488059 0.865017
C2    C     C_3   0.385047 0.506009 0.027028 -0.432186
C3    C     C_3   0.502969 0.496956 0.083428 0.156134
C4    C     C_3   0.568703 0.395337 0.062792 -0.431981
C5    C     C_3   0.555940 0.384272 0.961523 0.415958
C6    C     C_1   0.499923 0.494091 0.174587 -0.044226
C7    C     C_1   0.507816 0.498415 0.826450 -0.099385
C8    C     C_1   0.504477 0.498999 0.750632 -0.198202
C9    C     C_R   0.703030 0.064670 0.447484 -0.191227
C10   C     C_R   0.598753 0.200053 0.508253 -0.043162
C11   C     C_R   0.306623 0.835131 0.515898 -0.183948
C12   C     C_R   0.501158 0.499874 0.661368 0.911632
C13   C     C_R   0.284282 0.937426 0.534679 -0.143331
C14   C     C_R   0.357542 0.004910 0.526316 -0.156393
C15   C     C_R   0.452124 0.972142 0.493335 0.074666
C16   C     C_R   0.463936 0.872626 0.460989 -0.016554
C17   C     C_R   0.533957 0.035091 0.489909 0.045694
C18   C     C_R   0.622426 0.000623 0.449753 0.083077
C19   C     C_R   0.622967 0.907403 0.406371 0.129501
C20   C     C_R   0.539874 0.847381 0.407831 -0.055714
C21   C     C_R   0.528733 0.133031 0.523591 -0.226816
C22   C     C_R   0.689843 0.164748 0.474918 -0.204274
C23   C     C_R   0.561399 0.308854 0.510472 0.841473
C24   C     C_R   0.398769 0.801326 0.482663 -0.088861
C25   C     C_R   0.089671 0.344421 0.381474 -0.081799
C26   C     C_R   0.802672 0.628973 0.602395 0.130644
C27   C     C_R   0.907421 0.656837 0.621521 -0.285541
C28   C     C_R   0.986722 0.608429 0.581670 -0.202509
C29   C     C_R   0.962337 0.530359 0.522341 0.035405
C30   C     C_R   0.854146 0.504525 0.504400 0.221541
C31   C     C_R   0.041271 0.476874 0.480862 -0.021747
C32   C     C_R   0.011247 0.398136 0.422269 0.131148
C33   C     C_R   0.904041 0.374553 0.406167 -0.283465
C34   C     C_R   0.500109 0.496567 0.338853 0.903193
C35   C     C_R   0.827511 0.426724 0.446624 -0.203048
C36   C     C_R   0.149935 0.498107 0.495791 -0.050443
C37   C     C_R   0.195506 0.369741 0.399738 -0.036539
C38   C     C_3   0.388288 0.526271 0.931282 -0.206180
C39   C     C_3   0.585224 0.579185 0.967633 0.339343
C40   C     C_3   0.560373 0.589497 0.062195 -0.252492
C41   C     C_1   0.498979 0.493651 0.249726 -0.156183
C42   C     C_3   0.510111 0.497439 0.918782 0.137716
H1    H     H_    0.330533 0.569625 0.048488 0.180630
H2    H     H_    0.350019 0.434280 0.035414 0.195907
H3    H     H_    0.656509 0.396951 0.094666 0.173739
H4    H     H_    0.746119 0.216143 0.464138 0.148374
H5    H     H_    0.772243 0.041392 0.418784 0.145357
H6    H     H_    0.466087 0.162796 0.556883 0.141431
H7    H     H_    0.254862 0.781599 0.531332 0.146090
H8    H     H_    0.336175 0.082186 0.544959 0.128395
H9    H     H_    0.212949 0.963466 0.560313 0.140670
H10   H     H_    0.359979 0.608578 0.917289 0.158594
H11   H     H_    0.257617 0.329694 0.369731 0.145690
H12   H     H_    0.878272 0.314996 0.362258 0.160719
H13   H     H_    0.180476 0.555910 0.538868 0.129731
H14   H     H_    0.066113 0.633663 0.599397 0.140733
H15   H     H_    0.927990 0.715930 0.667588 0.152110
H16   H     H_    0.747992 0.403574 0.431699 0.207188
H17   H     H_    0.637924 0.587672 0.112545 0.120441
H18   H     H_    0.546274 0.329049 0.095169 0.176806
N1    N     N_R   0.222200 0.444690 0.455710 -0.110317
N2    N     N_R   0.776960 0.554780 0.543830 -0.149200
O1    O     O_R   0.366740 0.627160 0.478850 -0.618043
O2    O     O_R   0.544830 0.662520 0.507140 -0.604140
O3    O     O_R   0.410920 0.482310 0.608710 -0.612015
O4    O     O_R   0.589010 0.517670 0.637000 -0.611117
O5    O     O_R   0.455170 0.337480 0.492860 -0.615722
O6    O     O_R   0.633260 0.372840 0.521150 -0.641958
O7    O     O_R   0.410990 0.482330 0.363000 -0.609763
O8    O     O_R   0.589080 0.517690 0.391290 -0.625772
Zn1   Zn    Zn3+2 0.381090 0.476390 0.481110 0.944831
Zn2   Zn    Zn3+2 0.618910 0.523610 0.518890 0.947095
C43   C     C_1   0.304522 0.475398 0.872190 0.207953
N3    N     N_1   0.238939 0.435839 0.825889 -0.201341
N4    N     N_2   0.703915 0.874201 0.358273 -0.299711
H19   H     H_    0.783813 0.874988 0.391855 0.222773
C44   C     C_3   0.680854 0.916688 0.269995 -0.770207
H20   H     H_    0.744058 0.880768 0.236297 0.239158
H21   H     H_    0.599374 0.900736 0.233054 0.259233
H22   H     H_    0.682125 0.000935 0.270074 0.230295
C45   C     C_1   0.520771 0.772279 0.341787 0.237734
N5    N     N_1   0.504802 0.714686 0.286955 -0.209215
C46   C     C_1   0.064716 0.263483 0.321673 0.129265
N6    N     N_1   0.044805 0.198676 0.273820 -0.208629
C47   C     C_1   0.723333 0.679651 0.646592 0.233481
N7    N     N_1   0.660387 0.721075 0.682676 -0.211110
N8    N     N_2   0.702039 0.536931 0.977987 -0.312849
H23   H     H_    0.753740 0.541836 0.038055 0.214923
C48   C     C_3   0.757321 0.552668 0.908284 -0.741518
H24   H     H_    0.833536 0.496834 0.917714 0.236582
H25   H     H_    0.780161 0.631376 0.909696 0.232962
H26   H     H_    0.705761 0.541110 0.843505 0.263898
N9    N     N_2   0.570215 0.681053 0.922599 -0.278392
H27   H     H_    0.620687 0.730480 0.955533 0.230390
C49   C     C_3   0.468718 0.734988 0.869947 -0.787182
H28   H     H_    0.487477 0.802863 0.836719 0.242962
H29   H     H_    0.411234 0.763954 0.910892 0.236270
H30   H     H_    0.429332 0.687623 0.817743 0.246292
C50   C     C_1   0.496188 0.688856 0.074902 0.205690
N10   N     N_1   0.446296 0.766379 0.085361 -0.215384
N11   N     N_2   0.478111 0.313900 0.923425 -0.286085
H31   H     H_    0.476745 0.298832 0.858983 0.224972
C51   C     C_3   0.457063 0.227788 0.972314 -0.785373
H32   H     H_    0.410018 0.176971 0.926937 0.238599
H33   H     H_    0.405776 0.255385 0.018460 0.239485
H34   H     H_    0.534296 0.181667 0.007906 0.240925
N12   N     N_2   0.663161 0.346633 0.942830 -0.289370
H35   H     H_    0.667542 0.356226 0.878770 0.230578
C52   C     C_3   0.719580 0.247045 0.978658 -0.788531
H36   H     H_    0.806712 0.240612 0.974140 0.245994
H37   H     H_    0.682210 0.185091 0.940397 0.240511
H38   H     H_    0.718243 0.236379 0.048276 0.241555

loop_
_geom_bond_atom_site_label_1
_geom_bond_atom_site_label_2
_ccdc_geom_bond_type
C5    C42   S    
N9    H27   S    
C49   H28   S    
C43   N3    T    
C19   C20   A    
C39   N8    S    
N8    H23   S    
C3    C6    S    
C40   C50   S    
C45   N5    T    
C28   H14   S    
C49   H30   S    
C7    C8    T    
C44   H20   S    
C10   C22   A    
C26   C27   A    
N11   H31   S    
C30   C35   A    
C35   H16   S    
C28   C29   A    
C38   C42   S    
C52   H37   S    
C9    C22   A    
C38   H10   S    
C15   C16   A    
C11   C24   A    
C18   C19   A    
C7    C42   S    
C23   O5    A    
O7    Zn1   S    
C39   N9    S    
C25   C37   A    
C13   H9    S    
O4    Zn2   S    
C50   N10   T    
C2    H2    S    
C6    C41   T    
N12   H35   S    
C48   H25   S    
C34   O8    A    
C16   C20   A    
C21   H6    S    
C37   H11   S    
N1    Zn1   S    
C25   C32   A    
N9    C49   S    
C40   H17   S    
C20   C45   S    
N12   C52   S    
C34   C41   S    
C1    O1    A    
C39   C42   S    
C4    H3    S    
C44   H21   S    
C10   C21   A    
C5    N11   S    
C27   H15   S    
C52   H38   S    
C39   C40   S    
C47   N7    T    
C12   O4    A    
C17   C21   A    
O6    Zn2   S    
C23   O6    A    
N4    H19   S    
C29   C30   A    
C11   H7    S    
C2    C38   S    
C46   N6    T    
C2    H1    S    
C8    C12   S    
C4    H18   S    
C17   C18   A    
N2    Zn2   S    
C51   H33   S    
C48   H26   S    
N4    C44   S    
C34   O7    A    
C22   H4    S    
O1    Zn1   S    
C3    C40   S    
C9    H5    S    
C30   N2    A    
C3    C4    S    
C1    O2    A    
C51   H32   S    
C5    N12   S    
C44   H22   S    
C33   H12   S    
C15   C17   A    
C31   C36   A    
C31   C32   A    
C4    C5    S    
C37   N1    A    
C49   H29   S    
C10   C23   S    
C12   O3    A    
N11   C51   S    
C32   C33   A    
C19   N4    S    
C2    C3    S    
C26   N2    A    
C29   C31   A    
C36   H13   S    
O3    Zn1   S    
C52   H36   S    
C11   C13   A    
C14   H8    S    
C26   C47   S    
C33   C35   A    
C51   H34   S    
O5    Zn1   S    
O2    Zn2   S    
C9    C18   A    
C1    C24   S    
C16   C24   A    
C27   C28   A    
C25   C46   S    
N8    C48   S    
C14   C15   A    
O8    Zn2   S    
C48   H24   S    
C13   C14   A    
C36   N1    A    
C38   C43   S    
