data_mof_unit_19978.cif
_audit_creation_date              2012-12-10T18:14:30-0500
_audit_creation_method            fapswitch 2.2
_symmetry_space_group_name_H-M    P1
_symmetry_Int_Tables_number       1
_space_group_crystal_system       triclinic
_cell_length_a                    12.62726
_cell_length_b                    13.048913
_cell_length_c                    18.980729
_cell_angle_alpha                 90.904387
_cell_angle_beta                  103.120818
_cell_angle_gamma                 82.334214
_cell_volume                      3018.28411778

loop_
_atom_site_label
_atom_site_type_symbol
_atom_type_description
_atom_site_fract_x
_atom_site_fract_y
_atom_site_fract_z
_atom_type_partial_charge
C1    C     C_R   0.438728 0.691509 0.488860 0.913161
C2    C     C_R   0.519800 0.428223 0.148779 -0.054785
C3    C     C_R   0.698367 0.065026 0.444659 -0.172904
C4    C     C_R   0.502791 0.496352 0.635024 0.890405
C5    C     C_R   0.596654 0.198961 0.501261 -0.208501
C6    C     C_R   0.296251 0.840286 0.490372 -0.365077
C7    C     C_R   0.259316 0.946630 0.484826 0.371404
C8    C     C_R   0.331177 0.015325 0.472889 0.491756
C9    C     C_R   0.439996 0.975418 0.468661 -0.041981
C10   C     C_R   0.464760 0.869304 0.457059 -0.014351
C11   C     C_R   0.525154 0.037245 0.473690 0.016483
C12   C     C_R   0.513228 0.474012 0.711903 -0.142924
C13   C     C_R   0.617842 0.000977 0.445214 0.074372
C14   C     C_R   0.629185 0.900892 0.418760 -0.194733
C15   C     C_R   0.555109 0.834557 0.426451 -0.113757
C16   C     C_R   0.561025 0.308385 0.507706 0.876163
C17   C     C_R   0.525956 0.130007 0.511869 0.502484
C18   C     C_R   0.685624 0.165362 0.470356 -0.270167
C19   C     C_R   0.398475 0.801422 0.476648 -0.162943
C20   C     C_R   0.088136 0.349113 0.396011 0.370537
C21   C     C_R   0.798097 0.629982 0.585894 0.537547
C22   C     C_R   0.903209 0.657731 0.605807 -0.453255
C23   C     C_R   0.528405 0.406886 0.074188 0.363946
C24   C     C_R   0.987093 0.608028 0.576111 0.478616
C25   C     C_R   0.963639 0.532327 0.521010 -0.086888
C26   C     C_R   0.855308 0.505728 0.504032 0.041549
C27   C     C_R   0.041035 0.480181 0.483239 -0.094563
C28   C     C_R   0.499235 0.498208 0.365239 0.897397
C29   C     C_R   0.009788 0.401077 0.432115 -0.005664
C30   C     C_R   0.902856 0.374589 0.419368 0.406669
C31   C     C_R   0.827958 0.427870 0.454858 -0.238129
C32   C     C_R   0.149074 0.503101 0.493458 -0.058591
C33   C     C_R   0.195351 0.369417 0.415753 -0.006465
C34   C     C_R   0.535171 0.402104 0.932963 0.304056
C35   C     C_R   0.435693 0.419017 0.731640 -0.309412
C36   C     C_R   0.445716 0.391053 0.803216 -0.180790
C37   C     C_R   0.532975 0.418223 0.856635 0.039794
C38   C     C_R   0.612194 0.470842 0.837264 -0.274377
C39   C     C_R   0.604406 0.497142 0.764990 0.477254
C40   C     C_3   0.514064 0.143393 0.630742 0.059997
C41   C     C_3   0.522690 0.031294 0.656756 -0.364886
C42   C     C_3   0.575749 0.019251 0.737331 -0.919091
C43   C     C_3   0.148442 0.583579 0.662805 0.069834
C44   C     C_3   0.150183 0.650802 0.729853 -0.352757
C45   C     C_R   0.438954 0.390802 0.177786 0.516281
C46   C     C_3   0.236474 0.603621 0.795012 -0.926890
C47   C     C_3   0.784601 0.491549 0.757461 0.117120
C48   C     C_3   0.872213 0.551977 0.801369 -0.340314
C49   C     C_3   0.985720 0.488670 0.814856 -0.985995
C50   C     C_3   0.261945 0.353975 0.131283 0.071264
C51   C     C_3   0.209778 0.273970 0.165417 -0.320655
C52   C     C_3   0.086758 0.306255 0.156665 -0.917770
C53   C     C_R   0.432683 0.416321 0.248728 -0.391650
C54   C     C_R   0.501911 0.481992 0.289314 -0.136591
C55   C     C_R   0.579684 0.522795 0.259241 0.456649
C56   C     C_R   0.588507 0.494559 0.189286 -0.351943
H1    H     H_    0.367036 0.396749 0.691682 0.184164
H2    H     H_    0.748101 0.405051 0.444336 0.200043
H3    H     H_    0.678980 0.494383 0.878191 0.160935
H4    H     H_    0.375811 0.381873 0.272943 0.183431
H5    H     H_    0.648099 0.526282 0.165963 0.169397
H6    H     H_    0.742775 0.217319 0.464068 0.186573
H7    H     H_    0.467220 0.194374 0.663726 0.180348
H8    H     H_    0.597029 0.168849 0.640412 0.109851
H9    H     H_    0.439341 0.007360 0.646530 0.239414
H10   H     H_    0.572850 0.979384 0.626260 0.218308
H11   H     H_    0.659872 0.041359 0.748525 0.261216
H12   H     H_    0.698062 0.872338 0.395419 0.155897
H13   H     H_    0.581161 0.937360 0.754414 0.273110
H14   H     H_    0.525883 0.068640 0.769347 0.265458
H15   H     H_    0.217321 0.135534 0.461734 0.394224
H16   H     H_    0.116065 0.926593 0.500308 0.347378
H17   H     H_    0.792952 0.292642 0.365454 0.323362
H18   H     H_    0.001258 0.315631 0.304528 0.363645
H19   H     H_    0.743285 0.729179 0.651258 0.314200
H20   H     H_    0.234052 0.563424 0.656591 0.182052
H21   H     H_    0.118271 0.508825 0.670717 0.116190
H22   H     H_    0.168649 0.729016 0.718487 0.243879
H23   H     H_    0.768464 0.038976 0.421894 0.176882
H24   H     H_    0.068439 0.659224 0.743312 0.215258
H25   H     H_    0.224333 0.522855 0.805065 0.268048
H26   H     H_    0.229747 0.649794 0.843810 0.265400
H27   H     H_    0.319986 0.604272 0.785536 0.281734
H28   H     H_    0.802624 0.475130 0.703440 0.168371
H29   H     H_    0.790115 0.415125 0.784803 0.106814
H30   H     H_    0.873202 0.624567 0.771783 0.222491
H31   H     H_    0.852069 0.572717 0.854273 0.224269
H32   H     H_    0.986849 0.416033 0.844916 0.270348
H33   H     H_    0.046863 0.534204 0.847800 0.278018
H34   H     H_    0.244531 0.787769 0.504625 0.192534
H35   H     H_    0.008956 0.469447 0.762702 0.262591
H36   H     H_    0.223995 0.359640 0.072383 0.172258
H37   H     H_    0.242075 0.432047 0.153703 0.123890
H38   H     H_    0.223371 0.198094 0.139180 0.238405
H39   H     H_    0.249006 0.264526 0.223972 0.231729
H40   H     H_    0.071414 0.380244 0.184735 0.259419
H41   H     H_    0.051219 0.245782 0.180782 0.289582
H42   H     H_    0.045386 0.315681 0.098451 0.260434
H43   H     H_    0.695752 0.610505 0.269696 0.330149
H44   H     H_    0.567974 0.756738 0.406695 0.187466
H45   H     H_    0.257129 0.328757 0.390467 0.177192
H46   H     H_    0.383712 0.350145 0.816876 0.161953
H47   H     H_    0.179511 0.566995 0.523258 0.209906
H48   H     H_    0.920491 0.718051 0.644921 0.164159
N1    N     N_R   0.625806 0.415605 0.984407 -0.184451
N2    N     N_R   0.622481 0.417874 0.053770 -0.182378
N3    N     N_R   0.438896 0.389536 0.022947 -0.137534
N4    N     N_R   0.442261 0.387025 0.953521 -0.184626
N5    N     N_R   0.222200 0.444680 0.463280 -0.150148
N6    N     N_R   0.776960 0.554780 0.536340 -0.132092
O1    O     O_R   0.366740 0.627160 0.482470 -0.621909
O2    O     O_3   0.294827 0.119311 0.458387 -0.718453
O3    O     O_3   0.155218 0.984989 0.492559 -0.762508
O4    O     O_3   0.873169 0.294079 0.374046 -0.741044
O5    O     O_3   0.063412 0.279941 0.341238 -0.712145
O6    O     O_3   0.714851 0.676639 0.616237 -0.689828
O7    O     O_3   0.088808 0.640177 0.599899 -0.664655
O8    O     O_3   0.680761 0.553110 0.747329 -0.613578
O9    O     O_3   0.375655 0.320180 0.139531 -0.629716
O10   O     O_3   0.645530 0.590037 0.298642 -0.766158
O11   O     O_R   0.544830 0.662520 0.505920 -0.555610
O12   O     O_R   0.410920 0.482320 0.590130 -0.633947
O13   O     O_R   0.589010 0.517690 0.613590 -0.530654
O14   O     O_R   0.455170 0.337480 0.494080 -0.552446
O15   O     O_R   0.633260 0.372840 0.517530 -0.661580
O16   O     O_R   0.410990 0.482310 0.386410 -0.636068
O17   O     O_R   0.589080 0.517680 0.409870 -0.586237
O18   O     O_3   0.455372 0.155370 0.557753 -0.597694
Zn1   Zn    Zn3+2 0.381090 0.476390 0.484340 0.956128
Zn2   Zn    Zn3+2 0.618910 0.523610 0.515660 0.991015

loop_
_geom_bond_atom_site_label_1
_geom_bond_atom_site_label_2
_ccdc_geom_bond_type
C55   C56   A    
C40   C41   S    
C27   C29   A    
C34   C37   S    
C41   C42   S    
C35   C36   A    
O11   Zn2   S    
C3    H23   S    
C21   N6    A    
C7    C8    A    
C53   C54   A    
C6    C19   A    
C24   O7    S    
C29   C30   A    
C40   H7    S    
C33   H45   S    
C47   H29   S    
C31   H2    S    
C36   C37   A    
C10   C15   A    
C8    O2    S    
C30   O4    S    
C30   C31   A    
C46   H27   S    
C5    C17   A    
C40   O18   S    
C52   H41   S    
C42   H14   S    
C22   H48   S    
C3    C18   A    
C36   H46   S    
C5    C16   S    
H43   O10   S    
C46   H26   S    
O15   Zn2   S    
O1    Zn1   S    
C47   O8    S    
C44   C46   S    
C8    C9    A    
N3    N4    A    
C52   H40   S    
C4    C12   S    
C9    C10   A    
C15   H44   S    
O12   Zn1   S    
C3    C13   A    
C28   O17   A    
C55   O10   S    
C45   O9    S    
C45   C53   A    
C26   C31   A    
C13   C14   A    
C49   H32   S    
C49   H35   S    
C21   O6    S    
C53   H4    S    
C28   O16   A    
C20   C29   A    
C2    C45   A    
C1    C19   S    
C32   N5    A    
C51   C52   S    
C44   H24   S    
C24   C25   A    
C28   C54   S    
C18   H6    S    
C41   H9    S    
C5    C18   A    
O16   Zn1   S    
C25   C26   A    
C6    H34   S    
C23   N2    A    
H16   O3    S    
C42   H13   S    
H17   O4    S    
C50   O9    S    
C4    O13   A    
C43   C44   S    
C37   C38   A    
C46   H25   S    
C47   C48   S    
C10   C19   A    
C23   N3    A    
H15   O2    S    
C50   C51   S    
C48   H31   S    
C4    O12   A    
C50   H37   S    
C47   H28   S    
C12   C35   A    
C32   H47   S    
C9    C11   A    
C6    C7    A    
C43   O7    S    
C20   C33   A    
C50   H36   S    
C48   C49   S    
O13   Zn2   S    
N5    Zn1   S    
C42   H11   S    
C48   H30   S    
C33   N5    A    
C16   O15   A    
C43   H20   S    
C26   N6    A    
C54   C55   A    
C11   C17   A    
C27   C32   A    
C14   C15   A    
C34   N1    A    
C49   H33   S    
C20   O5    S    
C17   O18   S    
C41   H10   S    
C43   H21   S    
C39   O8    S    
N1    N2    A    
C40   H8    S    
C35   H1    S    
C34   N4    A    
C7    O3    S    
C12   C39   A    
C44   H22   S    
C16   O14   A    
O17   Zn2   S    
C2    C56   A    
C1    O1    A    
C11   C13   A    
C38   C39   A    
H18   O5    S    
C52   H42   S    
O14   Zn1   S    
N6    Zn2   S    
C22   C24   A    
C1    O11   A    
C51   H38   S    
C38   H3    S    
C2    C23   S    
C14   H12   S    
C56   H5    S    
H19   O6    S    
C21   C22   A    
C51   H39   S    
C25   C27   A    
