data_mof_unit_50397.cif
_audit_creation_date              2012-12-10T16:47:18-0500
_audit_creation_method            fapswitch 2.2
_symmetry_space_group_name_H-M    P1
_symmetry_Int_Tables_number       1
_space_group_crystal_system       triclinic
_cell_length_a                    11.976719
_cell_length_b                    12.477589
_cell_length_c                    7.838891
_cell_angle_alpha                 89.316351
_cell_angle_beta                  94.81397
_cell_angle_gamma                 90.368962
_cell_volume                      1167.21554632

loop_
_atom_site_label
_atom_site_type_symbol
_atom_type_description
_atom_site_fract_x
_atom_site_fract_y
_atom_site_fract_z
_atom_type_partial_charge
C1    C     C_R   0.353994 0.851923 0.456330 0.923694
C2    C     C_2   0.733053 0.776568 0.568518 0.081821
C3    C     C_2   0.738605 0.217647 0.565798 0.081304
C4    C     C_2   0.261394 0.782353 0.434204 0.081308
C5    C     C_2   0.766955 0.723439 0.431482 0.081835
C6    C     C_2   0.233057 0.276570 0.568518 0.081904
C7    C     C_2   0.238614 0.717639 0.565796 0.081247
C8    C     C_2   0.761392 0.282356 0.434202 0.081288
C9    C     C_3   0.726725 0.022490 0.089508 0.234853
C10   C     C_3   0.838673 0.985340 0.033970 -0.669195
C11   C     C_3   0.273279 0.977482 0.910436 0.234763
C12   C     C_R   0.646005 0.148077 0.543670 0.923668
C13   C     C_3   0.161314 0.014628 0.965904 -0.669278
C14   C     C_3   0.226721 0.522494 0.089523 0.234713
C15   C     C_3   0.338677 0.485332 0.034040 -0.669252
C16   C     C_3   0.773276 0.477520 0.910506 0.234837
C17   C     C_3   0.661329 0.514695 0.966017 -0.669214
C18   C     C_R   0.644799 0.850768 0.544166 0.907614
C19   C     C_R   0.355193 0.149227 0.455834 0.907683
C20   C     C_R   0.853994 0.351924 0.456330 0.923687
C21   C     C_R   0.146009 0.648073 0.543671 0.923676
C22   C     C_R   0.144793 0.350762 0.544166 0.907714
C23   C     C_R   0.855204 0.649234 0.455835 0.907626
C24   C     C_2   0.266895 0.223385 0.431501 0.081932
Cl1   Cl    Cl    0.699660 0.725409 0.220040 -0.534225
Cl2   Cl    Cl    0.300484 0.274721 0.779872 -0.534444
Cl3   Cl    Cl    0.331178 0.693229 0.751115 -0.656615
Cl4   Cl    Cl    0.668842 0.306756 0.248863 -0.656604
Cl5   Cl    Cl    0.199371 0.225146 0.220226 -0.534479
Cl6   Cl    Cl    0.800355 0.774604 0.779956 -0.534222
Cl7   Cl    Cl    0.831151 0.193252 0.751144 -0.656548
Cl8   Cl    Cl    0.168833 0.806761 0.248889 -0.656534
H1    H     H_    0.727818 0.001563 0.226280 0.171005
H2    H     H_    0.161016 0.010611 0.107142 0.302866
H3    H     H_    0.227802 0.501574 0.226295 0.170988
H4    H     H_    0.220689 0.610800 0.071164 0.198468
H5    H     H_    0.407098 0.537136 0.092131 0.218453
H6    H     H_    0.354953 0.401591 0.078300 0.296959
H7    H     H_    0.338979 0.489401 0.892774 0.302789
H8    H     H_    0.779307 0.389215 0.928887 0.198450
H9    H     H_    0.772185 0.498422 0.773725 0.171001
H10   H     H_    0.645025 0.598406 0.921686 0.296997
H11   H     H_    0.592905 0.462865 0.908036 0.218495
H12   H     H_    0.720685 0.110797 0.071169 0.198445
H13   H     H_    0.661062 0.510696 0.107267 0.302713
H14   H     H_    0.838912 0.989299 0.892717 0.302738
H15   H     H_    0.907081 0.037212 0.091870 0.218558
H16   H     H_    0.855027 0.901652 0.078357 0.296922
H17   H     H_    0.279308 0.889171 0.928739 0.198473
H18   H     H_    0.272214 0.998435 0.773682 0.171031
H19   H     H_    0.145002 0.098337 0.921587 0.296929
H20   H     H_    0.092913 0.962792 0.907886 0.218462
N1    N     N_2   0.541470 1.000000 0.055820 0.186149
N2    N     N_2   0.458530 1.000000 0.944180 0.186157
N3    N     N_2   0.041470 0.500000 0.055820 0.186145
N4    N     N_2   0.958530 0.500000 0.944180 0.186146
O1    O     O_R   0.375700 0.885870 0.609240 -0.651848
O2    O     O_R   0.597720 0.114130 0.675960 -0.569137
O3    O     O_R   0.597720 0.885870 0.675960 -0.523828
O4    O     O_R   0.402280 0.114130 0.324040 -0.523863
O5    O     O_R   0.902280 0.385870 0.324040 -0.569133
O6    O     O_R   0.097720 0.614130 0.675960 -0.569149
O7    O     O_R   0.097720 0.385870 0.675960 -0.523856
O8    O     O_R   0.902280 0.614130 0.324040 -0.523825
O9    O     O_3   0.638070 0.971696 0.992034 -0.482121
O10   O     O_3   0.361918 0.028256 0.007976 -0.482155
O11   O     O_3   0.138072 0.471694 0.992041 -0.482142
O12   O     O_R   0.624300 0.114130 0.390760 -0.651818
O13   O     O_3   0.861933 0.528328 0.007955 -0.482108
O14   O     O_R   0.624300 0.885870 0.390760 -0.623404
O15   O     O_R   0.375700 0.114130 0.609240 -0.623433
O16   O     O_R   0.875700 0.385870 0.609240 -0.651810
O17   O     O_R   0.124300 0.614130 0.390760 -0.651815
O18   O     O_R   0.124300 0.385870 0.390760 -0.623411
O19   O     O_R   0.875700 0.614130 0.609240 -0.623398
O20   O     O_R   0.402280 0.885870 0.324040 -0.569106
Zn1   Zn    Zn3+2 0.482250 1.000000 0.690430 1.107351
Zn2   Zn    Zn3+2 0.517750 0.000000 0.309570 1.107377
Zn3   Zn    Zn3+2 0.982250 0.500000 0.690430 1.107369
Zn4   Zn    Zn3+2 0.017750 0.500000 0.309570 1.107369

loop_
_geom_bond_atom_site_label_1
_geom_bond_atom_site_label_2
_ccdc_geom_bond_type
C18   O14   A    
N3    N4    D    
O14   Zn2   S    
C19   O15   A    
O3    Zn1   S    
O7    Zn3   S    
N1    N2    D    
C12   O12   A    
O4    Zn2   S    
C8    C20   S    
N4    Zn3   S    
O20   Zn2   S    
O16   Zn3   S    
C14   H4    S    
C2    C18   S    
O5    Zn4   S    
C6    C22   S    
C21   O17   A    
C7    Cl3   S    
C20   O5    A    
C24   Cl5   S    
C15   H5    S    
C3    C12   S    
O2    Zn1   S    
C22   O7    A    
C13   H19   S    
C16   C17   S    
C10   H14   S    
C14   O11   S    
N1    O9    S    
C9    C10   S    
C11   O10   S    
N2    Zn1   S    
C12   O2    A    
O18   Zn4   S    
C9    H1    S    
O8    Zn4   S    
C4    C7    D    
O12   Zn2   S    
O1    Zn1   S    
O6    Zn3   S    
C3    C8    D    
C23   O19   A    
C14   H3    S    
C7    C21   S    
C17   H11   S    
C15   H6    S    
C11   H17   S    
C1    O1    A    
C13   H20   S    
C5    C23   S    
C6    C24   D    
C3    Cl7   S    
C15   H7    S    
C21   O6    A    
C4    Cl8   S    
C16   H8    S    
C5    Cl1   S    
C23   O8    A    
C10   H16   S    
C8    Cl4   S    
C2    C5    D    
C22   O18   A    
O15   Zn1   S    
C17   H10   S    
C9    H12   S    
C1    O20   A    
C16   O13   S    
C17   H13   S    
N3    O11   S    
N2    O10   S    
C19   O4    A    
C2    Cl6   S    
C1    C4    S    
N1    Zn2   S    
C13   H2    S    
C11   H18   S    
N3    Zn4   S    
C11   C13   S    
C6    Cl2   S    
O17   Zn4   S    
C19   C24   S    
C9    O9    S    
C18   O3    A    
N4    O13   S    
C10   H15   S    
C14   C15   S    
C20   O16   A    
O19   Zn3   S    
C16   H9    S    
