data_mof_unit_19852.cif
_audit_creation_date              2012-10-26T18:47:57-0400
_audit_creation_method            fapswitch 2.2
_symmetry_space_group_name_H-M    P1
_symmetry_Int_Tables_number       1
_space_group_crystal_system       triclinic
_cell_length_a                    15.855529
_cell_length_b                    8.694707
_cell_length_c                    7.497518
_cell_angle_alpha                 103.113731
_cell_angle_beta                  94.349276
_cell_angle_gamma                 92.475809
_cell_volume                      1001.80459546

loop_
_atom_site_label
_atom_site_type_symbol
_atom_type_description
_atom_site_fract_x
_atom_site_fract_y
_atom_site_fract_z
_atom_type_partial_charge
C1    C     C_R   0.497517 0.199863 0.453246 0.546494
C2    C     C_2   0.503842 0.968252 0.572706 -0.152997
C3    C     C_R   0.340437 0.498896 0.501881 0.546671
C4    C     C_R   0.502580 0.800143 0.546752 0.547715
C5    C     C_R   0.659546 0.501186 0.498126 0.550709
C6    C     C_3   0.052298 0.434601 0.664113 -0.204894
C7    C     C_3   0.040359 0.396926 0.319324 -0.240098
C8    C     C_3   0.942485 0.393756 0.318896 -0.242282
C9    C     C_1   0.749063 0.503528 0.494828 -0.009444
C10   C     C_3   0.083156 0.500290 0.503314 0.023861
C11   C     C_3   0.891210 0.237060 0.812983 -0.329856
C12   C     C_3   0.954093 0.434782 0.661471 0.034000
C13   C     C_1   0.932227 0.722690 0.332930 0.203459
C14   C     C_3   0.926467 0.799721 0.835096 -0.299215
C15   C     C_3   0.917151 0.505890 0.498841 0.108055
C16   C     C_3   0.958255 0.678655 0.506993 0.141356
C17   C     C_3   0.056868 0.673182 0.525998 -0.204842
C18   C     C_1   0.824663 0.505431 0.495518 -0.003654
C19   C     C_1   0.175312 0.497788 0.505198 -0.073409
C20   C     C_1   0.250898 0.497894 0.505368 -0.031410
C21   C     C_2   0.496387 0.031765 0.427292 -0.152989
Cu1   Cu    Cu3+1 0.509300 0.517380 0.684380 0.965803
Cu2   Cu    Cu3+1 0.490700 0.482620 0.315620 0.963574
H1    H     H_    0.081473 0.508742 0.797427 0.095643
H2    H     H_    0.916198 0.270481 0.303229 0.135689
H3    H     H_    0.914930 0.428748 0.194554 0.114706
H4    H     H_    0.083813 0.744225 0.662679 0.117531
H5    H     H_    0.086550 0.727871 0.423159 0.105775
H6    H     H_    0.943787 0.184236 0.560988 0.253296
H7    H     H_    0.854539 0.121064 0.778556 0.167479
H8    H     H_    0.849387 0.326892 0.882552 0.160609
H9    H     H_    0.948194 0.230749 0.906249 0.128040
H10   H     H_    0.955581 0.918337 0.638344 0.243428
H11   H     H_    0.916130 0.918596 0.920202 0.150463
H12   H     H_    0.939364 0.508307 0.793939 0.142490
H13   H     H_    0.987008 0.761822 0.890516 0.145916
H14   H     H_    0.870788 0.721709 0.845756 0.185712
H15   H     H_    0.489379 0.959916 0.287315 0.135534
H16   H     H_    0.510866 0.040101 0.712683 0.135515
H17   H     H_    0.434716 0.376179 0.949058 0.238448
H18   H     H_    0.565298 0.623800 0.050935 0.242603
H19   H     H_    0.074297 0.313425 0.655162 0.125490
H20   H     H_    0.060104 0.444892 0.202203 0.122515
H21   H     H_    0.061051 0.273884 0.298674 0.119853
N1    N     N_2   0.476670 0.456430 0.038530 -0.257048
N2    N     N_2   0.523330 0.543570 0.961470 -0.255354
N3    N     N_2   0.916378 0.275226 0.645982 -0.525995
N4    N     N_1   0.910045 0.758967 0.199170 -0.384136
N5    N     N_2   0.930511 0.808772 0.646945 -0.538391
O1    O     O_R   0.506050 0.286130 0.619770 -0.505555
O2    O     O_R   0.490330 0.256780 0.308370 -0.498065
O3    O     O_R   0.387300 0.514690 0.655770 -0.500659
O4    O     O_R   0.371580 0.485340 0.344370 -0.495557
O5    O     O_R   0.509670 0.743220 0.691630 -0.497075
O6    O     O_R   0.493950 0.713870 0.380230 -0.505167
O7    O     O_R   0.628420 0.514660 0.655630 -0.492194
O8    O     O_R   0.612700 0.485310 0.344230 -0.498149

loop_
_geom_bond_atom_site_label_1
_geom_bond_atom_site_label_2
_ccdc_geom_bond_type
C14   H11   S    
C15   C18   S    
C2    C4    S    
H18   N2    S    
C1    C21   S    
Cu2   N1    S    
C7    H20   S    
C7    C10   S    
C3    O4    A    
C1    O1    A    
C5    O7    A    
C11   N3    S    
C19   C20   T    
C12   C15   S    
C5    O8    A    
C10   C19   S    
Cu1   O1    S    
C6    H1    S    
C2    C21   D    
C11   H8    S    
C7    C8    S    
Cu1   O5    S    
C7    H21   S    
C12   H12   S    
C5    C9    S    
C8    H2    S    
C1    O2    A    
H6    N3    S    
C12   N3    S    
Cu2   O6    S    
Cu1   N2    S    
C11   H9    S    
Cu2   O4    S    
C8    C15   S    
C4    O6    A    
C6    C12   S    
H17   N1    S    
C3    O3    A    
C14   N5    S    
C6    C10   S    
C10   C17   S    
H10   N5    S    
C15   C16   S    
C17   H4    S    
C9    C18   T    
C3    C20   S    
C8    H3    S    
C16   N5    S    
Cu1   O3    S    
C6    H19   S    
C13   C16   S    
Cu2   O8    S    
Cu1   Cu2   S    
C14   H13   S    
Cu1   O7    S    
C4    O5    A    
N1    N2    D    
C17   H5    S    
Cu2   O2    S    
C2    H16   S    
C21   H15   S    
C11   H7    S    
C16   C17   S    
C14   H14   S    
C13   N4    T    
