data_mof_unit_20547.cif
_audit_creation_date              2012-12-11T15:49:28-0500
_audit_creation_method            fapswitch 2.2
_symmetry_space_group_name_H-M    P1
_symmetry_Int_Tables_number       1
_space_group_crystal_system       triclinic
_cell_length_a                    8.301666
_cell_length_b                    19.00828
_cell_length_c                    27.017548
_cell_angle_alpha                 95.261406
_cell_angle_beta                  92.938029
_cell_angle_gamma                 85.557214
_cell_volume                      4228.47220889

loop_
_atom_site_label
_atom_site_type_symbol
_atom_type_description
_atom_site_fract_x
_atom_site_fract_y
_atom_site_fract_z
_atom_type_partial_charge
Ba1   Ba    Ba6+2 0.854000 0.466860 0.523710 1.649057
Ba2   Ba    Ba6+2 0.335820 0.533080 0.476290 1.658356
C1    C     C_3   0.734303 0.215506 0.634654 -0.270829
C2    C     C_3   0.652869 0.279088 0.665420 0.834167
C3    C     C_3   0.518716 0.627814 0.625937 0.291420
C4    C     C_3   0.514183 0.643184 0.682094 -0.352131
C5    C     C_3   0.099754 0.682003 0.340831 0.352950
C6    C     C_3   0.128784 0.701668 0.288789 -0.302938
C7    C     C_3   0.612393 0.707749 0.344160 0.491475
C8    C     C_3   0.701560 0.734494 0.302806 -0.360576
C9    C     C_R   0.014756 0.448477 0.180210 0.591168
C10   C     C_R   0.921162 0.570716 0.178690 0.581524
C11   C     C_2   0.752490 0.531516 0.270102 -0.102495
C12   C     C_3   0.135414 0.304225 0.659878 0.329879
C13   C     C_3   0.707813 0.521948 0.322704 -0.061211
C14   C     C_1   0.987120 0.489840 0.343046 0.046087
C15   C     C_2   0.028194 0.488356 0.295832 -0.102738
C16   C     C_2   0.905834 0.512027 0.256315 0.208681
C17   C     C_R   0.025858 0.506103 0.103131 -0.079428
C18   C     C_R   0.054674 0.445577 0.129687 -0.034727
C19   C     C_R   0.121507 0.382952 0.105120 -0.060570
C20   C     C_R   0.958645 0.569077 0.127974 -0.027664
C21   C     C_2   0.852853 0.524508 0.358167 -0.280605
C22   C     C_2   0.340688 0.474098 0.639593 -0.285678
C23   C     C_3   0.114806 0.277163 0.710304 -0.371203
C24   C     C_R   0.170291 0.436886 0.976142 0.020503
C25   C     C_R   0.068889 0.562063 0.973731 0.020119
C26   C     C_R   0.137846 0.498049 0.949486 0.050096
C27   C     C_R   0.240563 0.374822 0.950320 -0.100939
C28   C     C_R   0.276234 0.372683 0.900498 -0.058026
C29   C     C_R   0.244140 0.432228 0.873708 -0.025076
C30   C     C_R   0.175027 0.495063 0.897976 -0.079465
C31   C     C_R   0.143695 0.554814 0.870751 -0.035709
C32   C     C_R   0.182124 0.550922 0.819811 0.597568
C33   C     C_R   0.280287 0.429525 0.823020 0.580265
C34   C     C_3   0.188105 0.318693 0.419563 0.307702
C35   C     C_2   0.427705 0.450714 0.727240 -0.078850
C36   C     C_3   0.444292 0.427747 0.672700 -0.057329
C37   C     C_1   0.208102 0.509644 0.656443 0.034660
C38   C     C_2   0.168195 0.512182 0.703987 -0.102466
C39   C     C_2   0.286695 0.483920 0.743123 0.190654
C40   C     C_R   0.132037 0.439484 0.027346 0.020597
C41   C     C_R   0.063743 0.503542 0.051715 0.049720
C42   C     C_R   0.032628 0.564969 0.025260 0.019693
C43   C     C_R   0.159304 0.379840 0.055348 -0.099396
C44   C     C_R   0.930113 0.629282 0.101636 -0.060621
C45   C     C_3   0.203825 0.238788 0.407464 -0.377564
C46   C     C_R   0.038499 0.621060 0.945179 -0.098606
C47   C     C_R   0.075146 0.617409 0.895104 -0.059934
C48   C     C_R   0.965952 0.627415 0.051649 -0.099904
C49   C     C_R   0.404497 0.300312 0.524479 -0.275153
C50   C     C_R   0.541684 0.277462 0.498278 0.078818
C51   C     C_R   0.595600 0.205549 0.494381 -0.129923
C52   C     C_R   0.509862 0.155678 0.515823 -0.016156
C53   C     C_R   0.366194 0.179369 0.539985 -0.133652
C54   C     C_R   0.312625 0.251400 0.543244 0.006996
C55   C     C_R   0.554910 0.036709 0.550311 -0.072109
C56   C     C_3   0.008572 0.683326 0.582806 0.316182
C57   C     C_R   0.605611 0.964505 0.545317 -0.080919
C58   C     C_R   0.667817 0.932543 0.500507 0.063255
C59   C     C_R   0.679810 0.974906 0.461046 -0.052483
C60   C     C_R   0.629190 0.047120 0.466045 -0.073503
C61   C     C_R   0.565547 0.078940 0.510697 0.062398
C62   C     C_R   0.853881 0.828240 0.468599 -0.111866
C63   C     C_R   0.895390 0.754965 0.462815 0.013711
C64   C     C_R   0.662479 0.733996 0.508037 0.058457
C65   C     C_R   0.620934 0.806862 0.514651 -0.082549
C66   C     C_R   0.714920 0.854999 0.494401 0.012123
C67   C     C_3   0.006299 0.762904 0.596145 -0.383436
C68   C     C_R   0.795952 0.708397 0.480825 -0.260635
C69   C     C_3   0.688297 0.371595 0.374374 0.302497
C70   C     C_3   0.714873 0.343023 0.320660 -0.367147
H1    H     H_    0.536787 0.293094 0.644897 -0.189513
H2    H     H_    0.287220 0.224759 0.376645 0.130915
H3    H     H_    0.252327 0.212220 0.440450 0.064031
H4    H     H_    0.083374 0.219388 0.396193 0.126482
H5    H     H_    0.883922 0.668446 0.573802 -0.007069
H6    H     H_    0.084441 0.669326 0.550185 0.059067
H7    H     H_    0.926402 0.778582 0.627641 0.128030
H8    H     H_    0.960864 0.791884 0.564007 0.054458
H9    H     H_    0.130630 0.778105 0.606969 0.127142
H10   H     H_    0.805695 0.386109 0.391968 0.021809
H11   H     H_    0.600947 0.418889 0.375162 0.040077
H12   H     H_    0.649120 0.173583 0.625266 0.011747
H13   H     H_    0.794235 0.293150 0.319742 0.140501
H14   H     H_    0.774015 0.381538 0.300652 0.078470
H15   H     H_    0.597095 0.332205 0.301194 0.124341
H16   H     H_    0.841300 0.192681 0.655595 0.126573
H17   H     H_    0.397194 0.613729 0.611287 0.016169
H18   H     H_    0.608424 0.582333 0.617788 0.077952
H19   H     H_    0.421145 0.686883 0.691533 0.134469
H20   H     H_    0.484001 0.595292 0.699207 0.071520
H21   H     H_    0.634202 0.658593 0.697589 0.133218
H22   H     H_    0.771065 0.232501 0.598972 0.126712
H23   H     H_    0.180479 0.309584 0.739408 0.144693
H24   H     H_    0.199346 0.643747 0.351415 0.127437
H25   H     H_    0.983568 0.656712 0.340325 -0.068322
H26   H     H_    0.137822 0.653027 0.262692 0.104282
H27   H     H_    0.028786 0.738229 0.275495 0.120519
H28   H     H_    0.242756 0.728487 0.288844 0.167697
H29   H     H_    0.702043 0.684389 0.371272 -0.060006
H30   H     H_    0.787568 0.773303 0.318788 0.105036
H31   H     H_    0.614735 0.760522 0.276301 0.149461
H32   H     H_    0.071151 0.357693 0.659126 0.080592
H33   H     H_    0.768454 0.689276 0.282296 0.143849
H34   H     H_    0.149193 0.469127 0.285399 0.131080
H35   H     H_    0.145006 0.335424 0.124408 0.123497
H36   H     H_    0.520703 0.431817 0.753539 0.131927
H37   H     H_    0.329834 0.323460 0.882920 0.121869
H38   H     H_    0.270773 0.326296 0.967363 0.068720
H39   H     H_    0.209332 0.329093 0.040065 0.069448
H40   H     H_    0.658651 0.546079 0.242653 0.105785
H41   H     H_    0.879042 0.678668 0.119680 0.121317
H42   H     H_    0.985613 0.671434 0.960256 0.069014
H43   H     H_    0.266061 0.308082 0.655139 -0.035170
H44   H     H_    0.049034 0.664395 0.875380 0.121543
H45   H     H_    0.048915 0.533883 0.714611 0.131495
H46   H     H_    0.939764 0.676458 0.034891 0.069313
H47   H     H_    0.853241 0.560907 0.391568 0.066576
H48   H     H_    0.361071 0.466832 0.600048 0.081702
H49   H     H_    0.515630 0.825648 0.535430 0.068165
H50   H     H_    0.597164 0.933760 0.576770 0.059510
H51   H     H_    0.508743 0.059682 0.585418 0.058850
H52   H     H_    0.703170 0.188661 0.474177 0.088527
H53   H     H_    0.724597 0.951815 0.425789 0.089288
H54   H     H_    0.985880 0.280467 0.719424 0.169600
H55   H     H_    0.636542 0.077698 0.434452 0.066250
H56   H     H_    0.931764 0.864059 0.454329 0.084571
H57   H     H_    0.292538 0.141822 0.554187 0.077646
H58   H     H_    0.828819 0.652023 0.476507 0.055541
H59   H     H_    0.361168 0.355625 0.526408 0.062342
H60   H     H_    0.162582 0.221048 0.710483 0.100850
H61   H     H_    0.309131 0.337323 0.429687 0.006837
H62   H     H_    0.108067 0.331142 0.451349 0.067591
N1    N     N_R   0.948830 0.510684 0.204380 -0.423223
N2    N     N_R   0.249077 0.488416 0.796030 -0.421310
O1    O     O_2   0.913240 0.537010 0.617740 -0.456930
O2    O     O_3   0.625586 0.318633 0.398560 -0.635946
O3    O     O_3   0.071008 0.256646 0.622746 -0.600530
O4    O     O_2   0.276450 0.462960 0.382230 -0.457218
O5    O     O_3   0.044470 0.462980 0.442430 -0.494018
O6    O     O_3   0.519740 0.589470 0.411120 -0.452104
O7    O     O_3   0.123319 0.350065 0.377405 -0.626915
O8    O     O_3   0.632420 0.583650 0.524140 -0.479229
O9    O     O_3   0.111040 0.625070 0.435230 -0.504322
O10   O     O_2   0.230148 0.750046 0.463862 -0.441167
O11   O     O_3   0.097243 0.742897 0.374342 -0.580152
O12   O     O_3   0.145240 0.536960 0.557560 -0.494574
O13   O     O_3   0.557280 0.416300 0.475860 -0.486397
O14   O     O_2   0.376710 0.670070 0.522470 -0.452055
O15   O     O_3   0.562301 0.688273 0.605230 -0.646706
O16   O     O_2   0.376834 0.542441 0.325608 -0.504423
O17   O     O_3   0.499279 0.661263 0.322599 -0.600748
O18   O     O_2   0.036442 0.395114 0.202438 -0.597225
O19   O     O_2   0.339197 0.374013 0.802908 -0.615111
O20   O     O_2   0.864673 0.625856 0.199999 -0.622125
O21   O     O_2   0.158136 0.603633 0.797016 -0.597215
O22   O     O_3   0.669960 0.410470 0.588880 -0.473116
O23   O     O_2   0.763155 0.472784 0.676662 -0.493994
O24   O     O_3   0.071202 0.649539 0.624058 -0.625163
O25   O     O_3   0.758767 0.334431 0.669942 -0.596957
O26   O     O_2   0.812980 0.329910 0.477500 -0.462348
O27   O     O_3   0.078660 0.374870 0.564770 -0.488145
O28   O     O_2   0.981990 0.248622 0.529007 -0.483841
P1    P     P_3+3 0.082480 0.557670 0.610090 0.996235
P2    P     P_3+3 0.635220 0.340300 0.462910 0.988425
P3    P     P_3+3 0.111434 0.282687 0.564630 0.942117
P4    P     P_3+3 0.107220 0.442270 0.389900 0.993133
P5    P     P_3+3 0.084096 0.717861 0.434788 0.979053
P6    P     P_3+3 0.658068 0.413625 0.653197 0.966614
P7    P     P_3+3 0.559511 0.671159 0.540448 0.957482
P8    P     P_3+3 0.530023 0.578253 0.346066 0.956403
O29   O     O_3   0.624151 0.262588 0.714218 -0.635520
C71   C     C_3   0.518917 0.207577 0.714094 0.134159
H63   H     H_    0.590692 0.155763 0.713667 0.042076
H64   H     H_    0.428568 0.206092 0.682259 0.001779
H65   H     H_    0.452346 0.215029 0.748969 0.103971
I1    I     I_    0.484067 0.797126 0.381427 -0.433319

loop_
_geom_bond_atom_site_label_1
_geom_bond_atom_site_label_2
_ccdc_geom_bond_type
C25   C46   A    
Ba2   O14   S    
C53   C54   A    
O4    P4    D    
O23   P6    D    
Ba2   O8    S    
C17   C18   A    
C41   C42   A    
C34   H61   S    
O1    P1    D    
C70   H13   S    
C5    C6    S    
C64   C68   A    
O29   C71   S    
Ba2   O9    S    
C5    H24   S    
C8    H33   S    
O8    P7    S    
C27   C28   A    
C11   C16   D    
C62   C66   A    
C46   H42   S    
Ba1   O22   S    
C6    H27   S    
C33   O19   D    
C45   H4    S    
C49   C54   A    
C11   H40   S    
C21   H47   S    
C28   C29   A    
O16   P8    D    
C55   C57   A    
C52   C61   S    
Ba2   O12   S    
C12   H43   S    
C10   C20   A    
C68   H58   S    
C22   C37   D    
O15   P7    S    
C54   P3    S    
C34   C45   S    
Ba1   Ba2   S    
C6    H26   S    
C71   H63   S    
C56   H5    S    
C50   P2    S    
O26   P2    D    
C25   C42   A    
C69   H11   S    
O14   P7    D    
C14   C15   D    
C53   H57   S    
C10   N1    Am   
C22   C36   S    
Ba1   O13   S    
C32   N2    Am   
C7    C8    S    
C5    O11   S    
C3    H18   S    
C9    O18   D    
C69   H10   S    
Ba2   O13   S    
C13   C21   S    
C64   C65   A    
C7    O17   S    
C57   C58   A    
O12   P1    S    
C35   C36   S    
C10   O20   D    
C65   H49   S    
C17   C41   A    
C55   C61   A    
C69   O2    S    
C19   C43   A    
O9    P5    S    
C9    C18   A    
C22   H48   S    
C28   H37   S    
C49   C50   A    
C64   P7    S    
C26   C30   A    
C17   C20   A    
C67   H9    S    
C35   H36   S    
C37   C38   D    
C49   H59   S    
O22   P6    S    
C62   H56   S    
C51   C52   A    
C65   C66   A    
C63   P5    S    
C58   C59   A    
C40   C43   A    
C37   P1    S    
O27   P3    S    
C23   H54   S    
C60   C61   A    
C9    N1    Am   
C55   H51   S    
C27   H38   S    
C12   H32   S    
C29   C30   A    
Ba1   P1    S    
C4    H21   S    
C15   C16   S    
C16   N1    S    
O24   P1    S    
C12   O3    S    
O3    P3    S    
C71   H65   S    
C8    H31   S    
C2    H1    S    
C19   H35   S    
O25   P6    S    
C46   C47   A    
C20   C44   A    
Ba1   O26   S    
C23   H23   S    
C14   C21   D    
C2    O29   S    
C11   C13   S    
Ba2   O6    S    
C36   P6    S    
C29   C33   A    
C67   H7    S    
Ba1   O27   S    
C40   C41   A    
C1    C2    S    
Ba2   P4    S    
C1    H12   S    
C70   H15   S    
Ba1   O1    S    
C50   C51   A    
C24   C40   A    
O6    P8    S    
C42   C48   A    
C52   C53   A    
C38   C39   S    
O5    P4    S    
C5    H25   S    
C44   H41   S    
C1    H16   S    
C48   H46   S    
C34   O7    S    
O28   P3    D    
O13   P2    S    
C14   P4    S    
C45   H2    S    
C67   H8    S    
C51   H52   S    
C34   H62   S    
C33   N2    Am   
C70   H14   S    
C43   H39   S    
C56   C67   S    
C44   C48   A    
C24   C26   A    
C3    O15   S    
O2    P2    S    
Ba2   O4    S    
C62   C63   A    
C6    H28   S    
C45   H3    S    
C69   C70   S    
Ba1   O8    S    
C56   O24   S    
C15   H34   S    
C30   C31   A    
C3    C4    S    
Ba1   P2    S    
C57   H50   S    
C4    H20   S    
O17   P8    S    
C31   C32   A    
C13   P8    S    
C38   H45   S    
C1    H22   S    
C12   C23   S    
C35   C39   D    
C59   C60   A    
C71   H64   S    
O7    P4    S    
Ba1   O5    S    
C56   H6    S    
C32   O21   D    
O11   P5    S    
C60   H55   S    
C47   H44   S    
C18   C19   A    
C58   C66   S    
C24   C27   A    
C7    H29   S    
O10   P5    D    
C25   C26   A    
Ba2   O5    S    
C2    O25   S    
Ba1   O12   S    
C59   H53   S    
C63   C68   A    
C23   H60   S    
C31   C47   A    
C8    H30   S    
C39   N2    S    
C3    H17   S    
C7    I1    S    
C4    H19   S    
