data_mof_unit_12752.cif
_audit_creation_date              2013-03-05T15:57:56-0500
_audit_creation_method            fapswitch 2.2
_symmetry_space_group_name_H-M    P1
_symmetry_Int_Tables_number       1
_space_group_crystal_system       triclinic
_cell_length_a                    15.057305
_cell_length_b                    15.06811
_cell_length_c                    17.316453
_cell_angle_alpha                 108.960679
_cell_angle_beta                  105.999023
_cell_angle_gamma                 109.550619
_cell_volume                      3159.09491097

loop_
_atom_site_label
_atom_site_type_symbol
_atom_site_description
_atom_site_fract_x
_atom_site_fract_y
_atom_site_fract_z
_atom_type_partial_charge
C1    C     C_R   0.088471 0.274675 0.032358 -0.127467
C2    C     C_R   0.915326 0.705666 0.914798 -0.147963
H1    H     H_    0.168494 0.290929 0.064716 0.097468
H2    H     H_    0.837568 0.672508 0.862790 0.105019
N1    N     N_R   0.055660 0.348550 0.045620 -0.046446
N2    N     N_R   0.944340 0.651450 0.954380 -0.051211
C3    C     C_R   0.935217 0.478987 0.736603 -0.141405
C4    C     C_R   0.064541 0.483270 0.251951 -0.156614
H3    H     H_    0.856826 0.442744 0.684296 0.111586
H4    H     H_    0.143039 0.508532 0.298855 0.110103
N3    N     N_R   0.960830 0.507850 0.823700 -0.045531
N4    N     N_R   0.039170 0.492150 0.176300 -0.044098
C5    C     C_R   0.717760 0.217373 0.826280 0.496956
C6    C     C_R   0.223992 0.797492 0.187882 0.519623
N5    N     N_R   0.811290 0.303410 0.871650 -0.072241
N6    N     N_R   0.188710 0.696590 0.128350 -0.072509
C7    C     C_R   0.301470 0.595663 0.005693 -0.135592
C8    C     C_R   0.740830 0.468511 0.049387 -0.086936
H5    H     H_    0.334508 0.659988 0.991490 0.141176
H6    H     H_    0.717724 0.431416 0.089132 0.112867
N7    N     N_R   0.205200 0.552990 0.997670 -0.046172
N8    N     N_R   0.794800 0.447010 0.002330 -0.031788
C9    C     C_R   0.726563 0.308569 0.747822 -0.196384
C10   C     C_R   0.221254 0.703141 0.264001 -0.214348
H7    H     H_    0.705757 0.342656 0.704146 0.119880
H8    H     H_    0.229219 0.677837 0.315849 0.126875
N9    N     N_R   0.814800 0.361830 0.823700 -0.066443
N10   N     N_R   0.185200 0.638170 0.176300 -0.065141
C11   C     C_R   0.294218 0.496462 0.076827 -0.115552
C12   C     C_R   0.758502 0.569495 0.978708 -0.121344
H9    H     H_    0.316001 0.463252 0.121144 0.108387
H10   H     H_    0.758625 0.628642 0.956722 0.120228
N11   N     N_R   0.201680 0.494570 0.045620 -0.045414
N12   N     N_R   0.798320 0.505430 0.954380 -0.048892
C13   C     C_R   0.110196 0.570826 0.814725 -0.040536
C14   C     C_R   0.891167 0.396197 0.174917 -0.062817
N13   N     N_R   0.068420 0.560530 0.871650 -0.064279
N14   N     N_R   0.931580 0.439470 0.128350 -0.061437
C15   C     C_R   0.915235 0.193724 0.949830 -0.097771
C16   C     C_R   0.086639 0.790529 0.989724 -0.011530
H11   H     H_    0.836199 0.139542 0.900826 0.167556
H12   H     H_    0.167534 0.837527 0.007162 0.191673
N15   N     N_R   0.948070 0.295860 0.997670 -0.036911
N16   N     N_R   0.051930 0.704140 0.002330 -0.044870
C17   C     C_R   0.000306 0.175508 0.971755 0.016409
C18   C     C_R   0.003112 0.794360 0.935428 -0.003684
C19   C     C_R   0.028140 0.516520 0.729682 -0.036704
C20   C     C_R   0.973426 0.424264 0.252648 -0.039696
C21   C     C_R   0.662423 0.216718 0.747002 -0.112744
C22   C     C_R   0.244479 0.805122 0.274098 -0.099731
C23   C     C_R   0.358153 0.560939 0.053116 0.035938
C24   C     C_R   0.715507 0.543478 0.033198 0.009894
C25   C     C_R   0.907090 0.880365 0.882578 -0.228016
C26   C     C_R   0.089677 0.065840 0.951009 -0.230841
H13   H     H_    0.834541 0.809696 0.856279 0.124746
H14   H     H_    0.160356 0.136531 0.972211 0.129625
H15   H     H_    0.731160 0.888184 0.744467 0.120156
H16   H     H_    0.277517 0.085844 0.090461 0.116548
C27   C     C_R   0.002963 0.879668 0.911500 0.069070
C28   C     C_R   0.996057 0.070517 0.940383 0.073301
C29   C     C_R   0.094819 0.971658 0.937810 0.017036
C30   C     C_R   0.902158 0.974539 0.901946 0.022371
C31   C     C_R   0.716599 0.915082 0.803560 -0.185678
C32   C     C_R   0.284790 0.041872 0.031175 -0.140854
Ni1   Ni    Ni4+2 0.119340 0.493420 0.109960 0.201987
Ni2   Ni    Ni4+2 0.880660 0.506580 0.890040 0.198873
Ni3   Ni    Ni4+2 0.872590 0.372590 0.000000 0.291639
Ni4   Ni    Ni4+2 0.127410 0.627410 0.000000 0.259047
C33   C     C_R   0.595261 0.929860 0.867817 -0.036312
C34   C     C_R   0.394440 0.001900 0.961127 -0.108053
H17   H     H_    0.487739 0.618280 0.439186 0.101958
H18   H     H_    0.552079 0.509233 0.652037 0.100534
C35   C     C_R   0.486125 0.680684 0.343517 -0.112311
C36   C     C_R   0.527586 0.437655 0.738620 -0.113519
H19   H     H_    0.466007 0.740242 0.376863 0.117686
H20   H     H_    0.502681 0.358727 0.688143 0.110827
C37   C     C_R   0.499747 0.672566 0.265290 -0.134728
C38   C     C_R   0.531491 0.454470 0.824000 -0.107664
H21   H     H_    0.490268 0.726674 0.239100 0.117437
H22   H     H_    0.510356 0.388134 0.839179 0.116063
C39   C     C_R   0.524855 0.594674 0.220913 0.109423
C40   C     C_R   0.562478 0.556792 0.889450 0.101320
C41   C     C_R   0.537779 0.526415 0.257218 -0.167121
C42   C     C_R   0.587329 0.641457 0.867796 -0.154298
H23   H     H_    0.556457 0.465400 0.224050 0.119925
H24   H     H_    0.610046 0.720601 0.917195 0.121501
C43   C     C_R   0.524404 0.535090 0.335667 -0.104144
C44   C     C_R   0.584575 0.624334 0.782654 -0.104473
H25   H     H_    0.533740 0.481824 0.362915 0.110402
H26   H     H_    0.605108 0.689791 0.766515 0.120213
C45   C     C_R   0.498382 0.611959 0.378647 -0.104284
C46   C     C_R   0.554802 0.522521 0.718129 -0.105084
C47   C     C_R   0.623003 0.576530 0.126822 -0.244190
C48   C     C_R   0.481093 0.584836 0.990253 -0.234576
H27   H     H_    0.680125 0.575231 0.180048 0.131085
H28   H     H_    0.423902 0.582250 0.934174 0.154789
C49   C     C_R   0.634869 0.567862 0.047581 0.081072
C50   C     C_R   0.462671 0.582196 0.064196 0.056885
C51   C     C_R   0.564012 0.574736 0.979322 0.015529
C52   C     C_R   0.536386 0.584149 0.136366 0.030243
C53   C     C_R   0.615641 0.897371 0.792274 -0.113129
C54   C     C_R   0.383392 0.054915 0.037813 -0.065319
C55   C     C_R   0.969242 0.417232 0.331250 0.174963
C56   C     C_R   0.033514 0.517146 0.649635 0.166054
C57   C     C_R   0.066169 0.612234 0.565246 -0.231685
C58   C     C_R   0.938214 0.320661 0.415111 -0.229914
C59   C     C_R   0.072537 0.613283 0.646428 -0.127644
C60   C     C_R   0.932431 0.320486 0.333737 -0.096211
C61   C     C_R   0.989360 0.419836 0.574055 -0.268432
C62   C     C_R   0.011886 0.513465 0.407312 -0.286849
C63   C     C_R   0.982622 0.417718 0.492560 0.175075
C64   C     C_R   0.020393 0.514905 0.488392 0.183208
H29   H     H_    0.040311 0.587554 0.403267 0.131630
H30   H     H_    0.958950 0.346509 0.578836 0.132998
H31   H     H_    0.901057 0.246302 0.273724 0.122224
H32   H     H_    0.104677 0.688209 0.705828 0.109848
H33   H     H_    0.095293 0.686671 0.562173 0.127092
H34   H     H_    0.909557 0.246044 0.417888 0.131640
C65   C     C_R   0.555203 0.139191 0.678036 0.151634
C66   C     C_R   0.290574 0.901285 0.360830 0.154724
C67   C     C_R   0.397887 0.091785 0.451987 -0.240063
C68   C     C_R   0.412002 0.959726 0.598300 -0.236792
C69   C     C_R   0.336009 0.003718 0.367989 -0.187151
C70   C     C_R   0.504115 0.039100 0.673414 -0.207302
C71   C     C_R   0.302902 0.890484 0.440122 -0.275452
C72   C     C_R   0.509357 0.159620 0.608192 -0.268609
C73   C     C_R   0.375906 0.976414 0.523537 0.190534
C74   C     C_R   0.424424 0.077566 0.529132 0.192734
H35   H     H_    0.552946 0.857464 0.724884 0.105754
H36   H     H_    0.451473 0.107516 0.102069 0.105123
H37   H     H_    0.546339 0.235311 0.609437 0.109508
H38   H     H_    0.266303 0.813578 0.437221 0.117880
H39   H     H_    0.537973 0.018104 0.723642 0.155461
H40   H     H_    0.332854 0.018148 0.310769 0.166257
H41   H     H_    0.435426 0.169085 0.455379 0.128663
H42   H     H_    0.376505 0.882001 0.594644 0.126556
H43   H     H_    0.516810 0.915342 0.858555 0.087997
H44   H     H_    0.471137 0.013543 0.966398 0.108092
C75   C     C_R   0.675853 0.980078 0.954946 -0.039149
C76   C     C_R   0.306595 0.934205 0.877920 -0.082128
H45   H     H_    0.659794 0.004798 0.013387 0.101549
H46   H     H_    0.315314 0.893252 0.818534 0.109082
C77   C     C_R   0.776895 0.997067 0.966604 -0.142742
C78   C     C_R   0.207457 0.919238 0.871412 -0.098172
H47   H     H_    0.838396 0.034086 0.034271 0.110951
H48   H     H_    0.140224 0.868560 0.806346 0.095327
C79   C     C_R   0.798057 0.965595 0.890829 0.089787
C80   C     C_R   0.196120 0.973722 0.947877 0.083606
O1    O     O_3   0.675387 0.166154 0.869910 -0.739241
H49   H     H_    0.603813 0.158276 0.854391 0.315286
O2    O     O_3   0.229049 0.876162 0.163737 -0.803586
H50   H     H_    0.190402 0.908678 0.190386 0.294585
C81   C     C_2   0.217539 0.647624 0.841143 0.917189
O3    O     O_2   0.262726 0.627276 0.794376 -0.647640
O4    O     O_R   0.266157 0.745138 0.918438 -0.826331
H51   H     H_    0.341381 0.789222 0.932038 0.316537
C82   C     C_2   0.783856 0.310546 0.137195 0.921996
O5    O     O_2   0.732846 0.258268 0.055287 -0.618813
O6    O     O_R   0.740495 0.289088 0.194776 -0.816241
H52   H     H_    0.666654 0.228368 0.160528 0.312465

loop_
_geom_bond_atom_site_label_1
_geom_bond_atom_site_label_2
_geom_bond_distance
_ccdc_geom_bond_type
C33   C75   1.398511 A    
C41   C43   1.398609 A    
C17   C28   1.468535 S    
C34   C76   1.399077 A    
C82   O5    1.220924 D    
C43   C45   1.397607 A    
C18   C27   1.473619 S    
C40   C51   1.482621 S    
C63   C64   1.416710 A    
C78   C80   1.402975 A    
C13   C19   1.379161 A    
N12   Ni2   1.881058 S    
C25   C27   1.396397 A    
N11   Ni1   1.881057 S    
C15   H11   1.070380 S    
C26   C28   1.399260 A    
C65   C70   1.408508 A    
C2    C18   1.381322 A    
C3    N3    1.324171 A    
C57   C59   1.376916 A    
N2    Ni2   1.831836 S    
C36   H20   1.079059 S    
C70   H39   1.076495 S    
C55   C62   1.385378 A    
C22   C66   1.474815 S    
C48   C51   1.362553 A    
C60   H31   1.083376 S    
C13   N13   1.329401 A    
C29   C80   1.475167 S    
C42   H24   1.083376 S    
C61   C63   1.375670 A    
C56   C61   1.387705 A    
H18   C46   1.082290 S    
C38   H22   1.083247 S    
C9    C21   1.390507 A    
N7    N11   1.391095 A    
C48   C50   1.392671 A    
N13   Ni4   1.897761 S    
C11   N11   1.335161 A    
C24   C49   1.441222 S    
C28   C30   1.421539 A    
C32   C54   1.397171 A    
C36   C46   1.397635 A    
C68   C73   1.396378 A    
N3    N13   1.383302 A    
C49   C51   1.415816 A    
C75   C77   1.399083 A    
C44   C46   1.397375 A    
C6    O2    1.365669 S    
O2    H50   0.991735 S    
C55   C60   1.395483 A    
N6    Ni4   1.896841 S    
C9    N9    1.332106 A    
C81   O4    1.395836 S    
C10   N10   1.335358 A    
N6    N10   1.391098 A    
N3    Ni2   1.881618 S    
C31   C53   1.396824 A    
C15   C17   1.376677 A    
C23   C50   1.439576 S    
C37   H21   1.083181 S    
N1    N15   1.383300 A    
C82   O6    1.397183 S    
N2    N16   1.383301 A    
C32   C80   1.405679 A    
C10   C22   1.395083 A    
C35   H19   1.082680 S    
C57   H33   1.084269 S    
C2    N2    1.328800 A    
C31   C79   1.404771 A    
C39   C41   1.406321 A    
H15   C31   1.083099 S    
C58   C63   1.400420 A    
C25   H13   1.080148 S    
C33   H43   1.081103 S    
N8    N12   1.391098 A    
C26   H14   1.083409 S    
C27   C29   1.414576 A    
C12   N12   1.315720 A    
C69   H40   1.073456 S    
C8    C24   1.391089 A    
C42   C44   1.397837 A    
C35   C45   1.397109 A    
C67   C74   1.392533 A    
N1    Ni1   1.831837 S    
C66   C71   1.403978 A    
C15   N15   1.317456 A    
H16   C32   1.083248 S    
C20   C55   1.415745 S    
C7    N7    1.319512 A    
N8    Ni3   1.872641 S    
C1    H1    1.080250 S    
C66   C69   1.409921 A    
C3    C19   1.377970 A    
C2    H2    1.079985 S    
C4    C20   1.368430 A    
N15   Ni3   1.872024 S    
C13   C81   1.468808 S    
C25   C30   1.380798 A    
C38   C40   1.403866 A    
N5    N9    1.391098 A    
O6    H52   1.013948 S    
C47   C52   1.395775 A    
C37   C39   1.407828 A    
C4    N4    1.323716 A    
N5    Ni3   1.896842 S    
C67   H41   1.084542 S    
C48   H28   1.085393 S    
C62   H29   1.087175 S    
C68   H42   1.084219 S    
C61   H30   1.085838 S    
C5    C21   1.390722 A    
C14   C82   1.475748 S    
C78   H48   1.082679 S    
C41   H23   1.083130 S    
C57   C64   1.395175 A    
C44   H26   1.081274 S    
C34   H44   1.081066 S    
C40   C42   1.406002 A    
C30   C79   1.479071 S    
C5    N5    1.336988 A    
N7    Ni4   1.872641 S    
C6    N6    1.339983 A    
N16   Ni4   1.872025 S    
C16   C18   1.378811 A    
C68   C70   1.389377 A    
C73   C74   1.409241 A    
C47   C49   1.402184 A    
C77   C79   1.405500 A    
C1    N1    1.341799 A    
C11   C23   1.374902 A    
C77   H47   1.083091 S    
C12   C24   1.367605 A    
C72   C74   1.383865 A    
C19   C56   1.413445 S    
C8    N8    1.341279 A    
C4    H4    1.081849 S    
C76   C78   1.399045 A    
C10   H8    1.076818 S    
C26   C29   1.394538 A    
C34   C54   1.396629 A    
C76   H46   1.082501 S    
C39   C52   1.485397 S    
C33   C53   1.396663 A    
C7    C23   1.366873 A    
N4    Ni1   1.881620 S    
C21   C65   1.471621 S    
C50   C52   1.408643 A    
C14   N14   1.338770 A    
N10   Ni1   1.832076 S    
C5    O1    1.374262 S    
C11   H9    1.080544 S    
N9    Ni2   1.832075 S    
O1    H49   0.990853 S    
C12   H10   1.076593 S    
C75   H45   1.082370 S    
C71   H38   1.081008 S    
C1    C17   1.407784 A    
C6    C22   1.395751 A    
C58   C60   1.386714 A    
C72   H37   1.078747 S    
C16   H12   1.075793 S    
C7    H5    1.071001 S    
C14   C20   1.373032 A    
C8    H6    1.076562 S    
C9    H7    1.078659 S    
N4    N14   1.383303 A    
C62   C64   1.366520 A    
C59   H32   1.082642 S    
C67   C69   1.384154 A    
C65   C72   1.399283 A    
C3    H3    1.081513 S    
C16   N16   1.344428 A    
H17   C45   1.082446 S    
N14   Ni3   1.897760 S    
C47   H27   1.084264 S    
C36   C38   1.397224 A    
O4    H51   1.013594 S    
C71   C73   1.388549 A    
C43   H25   1.082419 S    
C35   C37   1.397950 A    
C54   H36   1.082352 S    
C81   O3    1.222615 D    
C56   C59   1.395488 A    
C58   H34   1.083750 S    
C53   H35   1.082296 S    
