data_mof_unit_27991.cif
_audit_creation_date              2012-12-10T17:29:22-0500
_audit_creation_method            fapswitch 2.2
_symmetry_space_group_name_H-M    P1
_symmetry_Int_Tables_number       1
_space_group_crystal_system       triclinic
_cell_length_a                    12.078806
_cell_length_b                    12.804623
_cell_length_c                    12.997642
_cell_angle_alpha                 85.664498
_cell_angle_beta                  113.453499
_cell_angle_gamma                 94.917334
_cell_volume                      1835.51162524

loop_
_atom_site_label
_atom_site_type_symbol
_atom_type_description
_atom_site_fract_x
_atom_site_fract_y
_atom_site_fract_z
_atom_type_partial_charge
C1    C     C_R   0.476425 0.299589 0.498955 0.861823
C2    C     C_R   0.610906 0.484410 0.831670 -0.089945
C3    C     C_R   0.545258 0.811991 0.516771 -0.182456
C4    C     C_R   0.566627 0.493287 0.709100 0.917433
C5    C     C_R   0.460205 0.187898 0.497228 -0.041915
C6    C     C_R   0.346219 0.032184 0.410839 -0.182452
C7    C     C_R   0.351778 0.138979 0.425392 -0.199429
C8    C     C_R   0.560506 0.130934 0.559202 -0.227697
C9    C     C_R   0.555778 0.024875 0.545431 0.110878
C10   C     C_R   0.448782 0.975489 0.469222 0.192173
C11   C     C_R   0.445748 0.870127 0.453277 -0.303649
C12   C     C_R   0.568972 0.509049 0.995700 0.064391
C13   C     C_R   0.652286 0.860457 0.595687 0.448808
C14   C     C_R   0.656822 0.968114 0.606687 -0.271224
C15   C     C_R   0.024633 0.617246 0.415783 -0.284735
C16   C     C_R   0.525713 0.700257 0.506485 0.949114
C17   C     C_R   0.140187 0.603043 0.421254 0.052672
C18   C     C_R   0.151834 0.448237 0.535995 -0.018900
C19   C     C_R   0.034100 0.458683 0.532024 0.051854
C20   C     C_R   0.968583 0.543969 0.470114 0.092944
C21   C     C_R   0.848745 0.553014 0.463210 0.323920
C22   C     C_R   0.863295 0.398832 0.581408 -0.011022
C23   C     C_R   0.555774 0.540612 0.885736 -0.074372
C24   C     C_R   0.980768 0.386390 0.588210 -0.308685
C25   C     C_R   0.433557 0.505731 0.291100 0.852936
C26   C     C_R   0.327993 0.659451 0.019425 -0.086483
C27   C     C_R   0.396594 0.529355 0.171799 -0.054761
C28   C     C_R   0.696697 0.410492 0.893826 0.133104
C29   C     C_R   0.727321 0.396063 0.008946 -0.129908
C30   C     C_R   0.667052 0.445646 0.061724 0.172026
C31   C     C_3   0.779337 0.643248 0.391078 -0.813870
C32   C     C_3   0.756922 0.346241 0.840376 -0.870741
C33   C     C_3   0.722468 0.438421 0.188421 -0.933842
C34   C     C_R   0.481678 0.540828 0.032240 0.042061
C35   C     C_R   0.407148 0.624875 0.974966 -0.004989
C36   C     C_R   0.414145 0.670787 0.875490 0.402419
C37   C     C_R   0.486064 0.626683 0.831091 -0.196456
C38   C     C_R   0.461154 0.486113 0.120300 -0.217090
C39   C     C_R   0.326433 0.614367 0.119911 -0.223127
H1    H     H_    0.275858 0.649156 0.159790 0.152008
H2    H     H_    0.203868 0.383415 0.583982 0.130281
H3    H     H_    0.271228 0.723993 0.980669 0.216980
H4    H     H_    0.502455 0.413102 0.155873 0.165077
H5    H     H_    0.799173 0.345483 0.058632 0.156934
H6    H     H_    0.488150 0.660719 0.753177 0.233841
H7    H     H_    0.363812 0.832204 0.393648 0.159674
H8    H     H_    0.795876 0.660824 0.812735 0.385263
H9    H     H_    0.783558 0.646885 0.307231 0.187994
H10   H     H_    0.683167 0.637610 0.372550 0.279361
H11   H     H_    0.819235 0.718633 0.430849 0.261956
H12   H     H_    0.263240 0.994506 0.352989 0.144463
H13   H     H_    0.310049 0.874552 0.650114 0.388205
H14   H     H_    0.813892 0.287095 0.900879 0.235042
H15   H     H_    0.687465 0.303200 0.769865 0.228797
H16   H     H_    0.816564 0.398284 0.809507 0.258235
H17   H     H_    0.689241 0.497077 0.225220 0.265101
H18   H     H_    0.704255 0.358336 0.219524 0.247697
H19   H     H_    0.821974 0.454835 0.219294 0.244014
H20   H     H_    0.737474 0.007572 0.665885 0.188677
H21   H     H_    0.274242 0.183975 0.376931 0.156703
H22   H     H_    0.643475 0.170066 0.615778 0.139373
H23   H     H_    0.823584 0.342151 0.624839 0.137184
H24   H     H_    0.981483 0.686318 0.369279 0.161235
H25   H     H_    0.029495 0.320253 0.637044 0.163494
H26   H     H_    0.181436 0.659624 0.379022 0.126338
N1    N     N_R   0.798200 0.480260 0.519790 -0.089021
N2    N     N_R   0.201820 0.519740 0.480210 -0.101073
O1    O     O_R   0.579910 0.341070 0.505280 -0.627036
O2    O     O_2   0.867074 0.862523 0.773282 -0.283125
O3    O     O_3   0.723667 0.697882 0.762742 -0.584975
O4    O     O_2   0.196413 0.745144 0.759066 -0.272235
O5    O     O_2   0.356569 0.868288 0.875034 -0.298789
O6    O     O_3   0.362764 0.816296 0.688108 -0.556825
O7    O     O_R   0.388440 0.353740 0.492580 -0.622063
O8    O     O_R   0.643280 0.490550 0.663120 -0.581383
O9    O     O_R   0.451810 0.503220 0.650420 -0.616487
O10   O     O_R   0.611560 0.646260 0.507420 -0.574323
O11   O     O_R   0.420090 0.658930 0.494720 -0.615447
O12   O     O_R   0.548190 0.496780 0.349580 -0.629360
O13   O     O_R   0.356720 0.509450 0.336880 -0.617914
O14   O     O_2   0.835499 0.738544 0.628879 -0.280927
S1    S     S_3+6 0.775270 0.790034 0.691195 0.041677
S2    S     S_3+6 0.328838 0.777930 0.799449 0.022133
Zn1   Zn    Zn3+2 0.627850 0.491540 0.508480 0.975054
Zn2   Zn    Zn3+2 0.372150 0.508460 0.491520 0.957386

loop_
_geom_bond_atom_site_label_1
_geom_bond_atom_site_label_2
_ccdc_geom_bond_type
C33   H19   S    
C21   N1    A    
C25   O13   A    
C32   H14   S    
C35   C36   A    
O14   S1    D    
C14   H20   S    
C21   C31   S    
C12   C23   A    
C29   C30   A    
C1    C5    S    
C1    O7    A    
C36   C37   A    
C18   C19   A    
O12   Zn1   S    
C34   C35   A    
C26   C39   A    
C36   S2    S    
C1    O1    A    
C16   O10   A    
C22   N1    A    
C4    O8    A    
O2    S1    D    
C19   C20   A    
C27   C39   A    
C8    C9    A    
C6    H12   S    
C9    C10   A    
C32   H16   S    
C3    C13   A    
C8    H22   S    
C33   H17   S    
C24   H25   S    
C25   O12   A    
C13   C14   A    
C31   H10   S    
O3    S1    S    
C32   H15   S    
O4    S2    D    
C15   C20   A    
N2    Zn2   S    
C17   N2    A    
O1    Zn1   S    
C28   C32   S    
H13   O6    S    
C18   H2    S    
C39   H1    S    
C5    C7    A    
O10   Zn1   S    
C18   N2    A    
C23   C37   A    
C13   S1    S    
C2    C4    S    
C9    C14   A    
H8    O3    S    
O13   Zn2   S    
C22   H23   S    
O11   Zn2   S    
C31   H9    S    
C29   H5    S    
C22   C24   A    
C31   H11   S    
C12   C34   A    
C7    H21   S    
C26   H3    S    
C15   C17   A    
C28   C29   A    
C33   H18   S    
C30   C33   S    
C12   C30   A    
C34   C38   A    
C6    C10   A    
C5    C8    A    
C6    C7    A    
C25   C27   S    
C17   H26   S    
C19   C24   A    
C38   H4    S    
C16   O11   A    
O7    Zn2   S    
O8    Zn1   S    
C4    O9    A    
O5    S2    D    
C3    C11   A    
C10   C11   A    
N1    Zn1   S    
C26   C35   A    
C20   C21   A    
C2    C23   A    
C15   H24   S    
C11   H7    S    
C2    C28   A    
C27   C38   A    
C37   H6    S    
O9    Zn2   S    
O6    S2    S    
C3    C16   S    
