data_mof_unit_49592.cif
_audit_creation_date              2012-12-10T22:11:09-0500
_audit_creation_method            fapswitch 2.2
_symmetry_space_group_name_H-M    P1
_symmetry_Int_Tables_number       1
_space_group_crystal_system       triclinic
_cell_length_a                    12.137134
_cell_length_b                    12.295925
_cell_length_c                    22.926084
_cell_angle_alpha                 90.829699
_cell_angle_beta                  90.662643
_cell_angle_gamma                 90.870069
_cell_volume                      3420.43580766

loop_
_atom_site_label
_atom_site_type_symbol
_atom_type_description
_atom_site_fract_x
_atom_site_fract_y
_atom_site_fract_z
_atom_type_partial_charge
C1    C     C_R   0.656661 0.998244 0.579547 0.894642
C2    C     C_R   0.342673 0.001739 0.420840 0.881588
C3    C     C_R   0.895409 0.769038 0.149927 -0.199187
C4    C     C_R   0.103671 0.193557 0.870474 -0.201155
C5    C     C_R   0.086607 0.892961 0.171408 -0.165621
C6    C     C_R   0.910289 0.146413 0.806870 -0.196734
C7    C     C_R   0.086299 0.812336 0.128892 -0.195424
C8    C     C_R   0.911359 0.227837 0.848909 -0.191723
C9    C     C_R   0.902504 0.121877 0.171499 -0.194817
C10   C     C_R   0.100297 0.833653 0.803651 -0.197585
C11   C     C_R   0.903008 0.204339 0.131362 -0.195196
C12   C     C_R   0.097681 0.750940 0.843805 -0.200963
C13   C     C_R   0.153379 0.913532 0.299928 -0.275104
C14   C     C_R   0.887563 0.084731 0.678678 -0.233586
C15   C     C_R   0.235938 0.911844 0.341733 -0.211613
C16   C     C_R   0.805581 0.088631 0.636626 -0.211117
C17   C     C_R   0.825512 0.094890 0.296025 -0.193409
C18   C     C_R   0.118098 0.901535 0.674619 -0.268639
C19   C     C_R   0.741632 0.091905 0.336433 0.449302
C20   C     C_R   0.191270 0.904580 0.628874 0.466139
C21   C     C_3   0.993729 0.007314 0.247961 -0.062375
C22   C     C_3   0.005929 0.991624 0.752520 -0.084058
C23   C     C_R   0.652909 0.001749 0.419911 0.893431
C24   C     C_R   0.344281 0.998188 0.578683 0.891223
C25   C     C_R   0.092001 0.008525 0.290593 0.031537
C26   C     C_R   0.906488 0.989031 0.710461 0.023273
C27   C     C_R   0.256591 0.003347 0.376782 -0.084221
C28   C     C_R   0.741634 0.996183 0.624256 -0.087584
C29   C     C_R   0.894665 0.004993 0.288199 0.079966
C30   C     C_R   0.103632 0.992783 0.711269 0.061012
C31   C     C_R   0.732706 0.002443 0.373629 -0.136963
C32   C     C_R   0.259519 0.996804 0.622532 -0.138753
C33   C     C_R   0.995611 0.103959 0.207125 0.191921
C34   C     C_R   0.006199 0.896769 0.794069 0.207260
C35   C     C_R   0.998393 0.267413 0.123956 -0.021213
C36   C     C_R   0.002182 0.731562 0.875830 -0.028566
C37   C     C_R   0.992695 0.910468 0.205610 0.105122
C38   C     C_R   0.007040 0.089337 0.794351 0.104254
C39   C     C_R   0.990965 0.749611 0.118288 -0.022786
C40   C     C_R   0.008051 0.252211 0.880600 -0.021994
C41   C     C_R   0.992820 0.662469 0.075180 0.864733
C42   C     C_R   0.007065 0.338069 0.924485 0.866175
C43   C     C_R   0.999012 0.351971 0.080778 0.869631
C44   C     C_R   0.001107 0.647574 0.919098 0.869487
C45   C     C_R   0.111877 0.101221 0.327311 0.517096
C46   C     C_R   0.846362 0.892212 0.694245 0.484024
C47   C     C_R   0.193619 0.096461 0.370545 -0.320437
C48   C     C_R   0.760504 0.899598 0.653620 -0.307321
C49   C     C_R   0.880184 0.913691 0.323868 -0.186794
C50   C     C_R   0.165989 0.088034 0.700767 -0.187648
C51   C     C_R   0.800574 0.912729 0.366321 -0.275170
C52   C     C_R   0.245626 0.088584 0.658172 -0.272368
C53   C     C_R   0.093080 0.164231 0.196854 -0.158126
C54   C     C_R   0.912546 0.879544 0.828821 -0.048963
C55   C     C_R   0.093797 0.246418 0.156311 -0.227847
C56   C     C_R   0.909739 0.796162 0.868407 -0.196069
C57   C     C_R   0.895775 0.849319 0.192900 -0.184317
C58   C     C_R   0.102474 0.111267 0.828599 -0.169545
H1    H     H_    0.206181 0.164376 0.400520 0.165904
H2    H     H_    0.709202 0.828626 0.644309 0.169183
H3    H     H_    0.933169 0.843990 0.319773 0.163519
H4    H     H_    0.152274 0.163700 0.723857 0.158657
H5    H     H_    0.169796 0.147267 0.219021 0.124054
H6    H     H_    0.840376 0.929481 0.824060 0.118900
H7    H     H_    0.818905 0.864689 0.214639 0.139020
H8    H     H_    0.176248 0.064057 0.822746 0.141019
H9    H     H_    0.160574 0.942261 0.177826 0.138168
H10   H     H_    0.832238 0.126599 0.785860 0.146105
H11   H     H_    0.828731 0.071897 0.175172 0.128335
H12   H     H_    0.176941 0.848814 0.781451 0.144397
H13   H     H_    0.135830 0.838073 0.276735 0.170439
H14   H     H_    0.937525 0.157346 0.686455 0.168034
H15   H     H_    0.836586 0.169587 0.272504 0.178860
H16   H     H_    0.068171 0.829247 0.679606 0.162047
H17   H     H_    0.793776 0.842688 0.394259 0.181095
H18   H     H_    0.294916 0.161767 0.652433 0.179743
H19   H     H_    0.169245 0.292740 0.149985 0.159204
H20   H     H_    0.836208 0.783741 0.893964 0.149991
H21   H     H_    0.820474 0.722101 0.141608 0.154468
H22   H     H_    0.178425 0.209744 0.895582 0.155265
H23   H     H_    0.160460 0.799906 0.103970 0.156200
H24   H     H_    0.835759 0.271072 0.856854 0.158214
H25   H     H_    0.829399 0.217061 0.105329 0.157764
H26   H     H_    0.170702 0.702692 0.850104 0.157845
H27   H     H_    0.282337 0.838050 0.347288 0.170491
H28   H     H_    0.793345 0.163579 0.613307 0.171466
O1    O     O_R   0.621380 0.090460 0.561410 -0.629019
O2    O     O_R   0.378620 0.909540 0.438590 -0.638647
O3    O     O_R   0.617150 0.909540 0.438590 -0.641462
O4    O     O_R   0.382850 0.090460 0.561410 -0.639216
O5    O     O_R   0.619720 0.093230 0.440890 -0.572042
O6    O     O_R   0.380280 0.906770 0.559110 -0.575524
O7    O     O_R   0.618800 0.906770 0.559110 -0.633275
O8    O     O_R   0.381200 0.093230 0.440890 -0.634290
O9    O     O_R   0.087590 0.627480 0.058790 -0.628537
O10   O     O_R   0.912410 0.372520 0.941210 -0.629796
O11   O     O_R   0.905660 0.383870 0.059980 -0.628929
O12   O     O_R   0.094340 0.616130 0.940020 -0.627956
O13   O     O_R   0.092570 0.390420 0.063230 -0.627115
O14   O     O_R   0.907430 0.609580 0.936770 -0.626432
O15   O     O_R   0.900680 0.620930 0.055550 -0.627685
O16   O     O_R   0.099320 0.379070 0.944450 -0.626635
Zn1   Zn    Zn3+2 0.501730 0.123520 0.501540 0.956493
Zn2   Zn    Zn3+2 0.498270 0.876480 0.498460 0.949490
Zn3   Zn    Zn3+2 0.125690 0.504390 0.002180 0.938680
Zn4   Zn    Zn3+2 0.874310 0.495610 0.997820 0.937838
O17   O     O_3   0.670628 0.178529 0.340291 -0.629191
C59   C     C_3   0.581243 0.157857 0.301459 0.074532
H29   H     H_    0.536394 0.081556 0.313258 0.125626
H30   H     H_    0.610842 0.150513 0.255702 0.123651
C60   C     C_3   0.500930 0.252080 0.304986 -0.274199
H31   H     H_    0.469583 0.259783 0.350215 0.231139
H32   H     H_    0.544649 0.329012 0.293910 0.219121
C61   C     C_3   0.403683 0.234286 0.262933 -1.025016
H33   H     H_    0.433107 0.224226 0.217504 0.267962
H34   H     H_    0.349277 0.305945 0.264686 0.258131
H35   H     H_    0.355408 0.160774 0.275150 0.267690
O18   O     O_3   0.192606 0.818643 0.589274 -0.634370
C62   C     C_3   0.114626 0.839381 0.544603 0.086472
H36   H     H_    0.126947 0.922341 0.526330 0.127626
H37   H     H_    0.029489 0.832149 0.561988 0.130334
C63   C     C_3   0.127642 0.756551 0.494935 -0.302962
H38   H     H_    0.212916 0.762071 0.477955 0.244734
H39   H     H_    0.113533 0.673115 0.511610 0.215825
C64   C     C_3   0.046192 0.777276 0.445186 -0.982489
H40   H     H_    0.960236 0.767201 0.460550 0.262236
H41   H     H_    0.059865 0.718415 0.408916 0.267206
H42   H     H_    0.057772 0.860895 0.428356 0.284957
O19   O     O_3   0.040635 0.188791 0.324752 -0.653337
C65   C     C_3   0.096001 0.291135 0.326014 0.053838
H43   H     H_    0.068311 0.336712 0.287145 0.173076
H44   H     H_    0.187346 0.286679 0.323082 0.127098
C66   C     C_3   0.063161 0.355201 0.380654 -0.312589
H45   H     H_    0.972354 0.365809 0.380393 0.238918
H46   H     H_    0.085893 0.309393 0.420295 0.216686
C67   C     C_3   0.119684 0.466902 0.383405 -0.987795
H47   H     H_    0.210654 0.458218 0.384490 0.265995
H48   H     H_    0.094417 0.510884 0.423599 0.270155
H49   H     H_    0.095668 0.515552 0.344962 0.264222
O20   O     O_3   0.866448 0.793431 0.720927 -0.660293
C68   C     C_3   0.880251 0.706335 0.680533 0.061502
H50   H     H_    0.961740 0.669853 0.689624 0.166965
H51   H     H_    0.881193 0.730862 0.633861 0.120765
C69   C     C_3   0.791706 0.618769 0.690224 -0.320171
H52   H     H_    0.796611 0.591131 0.736131 0.232856
H53   H     H_    0.708649 0.652859 0.682723 0.214362
C70   C     C_3   0.806683 0.521158 0.649359 -0.968620
H54   H     H_    0.800137 0.546543 0.603156 0.265965
H55   H     H_    0.741552 0.459048 0.657592 0.265746
H56   H     H_    0.888378 0.484052 0.657024 0.264490

loop_
_geom_bond_atom_site_label_1
_geom_bond_atom_site_label_2
_ccdc_geom_bond_type
C16   C28   A    
C9    C33   A    
C45   O19   S    
C5    C37   A    
C53   H5    S    
C17   C29   A    
C70   H54   S    
C5    H9    S    
C3    H21   S    
C20   O18   S    
C61   H33   S    
C39   C41   S    
C29   C49   A    
O12   Zn3   S    
C42   O10   A    
C70   H55   S    
C43   O13   A    
C4    H22   S    
C69   C70   S    
C55   H19   S    
C21   C33   S    
C22   C38   S    
C24   O6    A    
C56   H20   S    
C59   H29   S    
C12   H26   S    
O16   Zn3   S    
C45   C47   A    
C1    O1    A    
O18   C62   S    
C32   C52   A    
O10   Zn4   S    
O9    Zn3   S    
C38   C58   A    
C44   O12   A    
C58   H8    S    
C4    C40   A    
C59   H30   S    
C49   C51   A    
C66   C67   S    
C50   C52   A    
O17   C59   S    
C6    C38   A    
C2    O2    A    
C2    C27   S    
C18   C30   A    
C12   C36   A    
C35   C43   S    
C18   C20   A    
C15   H27   S    
C62   H37   S    
C30   C50   A    
C19   C31   A    
C18   H16   S    
C17   H15   S    
C13   C25   A    
C41   O9    A    
C67   H49   S    
O13   Zn3   S    
C42   O16   A    
O7    Zn2   S    
O2    Zn2   S    
C48   H2    S    
C46   C48   A    
C53   C55   A    
C33   C53   A    
C22   C34   S    
C54   C56   A    
C49   H3    S    
C35   C55   A    
C2    O8    A    
C70   H56   S    
O20   C68   S    
C10   C34   A    
C68   C69   S    
O5    Zn1   S    
C5    C7    A    
O6    Zn2   S    
C67   H47   S    
C6    C8    A    
C13   H13   S    
C11   H25   S    
C21   C29   S    
C23   C31   S    
C65   H44   S    
C24   C32   S    
C36   C56   A    
C1    C28   S    
C15   C27   A    
C57   H7    S    
C6    H10   S    
C23   O3    A    
C60   H32   S    
C14   C26   A    
C9    C11   A    
C10   C12   A    
O1    Zn1   S    
O11   Zn4   S    
C3    C57   A    
C69   H53   S    
C7    H23   S    
O8    Zn1   S    
C34   C54   A    
C13   C15   A    
O3    Zn2   S    
C64   H40   S    
C9    H11   S    
C14   C16   A    
C36   C44   S    
C65   C66   S    
C63   H39   S    
C25   C45   A    
C51   H17   S    
C67   H48   S    
C46   O20   S    
O19   C65   S    
C20   C32   A    
C62   C63   S    
C27   C47   A    
O15   Zn4   S    
C21   C25   S    
C40   C42   S    
C28   C48   A    
C22   C30   S    
C60   H31   S    
C14   H14   S    
C10   H12   S    
C43   O11   A    
C31   C51   A    
C69   H52   S    
C52   H18   S    
C24   O4    A    
C61   H34   S    
C62   H36   S    
O14   Zn4   S    
C59   C60   S    
C63   C64   S    
C68   H51   S    
C65   H43   S    
C68   H50   S    
C44   O14   A    
C66   H45   S    
C54   H6    S    
C16   H28   S    
C64   H42   S    
C50   H4    S    
C11   C35   A    
C17   C19   A    
C41   O15   A    
C60   C61   S    
C23   O5    A    
O4    Zn1   S    
C61   H35   S    
C26   C46   A    
C47   H1    S    
C8    H24   S    
C21   C37   S    
C1    O7    A    
C22   C26   S    
C4    C58   A    
C64   H41   S    
C66   H46   S    
C7    C39   A    
C8    C40   A    
C63   H38   S    
C37   C57   A    
C3    C39   A    
C19   O17   S    
