data_mof_unit_61860.cif
_audit_creation_date              2012-12-10T21:27:28-0500
_audit_creation_method            fapswitch 2.2
_symmetry_space_group_name_H-M    P1
_symmetry_Int_Tables_number       1
_space_group_crystal_system       triclinic
_cell_length_a                    10.620919
_cell_length_b                    16.268922
_cell_length_c                    16.537596
_cell_angle_alpha                 85.431563
_cell_angle_beta                  93.816212
_cell_angle_gamma                 108.492525
_cell_volume                      2698.80870335

loop_
_atom_site_label
_atom_site_type_symbol
_atom_type_description
_atom_site_fract_x
_atom_site_fract_y
_atom_site_fract_z
_atom_type_partial_charge
C1    C     C_R   0.498214 0.486935 0.653328 0.969890
C2    C     C_R   0.501955 0.513092 0.346681 0.970196
C3    C     C_R   0.410263 0.406155 0.782096 0.216538
C4    C     C_R   0.591940 0.593805 0.218324 0.213846
C5    C     C_R   0.438934 0.752696 0.453926 0.346618
C6    C     C_R   0.560743 0.247271 0.546297 0.348054
C7    C     C_R   0.431502 0.838204 0.458135 -0.184882
C8    C     C_R   0.568252 0.161759 0.542208 -0.183760
C9    C     C_R   0.504414 0.890438 0.520537 0.224796
C10   C     C_R   0.495889 0.109568 0.479640 0.224990
C11   C     C_R   0.577473 0.853934 0.577450 -0.257862
C12   C     C_R   0.423392 0.146146 0.422428 -0.257921
C13   C     C_R   0.583763 0.769428 0.571414 0.036125
C14   C     C_R   0.417025 0.230658 0.428322 0.036077
C15   C     C_R   0.745504 0.538101 0.498879 0.944089
C16   C     C_R   0.254474 0.461902 0.501381 0.950505
C17   C     C_2   0.889025 0.565356 0.494640 0.105771
C18   C     C_2   0.110839 0.434935 0.505915 0.104898
C19   C     C_2   0.945880 0.508792 0.473356 -0.161651
C20   C     C_2   0.054515 0.492017 0.527165 -0.163277
C21   C     C_R   0.503884 0.475404 0.740922 -0.164428
C22   C     C_R   0.497312 0.524799 0.259095 -0.163584
C23   C     C_R   0.611277 0.530925 0.783030 -0.234325
C24   C     C_R   0.390167 0.469617 0.216536 -0.231695
C25   C     C_R   0.623069 0.522254 0.867239 -0.087861
C26   C     C_R   0.379483 0.478429 0.132300 -0.088016
C27   C     C_R   0.520428 0.459509 0.909346 0.149674
C28   C     C_R   0.483022 0.540918 0.090649 0.149372
C29   C     C_R   0.419895 0.397843 0.866993 0.260872
C30   C     C_R   0.583479 0.602223 0.133406 0.261293
H1    H     H_    0.312982 0.421300 0.249591 0.209587
H2    H     H_    0.687815 0.579400 0.749632 0.210089
H3    H     H_    0.631533 0.892297 0.626783 0.203547
H4    H     H_    0.369875 0.107841 0.372925 0.203626
N1    N     N_2   0.507465 0.464554 0.992746 -0.096571
N2    N     N_2   0.496540 0.536037 0.007293 -0.096597
N3    N     N_R   0.515370 0.719110 0.509820 -0.146811
N4    N     N_R   0.484630 0.280890 0.490180 -0.145960
N5    N     N_2   0.501087 0.976610 0.532013 -0.111861
N6    N     N_2   0.499309 0.023400 0.468229 -0.111853
O1    O     O_R   0.494500 0.421750 0.612630 -0.566031
O2    O     O_R   0.505500 0.578250 0.387370 -0.565282
O3    O     O_R   0.504370 0.562470 0.618930 -0.609487
O4    O     O_R   0.495630 0.437530 0.381070 -0.608360
O5    O     O_R   0.679100 0.455920 0.498020 -0.587218
O6    O     O_R   0.320900 0.544080 0.501980 -0.589438
O7    O     O_R   0.688960 0.596630 0.504320 -0.551024
O8    O     O_R   0.311040 0.403370 0.495680 -0.550398
Zn1   Zn    Zn3+2 0.493410 0.406040 0.495790 1.074220
Zn2   Zn    Zn3+2 0.506590 0.593960 0.504210 1.072959
C31   C     C_2   0.088042 0.524760 0.610997 1.017302
O9    O     O_2   0.007707 0.546898 0.646381 -0.580112
O10   O     O_R   0.207767 0.524675 0.651721 -0.797737
H5    H     H_    0.217269 0.546374 0.708306 0.367229
C32   C     C_2   0.918509 0.480874 0.387849 1.022812
O11   O     O_2   0.005479 0.467439 0.351036 -0.577862
O12   O     O_R   0.796017 0.474973 0.347778 -0.795713
H6    H     H_    0.790903 0.457333 0.289918 0.367522
C33   C     C_2   0.663351 0.737129 0.634674 0.983084
O13   O     O_2   0.639884 0.736830 0.706116 -0.588679
O14   O     O_R   0.770765 0.712786 0.613674 -0.729335
H7    H     H_    0.821484 0.695595 0.662707 0.363807
C34   C     C_2   0.338361 0.263057 0.364554 0.984145
O15   O     O_2   0.362054 0.262661 0.293249 -0.587833
O16   O     O_R   0.231589 0.288387 0.384942 -0.730018
H8    H     H_    0.181123 0.305206 0.335603 0.363383
Br1   Br    Br    0.003402 0.318969 0.481653 -0.314337
Br2   Br    Br    0.994839 0.684211 0.508653 -0.304198
C35   C     C_2   0.258483 0.423769 0.089324 1.033029
O17   O     O_2   0.222894 0.448650 0.022563 -0.559624
O18   O     O_R   0.182341 0.344936 0.126346 -0.749439
H9    H     H_    0.101689 0.314049 0.091382 0.380492
C36   C     C_2   0.744275 0.577318 0.909707 1.032531
O19   O     O_2   0.781006 0.552604 0.976228 -0.559166
O20   O     O_R   0.819311 0.656344 0.872466 -0.748737
H10   H     H_    0.900238 0.687508 0.907087 0.380484
Br3   Br    Br    0.294102 0.304353 0.926127 -0.289725
Br4   Br    Br    0.710676 0.695393 0.074829 -0.289163
Br5   Br    Br    0.264614 0.327023 0.723423 -0.303143
Br6   Br    Br    0.737320 0.672444 0.277619 -0.303981
Br7   Br    Br    0.671736 0.318463 0.627702 -0.346838
Br8   Br    Br    0.327841 0.681528 0.372545 -0.340087
C37   C     C_2   0.659487 0.130731 0.599273 1.017892
O21   O     O_2   0.746461 0.107094 0.572966 -0.550895
O22   O     O_R   0.645371 0.128020 0.682968 -0.726149
H11   H     H_    0.713257 0.105508 0.715495 0.372333
C38   C     C_2   0.339915 0.869234 0.401352 1.018725
O23   O     O_2   0.253381 0.893083 0.427949 -0.550252
O24   O     O_R   0.353241 0.871751 0.317591 -0.725836
H12   H     H_    0.285194 0.894295 0.285282 0.372611

loop_
_geom_bond_atom_site_label_1
_geom_bond_atom_site_label_2
_ccdc_geom_bond_type
O4    Zn1   S    
C32   O11   D    
C34   O16   S    
C1    C21   S    
C5    Br8   S    
C5    N3    A    
C27   C29   A    
C8    C37   S    
C36   O19   D    
N1    N2    D    
C15   O7    A    
C38   O23   D    
C3    Br5   S    
C16   O8    A    
N4    Zn1   S    
O22   H11   S    
C24   C26   A    
C4    Br6   S    
C20   C31   S    
C9    N5    S    
C18   C20   D    
C10   N6    S    
C3    C29   A    
C1    O3    A    
C7    C38   S    
C19   C20   S    
C2    O4    A    
C2    C22   S    
C6    N4    A    
C13   N3    A    
C33   O13   D    
C6    Br7   S    
C36   O20   S    
O14   H7    S    
O1    Zn1   S    
O7    Zn2   S    
C21   C23   A    
C33   O14   S    
C35   O18   S    
C31   O9    D    
C11   H3    S    
C16   O6    A    
N5    N6    D    
C5    C7    A    
C6    C8    A    
C27   N1    S    
C18   Br1   S    
O10   H5    S    
C31   O10   S    
O20   H10   S    
C14   N4    A    
C4    C22   A    
C37   O21   D    
O5    Zn1   S    
C16   C18   S    
C9    C11   A    
C10   C12   A    
O2    Zn2   S    
C1    O1    A    
O8    Zn1   S    
C37   O22   S    
C12   C14   A    
C32   O12   S    
C22   C24   A    
C3    C21   A    
C15   O5    A    
C12   H4    S    
C19   C32   S    
C15   C17   S    
C17   Br2   S    
O3    Zn2   S    
C13   C33   S    
C25   C27   A    
O6    Zn2   S    
C26   C28   A    
C23   H2    S    
C38   O24   S    
C24   H1    S    
O18   H9    S    
N3    Zn2   S    
C11   C13   A    
O12   H6    S    
C2    O2    A    
C14   C34   S    
C28   C30   A    
C17   C19   D    
C25   C36   S    
C23   C25   A    
C35   O17   D    
C34   O15   D    
C30   Br4   S    
C7    C9    A    
C29   Br3   S    
C28   N2    S    
C8    C10   A    
O16   H8    S    
C26   C35   S    
O24   H12   S    
C4    C30   A    
