data_mof_unit_15720.cif
_audit_creation_date              2012-12-10T18:12:34-0500
_audit_creation_method            fapswitch 2.2
_symmetry_space_group_name_H-M    P1
_symmetry_Int_Tables_number       1
_space_group_crystal_system       triclinic
_cell_length_a                    12.680709
_cell_length_b                    13.074605
_cell_length_c                    15.721469
_cell_angle_alpha                 91.706497
_cell_angle_beta                  102.736834
_cell_angle_gamma                 81.702012
_cell_volume                      2515.78340475

loop_
_atom_site_label
_atom_site_type_symbol
_atom_type_description
_atom_site_fract_x
_atom_site_fract_y
_atom_site_fract_z
_atom_type_partial_charge
C1    C     C_R   0.439053 0.691174 0.485055 0.865203
C2    C     C_3   0.505419 0.502883 0.918012 0.170204
C3    C     C_3   0.452507 0.422763 0.016052 -0.157409
C4    C     C_3   0.500985 0.500384 0.083375 0.174705
C5    C     C_3   0.557780 0.411480 0.979579 -0.248694
C6    C     C_3   0.605223 0.489361 0.048068 -0.023223
C7    C     C_1   0.505353 0.502432 0.826937 0.019414
C8    C     C_1   0.497316 0.499376 0.173656 0.008239
C9    C     C_R   0.707057 0.062824 0.434189 -0.019953
C10   C     C_R   0.597139 0.199123 0.497666 -0.068972
C11   C     C_R   0.298947 0.843381 0.484029 -0.151640
C12   C     C_R   0.501215 0.500540 0.661768 0.924239
C13   C     C_R   0.268393 0.949542 0.484185 -0.140670
C14   C     C_R   0.342858 0.014709 0.475821 -0.193795
C15   C     C_R   0.448028 0.973714 0.463069 0.104366
C16   C     C_R   0.470748 0.867268 0.447854 0.082333
C17   C     C_R   0.531458 0.035218 0.465683 0.072321
C18   C     C_R   0.626966 0.996807 0.434617 0.077377
C19   C     C_R   0.639719 0.893554 0.407160 -0.204654
C20   C     C_R   0.563030 0.829963 0.413733 -0.221447
C21   C     C_R   0.523394 0.132784 0.502856 -0.250371
C22   C     C_R   0.690375 0.164041 0.465706 -0.235465
C23   C     C_R   0.561187 0.308544 0.508003 0.857232
C24   C     C_R   0.400975 0.801327 0.468700 -0.125052
C25   C     C_R   0.094496 0.334358 0.385738 -0.276353
C26   C     C_R   0.807466 0.615927 0.615418 0.092942
C27   C     C_R   0.917444 0.619007 0.651368 -0.205841
C28   C     C_R   0.995338 0.566755 0.611196 -0.198517
C29   C     C_R   0.964577 0.514765 0.532060 0.045600
C30   C     C_R   0.854045 0.500042 0.504684 0.217731
C31   C     C_R   0.041946 0.469413 0.484156 -0.056096
C32   C     C_R   0.014538 0.389431 0.424658 0.168025
C33   C     C_R   0.907517 0.366575 0.404623 -0.196780
C34   C     C_R   0.498827 0.499556 0.338260 0.868243
C35   C     C_R   0.827489 0.423864 0.441755 -0.163753
C36   C     C_R   0.144834 0.502657 0.491440 0.061763
C37   C     C_R   0.199547 0.361299 0.404689 -0.018919
C38   C     C_3   0.448827 0.591856 0.021866 -0.246348
C39   C     C_3   0.553548 0.579767 0.985517 -0.038622
C40   C     C_1   0.503991 0.501665 0.751306 -0.115123
C41   C     C_1   0.496548 0.499120 0.248864 -0.142683
C42   C     C_3   0.400333 0.514078 0.952948 -0.150711
H1    H     H_    0.457714 0.160259 0.535026 0.156660
H2    H     H_    0.244158 0.794179 0.498179 0.189915
H3    H     H_    0.315494 0.096774 0.477307 0.137150
H4    H     H_    0.188594 0.981422 0.494646 0.159588
H5    H     H_    0.576280 0.751522 0.390415 0.185522
H6    H     H_    0.262732 0.317318 0.376886 0.146877
H7    H     H_    0.884987 0.305844 0.358629 0.173839
H8    H     H_    0.076287 0.270597 0.341913 0.155426
H9    H     H_    0.404437 0.665553 0.040689 0.154069
H10   H     H_    0.079604 0.564802 0.644650 0.166790
H11   H     H_    0.943092 0.661385 0.710877 0.182782
H12   H     H_    0.747035 0.403296 0.423297 0.202975
H13   H     H_    0.602644 0.337984 0.960866 0.154335
H14   H     H_    0.410741 0.358364 0.030342 0.148887
H15   H     H_    0.316137 0.524163 0.912036 0.151312
H16   H     H_    0.746761 0.217201 0.460523 0.175344
H17   H     H_    0.710614 0.858936 0.383883 0.203466
N1    N     N_R   0.222180 0.444680 0.455580 -0.138048
N2    N     N_R   0.776980 0.554790 0.543960 -0.168615
O1    O     O_R   0.366730 0.627160 0.478790 -0.578542
O2    O     O_R   0.544830 0.662520 0.507160 -0.656463
O3    O     O_R   0.410960 0.482330 0.609040 -0.573341
O4    O     O_R   0.589060 0.517690 0.637410 -0.602867
O5    O     O_R   0.455170 0.337480 0.492840 -0.624774
O6    O     O_R   0.633270 0.372840 0.521210 -0.632714
O7    O     O_R   0.410940 0.482310 0.362590 -0.614534
O8    O     O_R   0.589040 0.517670 0.390960 -0.625980
Zn1   Zn    Zn3+2 0.381080 0.476390 0.481050 0.979486
Zn2   Zn    Zn3+2 0.618920 0.523610 0.518950 0.943181
C43   C     C_2   0.610010 0.668444 0.970420 0.394357
H18   H     H_    0.640729 0.716919 0.024779 0.073819
O9    O     O_2   0.621735 0.686628 0.897675 -0.503208
C44   C     C_2   0.160749 0.607953 0.523155 0.891721
O10   O     O_2   0.234649 0.621459 0.584972 -0.622520
O11   O     O_R   0.081616 0.690798 0.488389 -0.805686
H19   H     H_    0.088153 0.756089 0.524369 0.332616
C45   C     C_2   0.727835 0.673800 0.661049 0.476513
H20   H     H_    0.657475 0.723548 0.626052 0.094267
O12   O     O_2   0.743524 0.670362 0.740453 -0.531159
C46   C     C_2   0.720851 0.474944 0.099598 0.376160
H21   H     H_    0.787384 0.468103 0.065775 0.077267
O13   O     O_2   0.740862 0.470865 0.179075 -0.557473
C47   C     C_2   0.805759 0.032868 0.397858 0.890095
O14   O     O_2   0.800756 0.982451 0.330701 -0.626176
O15   O     O_R   0.903775 0.067774 0.438382 -0.812488
H22   H     H_    0.964900 0.044481 0.407021 0.341321

loop_
_geom_bond_atom_site_label_1
_geom_bond_atom_site_label_2
_ccdc_geom_bond_type
O15   H22   S    
C3    C42   S    
C6    C46   S    
C11   C13   A    
C19   C20   A    
C4    C8    S    
C1    O1    A    
O11   H19   S    
C10   C22   A    
C26   C27   A    
C30   C35   A    
C23   O5    A    
C28   C29   A    
C26   N2    A    
C38   C42   S    
C31   C36   A    
C5    C6    S    
C12   O3    A    
C9    C22   A    
C33   H7    S    
C15   C16   A    
C11   C24   A    
O1    Zn1   S    
C18   C19   A    
C23   O6    A    
O8    Zn2   S    
C25   H8    S    
C25   C37   A    
C21   H1    S    
C7    C40   T    
C2    C39   S    
C2    C7    S    
C39   C43   S    
O3    Zn1   S    
C9    C47   S    
N2    Zn2   S    
C25   C32   A    
C16   C24   A    
C13   C14   A    
C35   H12   S    
C34   C41   S    
C1    O2    A    
C42   H15   S    
C14   H3    S    
C47   O15   S    
C10   C21   A    
C38   C39   S    
C20   H5    S    
C8    C41   T    
C4    C6    S    
C34   O7    A    
C45   O12   D    
C38   H9    S    
C19   H17   S    
C47   O14   D    
C17   C21   A    
C12   C40   S    
C44   O10   D    
C29   C30   A    
C36   C44   S    
C3    H14   S    
C31   C32   A    
N1    Zn1   S    
C16   C20   A    
C17   C18   A    
C11   H2    S    
C37   H6    S    
C44   O11   S    
C34   O8    A    
C43   O9    D    
O2    Zn2   S    
C46   O13   D    
C2    C5    S    
C3    C4    S    
C13   H4    S    
C15   C17   A    
C6    C39   S    
C5    H13   S    
C4    C38   S    
C43   H18   S    
C3    C5    S    
C22   H16   S    
C27   H11   S    
C10   C23   S    
C12   O4    A    
C26   C45   S    
C32   C33   A    
C29   C31   A    
O4    Zn2   S    
C28   H10   S    
O5    Zn1   S    
C2    C42   S    
C33   C35   A    
O6    Zn2   S    
C37   N1    A    
C45   H20   S    
C9    C18   A    
C1    C24   S    
O7    Zn1   S    
C46   H21   S    
C30   N2    A    
C27   C28   A    
C36   N1    A    
C14   C15   A    
