data_mof_unit_59105.cif
_audit_creation_date              2012-12-10T18:33:29-0500
_audit_creation_method            fapswitch 2.2
_symmetry_space_group_name_H-M    P1
_symmetry_Int_Tables_number       1
_space_group_crystal_system       triclinic
_cell_length_a                    8.697829
_cell_length_b                    15.105378
_cell_length_c                    13.924604
_cell_angle_alpha                 90.523931
_cell_angle_beta                  98.034748
_cell_angle_gamma                 91.030382
_cell_volume                      1811.09258295

loop_
_atom_site_label
_atom_site_type_symbol
_atom_type_description
_atom_site_fract_x
_atom_site_fract_y
_atom_site_fract_z
_atom_type_partial_charge
C1    C     C_R   0.502426 0.330484 0.499781 0.783476
C2    C     C_R   0.552582 0.575338 0.897709 0.244717
C3    C     C_R   0.492224 0.502244 0.053950 -0.010257
C4    C     C_R   0.492499 0.502886 0.944958 -0.039353
C5    C     C_R   0.203787 0.499673 0.475106 0.849818
C6    C     C_R   0.796206 0.500707 0.524876 0.865609
C7    C     C_2   0.037728 0.498518 0.461450 -0.326375
C8    C     C_2   0.962251 0.502620 0.538441 -0.413426
C9    C     C_R   0.382558 0.095786 0.523877 -0.247250
C10   C     C_R   0.522474 0.905708 0.419466 -0.141291
C11   C     C_R   0.382882 0.187346 0.524365 -0.221512
C12   C     C_R   0.494040 0.670302 0.500164 0.807588
C13   C     C_R   0.513830 0.813954 0.418299 -0.280639
C14   C     C_R   0.510376 0.234759 0.499474 -0.145585
C15   C     C_R   0.487300 0.767689 0.501447 -0.222697
C16   C     C_R   0.641852 0.190206 0.474564 0.284729
C17   C     C_R   0.462333 0.815887 0.585852 0.415014
C18   C     C_R   0.641553 0.096690 0.475496 0.428468
C19   C     C_R   0.482675 0.907821 0.589313 0.395390
C20   C     C_R   0.511567 0.050316 0.500925 -0.018120
C21   C     C_R   0.509099 0.953258 0.504462 -0.012912
C22   C     C_3   0.768738 0.669013 0.256551 0.071852
C23   C     C_R   0.617710 0.538899 0.117093 -0.386362
C24   C     C_3   0.930931 0.679814 0.228196 -0.817645
C25   C     C_3   0.197842 0.360170 0.727556 0.077241
C26   C     C_3   0.146583 0.274126 0.770723 -0.795941
C27   C     C_3   0.275922 0.323045 0.228132 0.098108
C28   C     C_3   0.166806 0.276735 0.288841 -0.741503
C29   C     C_3   0.803999 0.623645 0.766866 0.156776
C30   C     C_3   0.890906 0.687407 0.841883 -0.805476
C31   C     C_3   0.123786 0.497713 0.028764 0.098673
C32   C     C_3   0.973332 0.458456 0.975083 -0.796173
C33   C     C_3   0.469006 0.708719 0.942361 0.111987
C34   C     C_R   0.433576 0.430491 0.886418 -0.368871
C35   C     C_3   0.521456 0.798352 0.986992 -0.736513
C36   C     C_R   0.616382 0.542182 0.218641 0.548389
C37   C     C_R   0.428554 0.432333 0.784584 0.542222
C38   C     C_R   0.380572 0.458260 0.199200 0.443991
C39   C     C_R   0.567945 0.569163 0.797865 0.473892
C40   C     C_R   0.368577 0.464804 0.096652 0.229599
Cu1   Cu    Cu3+1 0.500000 0.499990 0.596430 0.984149
Cu2   Cu    Cu3+1 0.500000 0.500010 0.403570 0.998323
H1    H     H_    0.977552 0.493608 0.387703 0.223542
H2    H     H_    0.336722 0.730816 0.643375 0.312348
H3    H     H_    0.849930 0.088973 0.438096 0.367074
H4    H     H_    0.523883 0.009594 0.676851 0.328279
H5    H     H_    0.764948 0.709369 0.323146 0.170618
H6    H     H_    0.681464 0.697096 0.199108 0.122470
H7    H     H_    0.939491 0.642722 0.160139 0.229416
H8    H     H_    0.956307 0.750930 0.216688 0.212760
H9    H     H_    0.018783 0.654723 0.286759 0.254943
H10   H     H_    0.143393 0.361545 0.650605 0.173405
H11   H     H_    0.151183 0.417407 0.765068 0.109203
H12   H     H_    0.022490 0.507921 0.612151 0.150904
H13   H     H_    0.194422 0.270711 0.848704 0.248780
H14   H     H_    0.017837 0.270697 0.763676 0.213840
H15   H     H_    0.187548 0.216630 0.731643 0.259858
H16   H     H_    0.396230 0.300417 0.252478 0.145145
H17   H     H_    0.241206 0.302483 0.151202 0.173318
H18   H     H_    0.195288 0.297386 0.366092 0.244139
H19   H     H_    0.044769 0.294251 0.262572 0.251445
H20   H     H_    0.178550 0.203859 0.283187 0.198958
H21   H     H_    0.843625 0.638637 0.696261 0.161947
H22   H     H_    0.838734 0.554239 0.784857 0.094313
H23   H     H_    0.281891 0.059978 0.542399 0.191372
H24   H     H_    0.873487 0.668037 0.916207 0.260860
H25   H     H_    0.017299 0.685614 0.837313 0.181033
H26   H     H_    0.850133 0.755984 0.828082 0.277984
H27   H     H_    0.161772 0.553947 0.985930 0.124562
H28   H     H_    0.099558 0.522766 0.100569 0.160949
H29   H     H_    0.932348 0.402488 0.016703 0.260405
H30   H     H_    0.882674 0.509584 0.966457 0.196171
H31   H     H_    0.991979 0.434138 0.902208 0.237742
H32   H     H_    0.378848 0.680252 0.983220 0.112484
H33   H     H_    0.417013 0.719510 0.865610 0.189324
H34   H     H_    0.539695 0.939920 0.353619 0.174238
H35   H     H_    0.611034 0.828436 0.947154 0.267274
H36   H     H_    0.420867 0.843092 0.982646 0.203019
H37   H     H_    0.571010 0.790667 0.064273 0.220383
H38   H     H_    0.282400 0.221499 0.543119 0.172925
H39   H     H_    0.528184 0.779308 0.351866 0.168332
H40   H     H_    0.717793 0.564915 0.087985 0.214260
H41   H     H_    0.390634 0.372057 0.918988 0.223694
H42   H     H_    0.766094 0.298811 0.464993 0.323929
N1    N     N_R   0.500000 0.500020 0.258690 -0.264270
N2    N     N_R   0.500000 0.499980 0.741310 -0.285627
O1    O     O_R   0.500010 0.371450 0.581430 -0.520372
O2    O     O_3   0.418280 0.775739 0.666466 -0.661104
O3    O     O_3   0.767279 0.048595 0.455061 -0.739061
O4    O     O_3   0.472624 0.950551 0.676382 -0.693043
O5    O     O_3   0.740980 0.579456 0.279200 -0.553210
O6    O     O_3   0.361127 0.361802 0.729285 -0.542033
O7    O     O_3   0.263785 0.415571 0.239632 -0.540752
O8    O     O_3   0.641826 0.637719 0.756460 -0.510324
O9    O     O_3   0.237296 0.431608 0.039236 -0.587601
O10   O     O_3   0.598085 0.652746 0.948122 -0.579797
O11   O     O_R   0.499990 0.628550 0.418570 -0.582145
O12   O     O_R   0.500010 0.371460 0.418560 -0.579949
O13   O     O_R   0.499990 0.628540 0.581440 -0.531934
O14   O     O_R   0.274840 0.499990 0.562640 -0.591428
O15   O     O_R   0.725160 0.500010 0.437360 -0.522451
O16   O     O_R   0.274840 0.500000 0.399770 -0.531741
O17   O     O_R   0.725160 0.500000 0.600230 -0.608992
O18   O     O_3   0.772129 0.234736 0.451442 -0.763919

loop_
_geom_bond_atom_site_label_1
_geom_bond_atom_site_label_2
_ccdc_geom_bond_type
C1    O1    A    
C22   H6    S    
C29   H21   S    
C23   H40   S    
C34   C37   A    
Cu1   Cu2   S    
C3    C23   A    
C26   H13   S    
C7    C8    D    
C32   H30   S    
Cu1   N2    S    
C19   C21   A    
C25   H11   S    
Cu2   O12   S    
C29   O8    S    
C11   C14   A    
C17   O2    S    
C13   H39   S    
C6    O15   A    
C12   O13   A    
C17   C19   A    
C10   H34   S    
C2    C39   A    
C16   O18   S    
C31   H28   S    
C22   O5    S    
Cu1   O13   S    
C7    H1    S    
H3    O3    S    
C18   C20   A    
C30   H25   S    
C28   H19   S    
C24   H9    S    
C22   H5    S    
C29   H22   S    
C10   C13   A    
C33   O10   S    
Cu2   O16   S    
C33   H33   S    
C32   H29   S    
C28   H18   S    
C10   C21   A    
C24   H8    S    
Cu1   O1    S    
C4    C34   A    
C38   N1    A    
C37   N2    A    
Cu2   O11   S    
C8    H12   S    
C32   H31   S    
C5    C7    S    
C6    C8    S    
C25   C26   S    
C35   H35   S    
Cu1   O17   S    
C2    C4    A    
C39   O8    S    
C29   C30   S    
C9    C20   A    
C31   C32   S    
C12   C15   S    
Cu1   O14   S    
Cu2   N1    S    
C6    O17   A    
C9    C11   A    
C12   O11   A    
C30   H24   S    
C36   O5    S    
C3    C40   A    
C13   C15   A    
H42   O18   S    
C14   C16   A    
C27   O7    S    
C34   H41   S    
C40   O9    S    
C3    C4    S    
Cu2   O15   S    
C5    O14   A    
C24   H7    S    
C15   C17   A    
C5    O16   A    
C25   O6    S    
C37   O6    S    
C18   O3    S    
C27   H16   S    
C26   H14   S    
C1    O12   A    
H4    O4    S    
C36   N1    A    
C35   H36   S    
C2    O10   S    
C25   H10   S    
C19   O4    S    
C27   H17   S    
C38   C40   A    
C31   O9    S    
C38   O7    S    
C35   H37   S    
C33   C35   S    
C22   C24   S    
C26   H15   S    
C9    H23   S    
C11   H38   S    
C33   H32   S    
C31   H27   S    
C20   C21   S    
C16   C18   A    
C23   C36   A    
C27   C28   S    
C1    C14   S    
C39   N2    A    
H2    O2    S    
C30   H26   S    
C28   H20   S    
