data_mof_unit_14949.cif
_audit_creation_date              2012-12-10T20:12:39-0500
_audit_creation_method            fapswitch 2.2
_symmetry_space_group_name_H-M    P1
_symmetry_Int_Tables_number       1
_space_group_crystal_system       triclinic
_cell_length_a                    19.283983
_cell_length_b                    18.463914
_cell_length_c                    10.660708
_cell_angle_alpha                 89.535623
_cell_angle_beta                  90.473849
_cell_angle_gamma                 89.883404
_cell_volume                      3795.56541153

loop_
_atom_site_label
_atom_site_type_symbol
_atom_type_description
_atom_site_fract_x
_atom_site_fract_y
_atom_site_fract_z
_atom_type_partial_charge
C1    C     C_R   0.365660 0.499720 0.499369 0.956705
C2    C     C_R   0.962453 0.433658 0.479859 0.457139
C3    C     C_R   0.035703 0.557310 0.554324 -0.218889
C4    C     C_R   0.034345 0.434628 0.474497 -0.212632
C5    C     C_R   0.070780 0.495797 0.513441 0.108711
C6    C     C_R   0.926736 0.496792 0.515571 -0.171567
C7    C     C_R   0.183881 0.447803 0.584996 0.462023
C8    C     C_R   0.179226 0.542998 0.424565 0.470347
C9    C     C_R   0.501966 0.500047 0.257693 0.868169
C10   C     C_R   0.256535 0.453399 0.589275 0.064762
C11   C     C_R   0.251242 0.537093 0.409105 0.071624
C12   C     C_3   0.561161 0.551136 0.929079 -0.408768
C13   C     C_R   0.290162 0.497932 0.500099 -0.297146
C14   C     C_R   0.146067 0.496051 0.508660 -0.174346
C15   C     C_R   0.546801 0.724510 0.575122 0.578074
C16   C     C_R   0.549453 0.273832 0.567605 0.591878
C17   C     C_R   0.548220 0.801631 0.574225 -0.346745
C18   C     C_R   0.548490 0.197373 0.572654 -0.358205
C19   C     C_R   0.500641 0.841307 0.501358 0.173478
C20   C     C_R   0.499384 0.158512 0.503143 0.161444
C21   C     C_R   0.452356 0.803311 0.429140 -0.375155
C22   C     C_R   0.451143 0.197710 0.430265 -0.329791
C23   C     C_R   0.744416 0.477740 0.398576 -0.252713
C24   C     C_R   0.453285 0.726288 0.426024 0.594399
C25   C     C_R   0.450906 0.274540 0.431640 0.559030
C26   C     C_R   0.506663 0.962319 0.388302 0.361206
C27   C     C_R   0.508719 0.039223 0.390023 0.341266
C28   C     C_R   0.500031 0.077155 0.503387 -0.197614
C29   C     C_R   0.500590 0.922720 0.501651 -0.195553
C30   C     C_R   0.633816 0.499941 0.500604 0.837794
C31   C     C_R   0.494170 0.037585 0.616777 0.359189
C32   C     C_R   0.492202 0.960648 0.615134 0.341991
C33   C     C_R   0.502686 0.499776 0.742385 0.896144
C34   C     C_R   0.742326 0.521165 0.613316 -0.222373
C35   C     C_3   0.431823 0.527129 0.072209 -0.528647
C36   C     C_3   0.516056 0.421149 0.074724 -0.471160
C37   C     C_3   0.432286 0.529042 0.926246 0.361631
C38   C     C_3   0.512759 0.420237 0.931916 0.350523
C39   C     C_3   0.561916 0.549274 0.073169 -0.434146
C40   C     C_3   0.502975 0.499618 0.121712 0.068266
C41   C     C_3   0.503713 0.499843 0.878533 -0.060128
C42   C     C_3   0.157545 0.328051 0.615984 -0.359480
C43   C     C_3   0.154977 0.661198 0.375774 -0.303347
C44   C     C_3   0.279097 0.420381 0.809627 -0.731985
C45   C     C_R   0.816225 0.477932 0.401771 -0.104557
C46   C     C_3   0.258834 0.534923 0.181600 -0.793809
C47   C     C_3   0.623256 0.716757 0.747562 -0.362842
C48   C     C_3   0.665343 0.295112 0.597975 -0.314999
C49   C     C_3   0.372748 0.724607 0.259041 -0.414710
C50   C     C_3   0.336545 0.291755 0.372408 -0.337190
C51   C     C_3   0.461828 0.937124 0.193075 -0.245512
C52   C     C_3   0.590483 0.085493 0.260805 -0.285221
C53   C     C_3   0.539756 0.063167 0.811137 -0.221952
C54   C     C_3   0.411163 0.913946 0.745477 -0.303153
C55   C     C_3   0.416032 0.658987 0.929161 -0.268133
C56   C     C_R   0.814141 0.519312 0.617883 -0.122649
C57   C     C_3   0.632183 0.400829 0.882065 -0.180585
C58   C     C_3   0.926176 0.669050 0.483285 -0.294470
C59   C     C_3   0.919196 0.327256 0.550644 -0.320939
C60   C     C_R   0.851236 0.498057 0.511833 0.181412
C61   C     C_R   0.707949 0.499769 0.504063 0.008682
C62   C     C_R   0.963611 0.559189 0.551571 0.461630
H1    H     H_    0.418526 0.579280 0.116392 0.205878
H2    H     H_    0.475700 0.383577 0.111548 0.195185
H3    H     H_    0.393296 0.488640 0.897518 0.077550
H4    H     H_    0.463221 0.392124 0.908935 0.096667
H5    H     H_    0.555613 0.605327 0.108959 0.194494
H6    H     H_    0.613035 0.529044 0.107876 0.156703
H7    H     H_    0.551311 0.607298 0.896119 0.219119
H8    H     H_    0.613180 0.538861 0.892130 0.145333
H9    H     H_    0.717319 0.461532 0.313888 0.123082
H10   H     H_    0.713580 0.538059 0.695009 0.128628
H11   H     H_    0.844496 0.462485 0.318746 0.159261
H12   H     H_    0.566563 0.400433 0.111011 0.191784
H13   H     H_    0.840749 0.534129 0.703767 0.160398
H14   H     H_    0.200933 0.300951 0.666667 0.176598
H15   H     H_    0.166230 0.325006 0.512777 0.133129
H16   H     H_    0.109868 0.296742 0.636405 0.188413
H17   H     H_    0.204709 0.677799 0.332524 0.198513
H18   H     H_    0.156397 0.671728 0.478533 0.138266
H19   H     H_    0.113614 0.695994 0.334492 0.175077
H20   H     H_    0.307023 0.360416 0.651892 0.226626
H21   H     H_    0.320241 0.394694 0.868255 0.201141
H22   H     H_    0.230156 0.392131 0.832261 0.276167
H23   H     H_    0.064214 0.604359 0.585741 0.158492
H24   H     H_    0.274528 0.478539 0.834323 0.249975
H25   H     H_    0.335743 0.569940 0.300721 0.267022
H26   H     H_    0.284186 0.562871 0.101662 0.230333
H27   H     H_    0.202143 0.541570 0.168485 0.297042
H28   H     H_    0.272018 0.476325 0.179258 0.225882
H29   H     H_    0.649524 0.675495 0.807449 0.182267
H30   H     H_    0.583261 0.743636 0.805949 0.166783
H31   H     H_    0.663919 0.755423 0.716928 0.173561
H32   H     H_    0.701218 0.337671 0.632096 0.186065
H33   H     H_    0.670110 0.293608 0.493875 0.151286
H34   H     H_    0.061574 0.387534 0.440292 0.160871
H35   H     H_    0.682559 0.242977 0.640661 0.139683
H36   H     H_    0.344907 0.686158 0.197751 0.194350
H37   H     H_    0.409865 0.754898 0.198949 0.165345
H38   H     H_    0.332641 0.760726 0.299245 0.168135
H39   H     H_    0.301472 0.336757 0.343716 0.188988
H40   H     H_    0.324292 0.277879 0.471697 0.137798
H41   H     H_    0.325196 0.245247 0.310194 0.161946
H42   H     H_    0.472635 0.984805 0.132376 0.216274
H43   H     H_    0.410788 0.943749 0.240143 0.118656
H44   H     H_    0.457362 0.889506 0.130748 0.159029
H45   H     H_    0.586130 0.831489 0.628124 0.173949
H46   H     H_    0.616340 0.032005 0.249768 0.184131
H47   H     H_    0.615330 0.116259 0.338447 0.147717
H48   H     H_    0.598426 0.116748 0.172808 0.179665
H49   H     H_    0.590624 0.057108 0.763233 0.114875
H50   H     H_    0.529643 0.015273 0.871747 0.208282
H51   H     H_    0.544109 0.110719 0.873637 0.179813
H52   H     H_    0.403747 0.882442 0.833383 0.169279
H53   H     H_    0.386116 0.883218 0.668002 0.155247
H54   H     H_    0.385135 0.967287 0.757206 0.188441
H55   H     H_    0.463681 0.662744 0.987362 0.154130
H56   H     H_    0.586540 0.168454 0.628871 0.166534
H57   H     H_    0.369092 0.666942 0.986727 0.149194
H58   H     H_    0.417807 0.704360 0.860421 0.181671
H59   H     H_    0.645600 0.428645 0.970636 0.113191
H60   H     H_    0.642016 0.435704 0.798929 0.152630
H61   H     H_    0.668052 0.354031 0.875393 0.174601
H62   H     H_    0.898170 0.644160 0.402702 0.164698
H63   H     H_    0.978920 0.686647 0.454486 0.159110
H64   H     H_    0.896884 0.718152 0.510530 0.189061
H65   H     H_    0.888386 0.354750 0.624292 0.159670
H66   H     H_    0.970354 0.309572 0.589322 0.164126
H67   H     H_    0.414158 0.834553 0.377504 0.160445
H68   H     H_    0.890377 0.277965 0.522584 0.184756
H69   H     H_    0.414226 0.168560 0.372851 0.179226
H70   H     H_    0.391304 0.488422 0.103748 0.148873
N1    N     N_R   0.499980 0.689440 0.500020 -0.169822
N2    N     N_R   0.499980 0.310560 0.500020 -0.176513
N3    N     N_2   0.296627 0.412800 0.678517 -0.277015
N4    N     N_2   0.282629 0.566223 0.298575 -0.282159
O1    O     O_R   0.398180 0.560840 0.500010 -0.578301
O2    O     O_3   0.139348 0.588289 0.348489 -0.597322
O3    O     O_3   0.593444 0.681537 0.643398 -0.565271
O4    O     O_3   0.597480 0.312847 0.636196 -0.531851
O5    O     O_3   0.407288 0.685052 0.354712 -0.574162
O6    O     O_3   0.405715 0.314954 0.357093 -0.569508
O7    O     O_3   0.517404 0.924779 0.277907 -0.584541
O8    O     O_3   0.518619 0.077621 0.279745 -0.590157
O9    O     O_3   0.483706 0.075146 0.727203 -0.583023
O10   O     O_3   0.482894 0.922236 0.725587 -0.596857
O11   O     O_3   0.410152 0.593696 0.862242 -0.576811
O12   O     O_R   0.398180 0.439160 0.500010 -0.584264
O13   O     O_3   0.563726 0.374296 0.877444 -0.539691
O14   O     O_3   0.929282 0.621417 0.587205 -0.607515
O15   O     O_3   0.927226 0.371986 0.444009 -0.608284
O16   O     O_R   0.499990 0.560810 0.314820 -0.610758
O17   O     O_R   0.499990 0.439190 0.314820 -0.605994
O18   O     O_R   0.601820 0.560790 0.500050 -0.576760
O19   O     O_R   0.601820 0.439210 0.500050 -0.598093
O20   O     O_R   0.500010 0.560810 0.685230 -0.552348
O21   O     O_R   0.500010 0.439190 0.685230 -0.581648
O22   O     O_3   0.148438 0.399333 0.660763 -0.590086
Zn1   Zn    Zn3+2 0.500000 0.581210 0.500040 1.043950
Zn2   Zn    Zn3+2 0.500000 0.418790 0.500040 1.027288

loop_
_geom_bond_atom_site_label_1
_geom_bond_atom_site_label_2
_ccdc_geom_bond_type
C24   N1    A    
C7    C10   A    
N2    Zn2   S    
C12   H7    S    
C9    O16   A    
C34   C56   A    
C23   C45   A    
C48   H33   S    
C22   H69   S    
C3    H23   S    
C47   H30   S    
C25   O6    S    
C44   H21   S    
C16   N2    A    
C42   H14   S    
C33   O20   A    
C45   C60   A    
C46   H27   S    
C55   H57   S    
C59   H68   S    
C48   H35   S    
C26   C27   A    
C52   O8    S    
C48   H32   S    
C45   H11   S    
C35   C37   S    
C29   C32   A    
C17   H45   S    
C32   O10   S    
C59   H65   S    
C51   H44   S    
C43   O2    S    
C8    O2    S    
O12   Zn2   S    
H20   N3    S    
C57   H60   S    
C4    H34   S    
C7    C14   A    
C38   H4    S    
C53   H51   S    
C22   C25   A    
C37   H3    S    
C18   H56   S    
C38   O13   S    
C46   H26   S    
C57   H61   S    
C54   O10   S    
C53   H49   S    
C44   N3    S    
C49   H36   S    
O16   Zn1   S    
C9    O17   A    
C50   H41   S    
C56   H13   S    
C2    C6    A    
C39   H5    S    
C44   H24   S    
C33   O21   A    
C15   O3    S    
C55   H58   S    
C28   C31   A    
C30   O18   A    
C48   O4    S    
C6    C60   S    
C36   C40   S    
C10   N3    S    
C38   C41   S    
C39   C40   S    
C7    O22   S    
O1    Zn1   S    
C20   C28   S    
C44   H22   S    
C51   H42   S    
C57   H59   S    
C34   C61   A    
C56   C60   A    
C54   H54   S    
N1    Zn1   S    
C2    C4    A    
C39   H6    S    
C12   C41   S    
C23   H9    S    
C49   H37   S    
C50   H40   S    
C55   O11   S    
C31   C32   A    
C52   H48   S    
C24   O5    S    
C51   H43   S    
C54   H53   S    
C59   H66   S    
C53   O9    S    
C27   O8    S    
C47   H31   S    
C37   O11   S    
C25   N2    A    
C21   H67   S    
C5    C14   S    
C36   H12   S    
C42   H15   S    
C46   H28   S    
C53   H50   S    
C57   O13   S    
C30   O19   A    
C20   C22   A    
C58   H64   S    
O21   Zn2   S    
C59   O15   S    
C58   H63   S    
C43   H19   S    
C21   C24   A    
C1    C13   S    
C26   O7    S    
C19   C29   S    
C34   H10   S    
C16   O4    S    
C1    O1    A    
C51   O7    S    
C55   H55   S    
C3    C62   A    
C2    O15   S    
C15   C17   A    
C12   H8    S    
C42   O22   S    
C8    C14   A    
C62   O14   S    
C19   C21   A    
O19   Zn2   S    
C47   H29   S    
H25   N4    S    
O20   Zn1   S    
C4    C5    A    
C3    C5    A    
C10   C13   A    
C42   H16   S    
C15   N1    A    
C49   O5    S    
C58   H62   S    
C50   H39   S    
C33   C41   S    
C6    C62   A    
C12   C39   S    
C36   C38   S    
C35   C40   S    
C43   H18   S    
O18   Zn1   S    
C11   N4    S    
C49   H38   S    
C11   C13   A    
C52   H47   S    
O17   Zn2   S    
C8    C11   A    
C54   H52   S    
C17   C19   A    
C18   C20   A    
C9    C40   S    
C37   C41   S    
C46   N4    S    
C31   O9    S    
C58   O14   S    
C23   C61   A    
C52   H46   S    
C26   C29   A    
C16   C18   A    
C30   C61   S    
C47   O3    S    
C27   C28   A    
C1    O12   A    
C35   H1    S    
C36   H2    S    
C43   H17   S    
C35   H70   S    
C50   O6    S    
