data_mof_unit_6568.cif
_audit_creation_date              2012-12-11T15:22:29-0500
_audit_creation_method            fapswitch 2.2
_symmetry_space_group_name_H-M    P1
_symmetry_Int_Tables_number       1
_space_group_crystal_system       triclinic
_cell_length_a                    22.611689
_cell_length_b                    13.085656
_cell_length_c                    26.816843
_cell_angle_alpha                 90.233793
_cell_angle_beta                  90.190866
_cell_angle_gamma                 89.94921
_cell_volume                      7934.68995461

loop_
_atom_site_label
_atom_site_type_symbol
_atom_type_description
_atom_site_fract_x
_atom_site_fract_y
_atom_site_fract_z
_atom_type_partial_charge
C1    C     C_R   0.720423 0.343005 0.177186 0.576342
C2    C     C_R   0.279085 0.343608 0.822443 0.579427
C3    C     C_R   0.221370 0.845507 0.178386 0.571355
C4    C     C_R   0.779252 0.843324 0.822837 0.572725
C5    C     C_R   0.475828 0.166443 0.872333 -0.024820
C6    C     C_R   0.516082 0.165310 0.131945 -0.014259
C7    C     C_R   0.979079 0.665393 0.870468 -0.020891
C8    C     C_R   0.019743 0.666213 0.130249 -0.018164
C9    C     C_R   0.512442 0.258322 0.106101 -0.150257
C10   C     C_R   0.470517 0.257550 0.899867 -0.137286
C11   C     C_R   0.020624 0.758755 0.103781 -0.147306
C12   C     C_R   0.979134 0.758130 0.897208 -0.132726
C13   C     C_R   0.497096 0.258942 0.055328 -0.009359
C14   C     C_R   0.482357 0.258652 0.951129 0.031633
C15   C     C_R   0.007680 0.759890 0.052659 -0.005182
C16   C     C_R   0.992249 0.759465 0.948401 0.018824
C17   C     C_R   0.494556 0.165347 0.028793 0.022302
C18   C     C_R   0.491432 0.165328 0.976284 0.024317
C19   C     C_R   0.002220 0.666407 0.026618 0.021279
C20   C     C_R   0.998491 0.666273 0.974172 0.035673
C21   C     C_R   0.490582 0.351202 0.029629 -0.079010
C22   C     C_R   0.482353 0.350802 0.978029 -0.045262
C23   C     C_R   0.004912 0.852110 0.026437 -0.049838
C24   C     C_R   0.995045 0.851850 0.974945 -0.049742
C25   C     C_R   0.745918 0.933405 0.135862 -0.040941
C26   C     C_R   0.262112 0.946978 0.868938 -0.046697
C27   C     C_R   0.245190 0.441188 0.133197 -0.036025
C28   C     C_R   0.753856 0.432419 0.863349 -0.042391
C29   C     C_R   0.796183 0.950155 0.105483 0.221245
C30   C     C_R   0.208435 0.942369 0.895636 0.228786
C31   C     C_R   0.292124 0.469359 0.101008 0.199753
C32   C     C_R   0.701669 0.444863 0.891857 0.227555
C33   C     C_R   0.794208 0.919224 0.054884 0.158109
C34   C     C_R   0.210543 0.919824 0.947173 0.169491
C35   C     C_R   0.288521 0.445361 0.049533 0.135061
C36   C     C_R   0.701641 0.412587 0.942163 0.163771
C37   C     C_R   0.739940 0.886386 0.033457 -0.024463
C38   C     C_R   0.265497 0.920229 0.972851 0.013625
C39   C     C_R   0.235850 0.400980 0.029851 -0.020285
C40   C     C_R   0.755622 0.383914 0.965374 -0.021689
C41   C     C_R   0.699174 0.843503 0.067181 -0.134082
C42   C     C_R   0.317571 0.920751 0.945249 -0.122278
C43   C     C_R   0.198133 0.352820 0.064423 -0.141848
C44   C     C_R   0.799086 0.344058 0.932993 -0.130146
C45   C     C_R   0.551772 0.157517 0.178557 0.576699
C46   C     C_R   0.446504 0.157658 0.822653 0.579642
C47   C     C_R   0.052502 0.657617 0.178146 0.577084
C48   C     C_R   0.947454 0.657612 0.821950 0.549564
C49   C     C_R   0.703674 0.861984 0.118651 0.019895
C50   C     C_R   0.314593 0.915867 0.893547 0.018298
C51   C     C_R   0.204430 0.367852 0.115911 0.010413
C52   C     C_R   0.796754 0.363120 0.881493 0.019820
C53   C     C_R   0.702903 0.817984 0.947351 0.053438
C54   C     C_R   0.297401 0.837176 0.054431 0.029860
C55   C     C_R   0.207226 0.311557 0.947708 0.031879
C56   C     C_R   0.793967 0.320654 0.051638 0.042946
C57   C     C_R   0.717225 0.808679 0.896898 -0.118995
C58   C     C_R   0.286129 0.824676 0.105167 -0.152508
C59   C     C_R   0.227460 0.296078 0.899359 -0.131880
C60   C     C_R   0.781402 0.310629 0.102262 -0.150422
C61   C     C_R   0.776781 0.961605 0.900052 0.043609
C62   C     C_R   0.220013 0.970681 0.105966 0.045592
C63   C     C_R   0.261564 0.470949 0.894398 0.046165
C64   C     C_R   0.716442 0.457191 0.099656 0.042567
C65   C     C_R   0.759690 0.974517 0.950954 0.255564
C66   C     C_R   0.234520 0.988937 0.055395 0.234105
C67   C     C_R   0.242457 0.485477 0.944820 0.253578
C68   C     C_R   0.729981 0.468482 0.048070 0.247264
C69   C     C_R   0.731090 0.893694 0.976935 0.080969
C70   C     C_R   0.267737 0.916076 0.028349 0.053757
C71   C     C_R   0.224561 0.400402 0.973832 0.082301
C72   C     C_R   0.761683 0.390928 0.022124 0.083060
C73   C     C_R   0.757308 0.874723 0.873383 -0.044195
C74   C     C_R   0.244181 0.884777 0.130259 -0.043038
C75   C     C_R   0.257131 0.372753 0.872827 -0.033219
C76   C     C_R   0.740294 0.373891 0.126343 -0.048141
C77   C     C_R   0.525170 0.170677 0.370173 0.036881
C78   C     C_R   0.472937 0.169301 0.628844 0.036580
C79   C     C_R   0.025139 0.670713 0.370158 0.036820
C80   C     C_R   0.973000 0.669283 0.628860 0.037301
C81   C     C_R   0.543346 0.253220 0.401155 0.211635
C82   C     C_R   0.456773 0.255085 0.599435 0.209989
C83   C     C_R   0.043311 0.753255 0.401137 0.211543
C84   C     C_R   0.957101 0.755327 0.599530 0.210441
C85   C     C_R   0.530941 0.250276 0.451887 -0.109140
C86   C     C_R   0.465778 0.251883 0.548153 -0.113724
C87   C     C_R   0.030866 0.750356 0.451862 -0.109137
C88   C     C_R   0.966007 0.752167 0.548232 -0.113804
C89   C     C_R   0.732726 0.997570 0.180777 0.563326
C90   C     C_R   0.268455 0.999398 0.820048 0.526089
C91   C     C_R   0.232476 0.499223 0.180080 0.567468
C92   C     C_R   0.767235 0.497332 0.818990 0.561679
C93   C     C_R   0.500961 0.167707 0.472221 -0.021730
C94   C     C_R   0.491058 0.166456 0.525787 -0.026542
C95   C     C_R   0.000835 0.667844 0.472195 -0.021546
C96   C     C_R   0.990981 0.666555 0.525776 -0.026526
C97   C     C_R   0.479135 0.089825 0.441629 -0.133966
C98   C     C_R   0.511147 0.085029 0.554693 -0.139477
C99   C     C_R   0.979001 0.589974 0.441595 -0.133920
C100  C     C_R   0.010861 0.584870 0.554613 -0.139623
C101  C     C_R   0.489460 0.091542 0.390160 -0.002489
C102  C     C_R   0.503961 0.086494 0.606532 -0.004327
C103  C     C_R   0.989378 0.591639 0.390131 -0.002459
C104  C     C_R   0.003747 0.586257 0.606459 -0.003697
C105  C     C_R   0.742151 0.950233 0.369394 0.004665
C106  C     C_R   0.263778 0.966646 0.625692 0.008083
C107  C     C_R   0.242143 0.450274 0.369407 0.004526
C108  C     C_R   0.763734 0.466461 0.625738 0.010049
C109  C     C_R   0.692964 0.918159 0.396687 -0.135740
C110  C     C_R   0.315937 0.957033 0.597906 -0.133406
C111  C     C_R   0.192953 0.418184 0.396692 -0.136200
C112  C     C_R   0.815882 0.456672 0.597953 -0.132671
C113  C     C_R   0.698663 0.898811 0.446865 -0.171418
C114  C     C_R   0.313362 0.950551 0.546728 -0.167913
C115  C     C_R   0.198636 0.398891 0.446876 -0.171398
C116  C     C_R   0.813294 0.450117 0.546779 -0.168048
C117  C     C_R   0.753926 0.907613 0.470131 0.077948
C118  C     C_R   0.258647 0.949381 0.522418 0.075846
C119  C     C_R   0.253886 0.407764 0.470157 0.077967
C120  C     C_R   0.758575 0.449026 0.522476 0.075686
C121  C     C_R   0.804984 0.928112 0.442025 0.251459
C122  C     C_R   0.205571 0.951693 0.549925 0.247028
C123  C     C_R   0.304950 0.428290 0.442064 0.251418
C124  C     C_R   0.705505 0.451452 0.549989 0.246883
C125  C     C_R   0.798520 0.950615 0.391296 -0.102181
C126  C     C_R   0.208664 0.962034 0.601926 -0.107264
C127  C     C_R   0.298503 0.450733 0.391328 -0.102014
C128  C     C_R   0.708613 0.461881 0.601984 -0.106394
C129  C     C_R   0.785768 0.972159 0.553018 -0.092062
C130  C     C_R   0.221931 0.001723 0.439128 -0.085450
C131  C     C_R   0.285676 0.472318 0.553057 -0.092254
C132  C     C_R   0.721865 0.501477 0.439202 -0.085539
C133  C     C_R   0.721738 0.348939 0.320991 0.613752
C134  C     C_R   0.279190 0.345704 0.677779 0.617938
C135  C     C_R   0.221742 0.848952 0.320985 0.613385
C136  C     C_R   0.779195 0.845696 0.677774 0.614245
C137  C     C_R   0.789112 0.961501 0.604857 0.197341
C138  C     C_R   0.214230 0.979980 0.388419 0.203959
C139  C     C_R   0.289032 0.461610 0.604894 0.196883
C140  C     C_R   0.714189 0.479837 0.388481 0.203623
C141  C     C_R   0.726464 0.809003 0.598305 0.203662
C142  C     C_R   0.287165 0.842026 0.395690 0.211751
C143  C     C_R   0.226471 0.309012 0.598306 0.203600
C144  C     C_R   0.787127 0.341881 0.395709 0.211802
C145  C     C_R   0.725826 0.819412 0.546815 -0.133186
C146  C     C_R   0.292998 0.864055 0.446227 -0.127500
C147  C     C_R   0.225816 0.319479 0.546821 -0.133205
C148  C     C_R   0.792922 0.363787 0.446260 -0.127393
C149  C     C_R   0.756490 0.898607 0.524160 0.003314
C150  C     C_R   0.258068 0.939313 0.468330 -0.001879
C151  C     C_R   0.256437 0.398745 0.524184 0.003276
C152  C     C_R   0.757985 0.439005 0.468387 -0.001755
C153  C     C_R   0.761771 0.876634 0.627349 0.106258
C154  C     C_R   0.243515 0.894452 0.367649 0.104153
C155  C     C_R   0.261747 0.376668 0.627363 0.106589
C156  C     C_R   0.743491 0.394362 0.367678 0.103921
C157  C     C_R   0.553639 0.159265 0.321156 0.600358
C158  C     C_R   0.446063 0.158909 0.678602 0.596382
C159  C     C_R   0.053637 0.659269 0.321154 0.601412
C160  C     C_R   0.946077 0.658906 0.678606 0.590137
C161  C     C_R   0.732024 0.001022 0.322149 0.555750
C162  C     C_R   0.268921 0.003458 0.676636 0.552262
C163  C     C_R   0.232023 0.501027 0.322151 0.557002
C164  C     C_R   0.768910 0.503414 0.676654 0.558155
C165  C     C_R   0.494808 0.076328 0.107965 0.061456
C166  C     C_R   0.501382 0.080577 0.895860 0.078277
C167  C     C_R   0.997680 0.578114 0.106044 0.062160
C168  C     C_R   0.999058 0.576292 0.894659 0.066904
C169  C     C_R   0.496791 0.072611 0.054997 -0.035129
C170  C     C_R   0.498466 0.073280 0.948836 -0.038296
C171  C     C_R   0.001142 0.573588 0.053141 -0.031280
C172  C     C_R   0.999621 0.573379 0.947507 -0.043915
C173  C     C_R   0.502516 0.978748 0.975276 0.036412
C174  C     C_R   0.504209 0.979870 0.028232 0.047562
C175  C     C_R   0.999176 0.479809 0.973891 0.036369
C176  C     C_R   0.004547 0.479804 0.026437 0.068328
Cr1   Cr    Cr6+3 0.756570 0.170940 0.251190 1.089428
Cr2   Cr    Cr6+3 0.243430 0.170940 0.748810 1.090279
Cr3   Cr    Cr6+3 0.256570 0.670940 0.251190 1.090807
Cr4   Cr    Cr6+3 0.743430 0.670940 0.748810 1.087119
Cr5   Cr    Cr6+3 0.623740 0.299110 0.249580 1.112784
Cr6   Cr    Cr6+3 0.376260 0.299110 0.750420 1.117679
Cr7   Cr    Cr6+3 0.123740 0.799110 0.249580 1.113048
Cr8   Cr    Cr6+3 0.876260 0.799110 0.750420 1.111232
Cr9   Cr    Cr6+3 0.625990 0.036240 0.250480 1.124847
Cr10  Cr    Cr6+3 0.374010 0.036240 0.749520 1.100912
Cr11  Cr    Cr6+3 0.125990 0.536240 0.250480 1.121158
Cr12  Cr    Cr6+3 0.874010 0.536240 0.749520 1.122808
H1    H     H_    0.665192 0.792487 0.055565 0.219404
H2    H     H_    0.359772 0.914921 0.963995 0.183019
H3    H     H_    0.163988 0.301884 0.053024 0.219895
H4    H     H_    0.833517 0.294820 0.945921 0.222862
H5    H     H_    0.534011 0.022004 0.536778 0.157508
H6    H     H_    0.453106 0.029066 0.457975 0.152131
H7    H     H_    0.033507 0.521678 0.536639 0.157412
H8    H     H_    0.952943 0.529245 0.457933 0.152142
H9    H     H_    0.546709 0.311038 0.476115 0.133827
H10   H     H_    0.451809 0.315632 0.525229 0.145070
H11   H     H_    0.046669 0.811093 0.476087 0.133525
H12   H     H_    0.952205 0.816116 0.525371 0.144763
H13   H     H_    0.648980 0.916841 0.380538 0.158802
H14   H     H_    0.359204 0.962207 0.615225 0.158736
H15   H     H_    0.148977 0.416809 0.380529 0.158438
H16   H     H_    0.859156 0.461792 0.615263 0.158694
H17   H     H_    0.806611 0.036815 0.535104 0.143937
H18   H     H_    0.197902 0.064276 0.456291 0.138003
H19   H     H_    0.306486 0.537020 0.535157 0.143904
H20   H     H_    0.697837 0.564007 0.456384 0.138061
H21   H     H_    0.659074 0.882692 0.468084 0.127120
H22   H     H_    0.354378 0.948756 0.525925 0.124199
H23   H     H_    0.159044 0.382744 0.468087 0.127089
H24   H     H_    0.854308 0.448238 0.525975 0.124306
H25   H     H_    0.702233 0.763965 0.524145 0.107180
H26   H     H_    0.322412 0.818104 0.468947 0.112314
H27   H     H_    0.202254 0.264015 0.524138 0.107204
H28   H     H_    0.822323 0.317785 0.468967 0.112423
H29   H     H_    0.836708 0.973346 0.369713 0.132204
H30   H     H_    0.168505 0.969730 0.623565 0.128055
H31   H     H_    0.336693 0.473480 0.369753 0.132373
H32   H     H_    0.668462 0.469690 0.623625 0.128767
H33   H     H_    0.455570 0.326965 0.881827 0.147057
H34   H     H_    0.524016 0.329311 0.124672 0.156033
H35   H     H_    0.966873 0.828626 0.878748 0.150885
H36   H     H_    0.033471 0.829080 0.122365 0.160837
H37   H     H_    0.477833 0.423133 0.958888 0.164006
H38   H     H_    0.492961 0.423604 0.049281 0.182771
H39   H     H_    0.990216 0.924125 0.955747 0.175637
H40   H     H_    0.009687 0.924470 0.045820 0.184466
H41   H     H_    0.697113 0.746810 0.875878 0.197992
H42   H     H_    0.306479 0.760394 0.123995 0.192196
H43   H     H_    0.217570 0.223647 0.881426 0.191741
H44   H     H_    0.804743 0.252307 0.123181 0.190008
O1    O     O_R   0.769900 0.064540 0.196060 -0.508505
O2    O     O_R   0.230100 0.064540 0.803940 -0.506193
O3    O     O_R   0.269900 0.564540 0.196060 -0.506653
O4    O     O_R   0.730100 0.564540 0.803940 -0.508312
O5    O     O_R   0.574760 0.239320 0.300850 -0.442032
O6    O     O_R   0.425240 0.239320 0.699150 -0.438912
O7    O     O_R   0.074760 0.739320 0.300850 -0.441150
O8    O     O_R   0.925240 0.739320 0.699150 -0.440343
O9    O     O_R   0.566290 0.069580 0.305400 -0.493655
O10   O     O_R   0.433710 0.069580 0.694600 -0.495920
O11   O     O_R   0.066290 0.569580 0.305400 -0.494094
O12   O     O_R   0.933710 0.569580 0.694600 -0.500450
O13   O     O_R   0.680760 0.993330 0.302620 -0.501155
O14   O     O_R   0.319240 0.993330 0.697380 -0.509368
O15   O     O_R   0.180760 0.493330 0.302620 -0.502135
O16   O     O_R   0.819240 0.493330 0.697380 -0.501133
O17   O     O_3   0.668770 0.168760 0.250420 -0.300427
O18   O     O_3   0.331230 0.168760 0.749580 -0.301666
O19   O     O_3   0.168770 0.668760 0.250420 -0.300529
O20   O     O_3   0.831230 0.668760 0.749580 -0.300813
O21   O     O_R   0.750800 0.274080 0.199250 -0.511640
O22   O     O_R   0.249200 0.274080 0.800750 -0.507967
O23   O     O_R   0.250800 0.774080 0.199250 -0.511169
O24   O     O_R   0.749200 0.774080 0.800750 -0.513347
O25   O     O_R   0.669990 0.371670 0.194150 -0.477877
O26   O     O_R   0.330010 0.371670 0.805850 -0.482267
O27   O     O_R   0.169990 0.871670 0.194150 -0.480525
O28   O     O_R   0.830010 0.871670 0.805850 -0.477270
O29   O     O_R   0.574600 0.238480 0.197800 -0.518782
O30   O     O_R   0.425400 0.238480 0.802200 -0.519490
O31   O     O_R   0.074600 0.738480 0.197800 -0.518341
O32   O     O_R   0.925400 0.738480 0.802200 -0.515971
O33   O     O_R   0.566130 0.068680 0.194240 -0.443949
O34   O     O_R   0.433870 0.068680 0.805760 -0.432991
O35   O     O_R   0.066130 0.568680 0.194240 -0.444936
O36   O     O_R   0.933870 0.568680 0.805760 -0.442616
O37   O     O_R   0.680610 0.992490 0.199570 -0.460527
O38   O     O_R   0.319390 0.992490 0.800430 -0.480153
O39   O     O_R   0.180610 0.492490 0.199570 -0.462846
O40   O     O_R   0.819390 0.492490 0.800430 -0.454649
O41   O     O_R   0.770060 0.065440 0.307230 -0.490957
O42   O     O_R   0.229940 0.065440 0.692770 -0.475997
O43   O     O_R   0.270060 0.565440 0.307230 -0.489972
O44   O     O_R   0.729940 0.565440 0.692770 -0.479013
O45   O     O_R   0.750960 0.274920 0.302300 -0.451625
O46   O     O_R   0.249040 0.274920 0.697700 -0.451529
O47   O     O_R   0.250960 0.774920 0.302300 -0.452213
O48   O     O_R   0.749040 0.774920 0.697700 -0.454263
O49   O     O_R   0.670160 0.372580 0.305320 -0.424112
O50   O     O_R   0.329840 0.372580 0.694680 -0.425098
O51   O     O_R   0.170160 0.872580 0.305320 -0.424143
O52   O     O_R   0.829840 0.872580 0.694680 -0.426538
C177  C     C_2   0.549886 0.028125 0.868489 0.632705
O53   O     O_2   0.597252 0.013349 0.889530 -0.473706
O54   O     O_R   0.543295 0.000334 0.818400 -0.660979
H45   H     H_    0.580019 0.966526 0.804317 0.343816
C178  C     C_2   0.460151 0.998887 0.136775 0.605933
O55   O     O_2   0.458284 0.002418 0.182306 -0.478751
O56   O     O_R   0.425034 0.927354 0.111626 -0.678437
H46   H     H_    0.403494 0.880012 0.135221 0.353558
C179  C     C_2   0.031058 0.496376 0.865746 0.605426
O57   O     O_2   0.085067 0.493756 0.867663 -0.497555
O58   O     O_R   0.000292 0.422331 0.838347 -0.626985
H47   H     H_    0.027611 0.371719 0.821307 0.340101
C180  C     C_2   0.960228 0.503704 0.134354 0.613314
O59   O     O_2   0.958092 0.506489 0.179889 -0.478839
O60   O     O_R   0.922934 0.436365 0.108709 -0.664218
H48   H     H_    0.899048 0.391567 0.131895 0.343075
C181  C     C_2   0.817668 0.034189 0.876032 0.568028
O61   O     O_2   0.862241 0.062368 0.898042 -0.493906
O62   O     O_R   0.806370 0.066677 0.827342 -0.646439
H49   H     H_    0.841782 0.100922 0.811657 0.363879
C182  C     C_2   0.176394 0.035612 0.132031 0.583450
O63   O     O_2   0.128706 0.053960 0.112377 -0.490458
O64   O     O_R   0.188647 0.070129 0.180384 -0.641242
H50   H     H_    0.152567 0.099075 0.197677 0.358743
C183  C     C_2   0.287499 0.555570 0.865302 0.585634
O65   O     O_2   0.324429 0.611503 0.884432 -0.472177
O66   O     O_R   0.270327 0.570338 0.815714 -0.658511
H51   H     H_    0.291471 0.629890 0.799606 0.373841
C184  C     C_2   0.675642 0.528739 0.124939 0.577404
O67   O     O_2   0.628616 0.551715 0.105300 -0.487852
O68   O     O_R   0.690096 0.565921 0.172372 -0.647694
H52   H     H_    0.655101 0.597878 0.189937 0.362903
C185  C     C_2   0.666000 0.803287 0.153934 0.635901
O69   O     O_2   0.681951 0.791698 0.197192 -0.499979
O70   O     O_R   0.613523 0.757806 0.137608 -0.641153
H53   H     H_    0.589914 0.726453 0.165721 0.342885
C186  C     C_2   0.363880 0.868379 0.865849 0.659896
O71   O     O_2   0.353772 0.797967 0.836973 -0.476923
O72   O     O_R   0.420593 0.908035 0.869664 -0.680711
H54   H     H_    0.449307 0.872149 0.846493 0.364225
C187  C     C_2   0.169231 0.304986 0.151259 0.627947
O73   O     O_2   0.187254 0.291096 0.193763 -0.495252
O74   O     O_R   0.116435 0.259319 0.135957 -0.629755
H55   H     H_    0.093888 0.227119 0.164443 0.346465
C188  C     C_2   0.836417 0.305665 0.846982 0.643901
O75   O     O_2   0.822071 0.293407 0.803332 -0.502187
O76   O     O_R   0.888665 0.261321 0.864430 -0.626228
H56   H     H_    0.912640 0.227833 0.836971 0.341280
O77   O     O_3   0.575968 0.333290 0.381959 -0.651157
H57   H     H_    0.585478 0.383063 0.408807 0.339948
O78   O     O_3   0.429934 0.339511 0.620853 -0.649529
H58   H     H_    0.421263 0.391263 0.594904 0.337064
O79   O     O_3   0.075977 0.833272 0.381949 -0.651322
H59   H     H_    0.085463 0.883069 0.408790 0.339911
O80   O     O_3   0.930619 0.839996 0.621043 -0.649736
H60   H     H_    0.922070 0.891899 0.595137 0.336729
C189  C     C_2   0.531019 0.002905 0.636312 0.594347
O81   O     O_2   0.537603 0.917992 0.617880 -0.512436
O82   O     O_R   0.550987 0.022083 0.684882 -0.659008
H61   H     H_    0.569063 0.959444 0.701049 0.351015
C190  C     C_2   0.461150 0.011994 0.358315 0.590950
O83   O     O_2   0.448941 0.928447 0.375812 -0.513006
O84   O     O_R   0.446384 0.033670 0.308776 -0.649968
H62   H     H_    0.426743 0.973811 0.291243 0.369282
C191  C     C_2   0.030558 0.502296 0.636151 0.593852
O85   O     O_2   0.036729 0.417323 0.617676 -0.512494
O86   O     O_R   0.050730 0.521161 0.684694 -0.664698
H63   H     H_    0.068501 0.458243 0.700848 0.353699
C192  C     C_2   0.961083 0.512095 0.358274 0.590732
O87   O     O_2   0.948811 0.428588 0.375779 -0.513272
O88   O     O_R   0.946415 0.533726 0.308710 -0.650234
H64   H     H_    0.926817 0.473855 0.291153 0.368281
O89   O     O_3   0.819664 0.031272 0.633931 -0.652742
H65   H     H_    0.836345 0.085126 0.612202 0.327701
O90   O     O_3   0.176811 0.038307 0.359219 -0.650722
H66   H     H_    0.159999 0.094447 0.379715 0.326217
O91   O     O_3   0.319546 0.531397 0.633984 -0.655273
H67   H     H_    0.336189 0.585309 0.612269 0.327004
O92   O     O_3   0.676778 0.538216 0.359298 -0.650403
H68   H     H_    0.659949 0.594303 0.379817 0.326530
C193  C     C_2   0.496321 0.877768 0.949653 0.669004
O93   O     O_2   0.455624 0.821397 0.961262 -0.461286
O94   O     O_R   0.536308 0.845082 0.913405 -0.631169
H69   H     H_    0.526919 0.774349 0.899988 0.351200
C194  C     C_2   0.528239 0.890250 0.055385 0.672469
O95   O     O_2   0.569139 0.903762 0.084416 -0.489830
O96   O     O_R   0.504630 0.792442 0.048952 -0.560901
H70   H     H_    0.525486 0.739051 0.069894 0.383763
C195  C     C_2   0.975858 0.388697 0.947784 0.690985
O97   O     O_2   0.927853 0.395911 0.927330 -0.456600
O98   O     O_R   0.008118 0.298213 0.943953 -0.589977
H71   H     H_    0.986370 0.243075 0.924620 0.370339
C196  C     C_2   0.025287 0.386821 0.052842 0.684004
O99   O     O_2   0.063256 0.396327 0.084888 -0.492540
O100  O     O_R   0.002355 0.290070 0.042258 -0.587845
H72   H     H_    0.020912 0.234425 0.063363 0.371132
O101  O     O_3   0.695480 0.730054 0.620304 -0.653777
H73   H     H_    0.673536 0.690808 0.594502 0.326726
O102  O     O_3   0.320765 0.765270 0.374205 -0.649274
H74   H     H_    0.348662 0.737037 0.399240 0.333331
O103  O     O_3   0.195537 0.229984 0.620288 -0.653675
H75   H     H_    0.173597 0.190750 0.594479 0.326676
O104  O     O_3   0.820752 0.265191 0.374197 -0.649264
H76   H     H_    0.848640 0.236917 0.399227 0.333269
O105  O     O_3   0.859806 0.928041 0.464944 -0.725336
H77   H     H_    0.890562 0.943080 0.439742 0.325065
O106  O     O_3   0.151877 0.943575 0.525475 -0.724968
H78   H     H_    0.119544 0.945705 0.550359 0.323576
O107  O     O_3   0.359761 0.428297 0.465002 -0.725480
H79   H     H_    0.390524 0.443344 0.439806 0.325106
O108  O     O_3   0.651802 0.443381 0.525549 -0.724837
H80   H     H_    0.619475 0.445595 0.550436 0.323800
O109  O     O_3   0.847665 0.992076 0.124239 -0.621776
H81   H     H_    0.850711 0.974187 0.160008 0.338341
O110  O     O_3   0.154107 0.952387 0.872415 -0.634028
H82   H     H_    0.158945 0.940546 0.836172 0.339559
O111  O     O_3   0.342210 0.517461 0.118874 -0.626278
H83   H     H_    0.350538 0.490649 0.152682 0.340565
O112  O     O_3   0.650141 0.482797 0.871299 -0.621001
H84   H     H_    0.649758 0.465870 0.835265 0.339398
C197  C     C_2   0.652347 0.756615 0.964004 0.581318
O113  O     O_2   0.611441 0.798279 0.985423 -0.489665
O114  O     O_R   0.647274 0.654596 0.949477 -0.615672
H85   H     H_    0.608201 0.624321 0.960308 0.394717
C198  C     C_2   0.338531 0.763079 0.030759 0.644863
O115  O     O_2   0.381500 0.732574 0.054183 -0.388055
O116  O     O_R   0.328161 0.725918 0.982726 -0.642469
H86   H     H_    0.361150 0.679950 0.970456 0.407851
C199  C     C_2   0.156048 0.249343 0.962357 0.588818
O117  O     O_2   0.113223 0.291051 0.980945 -0.470778
O118  O     O_R   0.152821 0.146506 0.948806 -0.626300
H87   H     H_    0.112958 0.116078 0.957261 0.396377
C200  C     C_2   0.849252 0.273456 0.035372 0.574353
O119  O     O_2   0.888264 0.327988 0.019152 -0.455777
O120  O     O_R   0.859746 0.169870 0.043226 -0.599347
H88   H     H_    0.901189 0.149892 0.032703 0.394459
C201  C     C_2   0.849234 0.908604 0.025290 0.654713
O121  O     O_2   0.892181 0.962199 0.033853 -0.463868
O122  O     O_R   0.851254 0.835735 0.987028 -0.722307
H89   H     H_    0.883235 0.849839 0.961869 0.333353
C202  C     C_2   0.156477 0.887302 0.973400 0.647700
O123  O     O_2   0.109235 0.927829 0.964103 -0.488014
O124  O     O_R   0.159875 0.808504 0.008378 -0.698313
H90   H     H_    0.120640 0.792737 0.024434 0.338667
C203  C     C_2   0.341592 0.457253 0.017196 0.633954
O125  O     O_2   0.379051 0.521820 0.026478 -0.427783
O126  O     O_R   0.348951 0.392611 0.976057 -0.733278
H91   H     H_    0.377559 0.421123 0.950777 0.327092
C204  C     C_2   0.645161 0.392005 0.968399 0.651251
O127  O     O_2   0.599677 0.436139 0.956646 -0.477882
O128  O     O_R   0.644147 0.317733 0.005743 -0.709593
H92   H     H_    0.604517 0.311620 0.022500 0.342322
O129  O     O_3   0.772036 0.063282 0.977133 -0.648207
H93   H     H_    0.777879 0.120003 0.953377 0.344389
O130  O     O_3   0.215642 0.075356 0.030599 -0.664455
H94   H     H_    0.206555 0.129671 0.055141 0.340095
O131  O     O_3   0.241667 0.580367 0.967413 -0.640282
H95   H     H_    0.237086 0.633185 0.941358 0.371727
O132  O     O_3   0.713470 0.554528 0.021796 -0.657021
H96   H     H_    0.707084 0.611987 0.045255 0.341973

loop_
_geom_bond_atom_site_label_1
_geom_bond_atom_site_label_2
_ccdc_geom_bond_type
C99   C103  A    
O124  H90   S    
O89   H65   S    
C55   C59   A    
C188  O76   S    
C202  O123  D    
C142  C146  A    
C77   C101  A    
O56   H46   S    
C7    C168  A    
C53   C69   A    
C38   C70   S    
O79   H59   S    
C22   H37   S    
O129  H93   S    
C108  C164  S    
Cr12  O36   S    
C37   C69   S    
C26   C50   A    
C95   C99   A    
Cr5   O25   S    
Cr6   O30   S    
C29   C33   A    
C175  C195  S    
C133  O45   A    
C137  O89   S    
Cr12  O20   S    
C3    C74   S    
C9    C13   A    
C146  C150  A    
C131  C151  A    
C12   C16   A    
C56   C72   A    
C169  C174  A    
C63   C183  S    
Cr2   O46   S    
C123  O107  S    
C172  C175  A    
C141  C145  A    
C138  C154  A    
C45   O33   A    
C6    C165  A    
C29   O109  S    
C167  C180  S    
C21   C22   A    
C90   O38   A    
C2    O22   A    
C41   C49   A    
C192  O88   S    
C192  O87   D    
C63   C67   A    
C129  H17   S    
C18   C170  A    
C25   C29   A    
C127  H31   S    
O72   H54   S    
C28   C32   A    
C111  H15   S    
Cr10  O10   S    
C62   C66   A    
C167  C171  A    
C181  O61   D    
C60   C76   A    
C98   H5    S    
C66   O130  S    
C12   H35   S    
C78   C82   A    
O62   H49   S    
C54   C70   A    
Cr3   O43   S    
C68   C72   A    
C137  C153  A    
Cr8   O28   S    
O102  H74   S    
C146  H26   S    
C161  O41   A    
C158  O6    A    
C20   C172  A    
O101  H73   S    
C132  C152  A    
C135  O47   A    
C112  H16   S    
O104  H76   S    
C130  C138  A    
C123  C127  A    
O107  H79   S    
C47   O35   A    
C84   C88   A    
C166  C177  S    
Cr6   O50   S    
C39   C43   A    
O98   H71   S    
C119  C123  A    
C26   C90   S    
C5    C46   S    
C105  C125  A    
C110  H14   S    
C7    C48   S    
C19   C20   A    
C8    C47   S    
C107  C127  A    
C177  O54   S    
C175  C176  A    
C197  O113  D    
C44   H4    S    
C136  C153  S    
C66   C70   A    
C3    O27   A    
Cr8   O32   S    
Cr11  O19   S    
C136  O52   A    
C49   C185  S    
Cr9   O17   S    
O78   H58   S    
C61   C65   A    
C129  C137  A    
Cr4   O4    S    
C52   C188  S    
O90   H66   S    
C39   C71   S    
C117  C149  S    
C174  C194  S    
C129  C149  A    
C193  O93   D    
C56   C200  S    
Cr8   O8    S    
C55   C71   A    
C2    C75   S    
C126  H30   S    
C53   C197  S    
C122  C126  A    
C191  O85   D    
C95   C96   S    
C64   C184  S    
C100  C104  A    
Cr4   O48   S    
C131  H19   S    
C6    C9    A    
O111  H83   S    
C61   C181  S    
C203  O125  D    
C121  C125  A    
C168  C179  S    
C58   H42   S    
C64   C68   A    
C82   O78   S    
C147  H27   S    
C184  O68   S    
O110  H82   S    
C91   O3    A    
C118  C150  S    
C158  O10   A    
C89   O1    A    
C187  O74   S    
Cr11  O15   S    
C85   C93   A    
C9    H34   S    
C78   C158  S    
C36   C204  S    
C182  O64   S    
C87   C95   A    
C130  C150  A    
C23   C24   A    
C27   C91   S    
C110  C114  A    
C102  C189  S    
C143  O103  S    
Cr3   O23   S    
C44   C52   A    
C62   C182  S    
Cr12  O40   S    
C180  O60   S    
C79   C103  A    
C11   C15   A    
C148  H28   S    
C5    C10   A    
C138  O90   S    
C200  O120  S    
C27   C51   A    
C178  O55   D    
C25   C49   A    
C183  O66   S    
C7    C12   A    
Cr6   O26   S    
C122  O106  S    
C30   C34   A    
C55   C199  S    
C10   C14   A    
Cr2   O2    S    
C160  O12   A    
C116  C120  A    
C144  C156  A    
C147  C151  A    
C161  O13   A    
C179  O57   D    
C130  H18   S    
C103  C192  S    
C45   O29   A    
O126  H91   S    
C139  C155  A    
C54   C198  S    
C54   C58   A    
C17   C18   A    
C4    O28   A    
C65   O129  S    
C5    C166  A    
C108  C128  A    
C4    C73   S    
C42   C50   A    
C113  C117  A    
C107  C163  S    
C166  C170  A    
C115  C119  A    
C105  C161  S    
C4    O24   A    
C93   C97   A    
Cr10  O14   S    
C58   C74   A    
Cr5   O5    S    
C176  C196  S    
O88   H64   S    
C105  C109  A    
C40   C72   S    
C1    C76   S    
C107  C111  A    
C148  C152  A    
C68   O132  S    
C26   C30   A    
Cr2   O22   S    
C117  C121  A    
C171  C176  A    
C115  H23   S    
C14   C22   A    
Cr6   O18   S    
C113  H21   S    
O109  H81   S    
C162  O42   A    
C141  C153  A    
C63   C75   A    
Cr7   O31   S    
C96   C100  A    
C37   C41   A    
C196  O100  S    
C131  C139  A    
C40   C44   A    
C199  O118  S    
C142  C154  A    
C81   C85   A    
C194  O96   S    
C140  O92   S    
C83   C87   A    
C88   C96   A    
C199  O117  D    
C6    C45   S    
C78   C102  A    
C133  C156  S    
C87   H11   S    
C80   C84   A    
C23   H40   S    
Cr1   O41   S    
O100  H72   S    
C163  O43   A    
C15   C19   A    
C21   H38   S    
C134  O50   A    
C135  C154  S    
C80   C104  A    
O77   H57   S    
C136  O48   A    
C195  O98   S    
C79   C159  S    
C92   O40   A    
C80   C160  S    
C112  C116  A    
C94   C98   A    
O96   H70   S    
C101  C190  S    
C188  O75   D    
C185  O70   S    
O120  H88   S    
C204  O128  S    
O92   H68   S    
C190  O84   S    
C24   H39   S    
Cr9   O37   S    
C124  C128  A    
Cr10  O34   S    
Cr11  O39   S    
O68   H52   S    
C165  C169  A    
C202  O124  S    
C83   O79   S    
C159  O11   A    
C1    O21   A    
C1    O25   A    
C181  O62   S    
Cr9   O33   S    
O64   H50   S    
C134  O46   A    
C135  O51   A    
Cr11  O11   S    
O58   H47   S    
C53   C57   A    
Cr9   O9    S    
C51   C187  S    
C61   C73   A    
C183  O65   D    
C27   C31   A    
C99   H8    S    
C33   C37   A    
C108  C112  A    
C97   H6    S    
Cr7   O51   S    
O130  H94   S    
C177  O53   D    
C8    C167  A    
C57   H41   S    
O80   H60   S    
C77   C81   A    
C46   O34   A    
Cr1   O17   S    
C145  H25   S    
C85   H9    S    
Cr7   O27   S    
C31   C35   A    
Cr12  O12   S    
C32   C36   A    
O84   H62   S    
C165  C178  S    
O103  H75   S    
C100  H7    S    
C191  O86   S    
C60   H44   S    
C164  O44   A    
C142  O102  S    
Cr8   O52   S    
C11   H36   S    
O108  H80   S    
C13   C17   A    
C132  C140  A    
C106  C126  A    
C25   C89   S    
C186  O71   D    
C143  C155  A    
C121  O105  S    
C88   H12   S    
C109  H13   S    
O74   H55   S    
C116  H24   S    
O76   H56   S    
C98   C102  A    
C79   C83   A    
C43   C51   A    
C184  O67   D    
C65   C69   A    
C92   O4    A    
C67   C71   A    
C106  C162  S    
C201  O121  D    
C187  O73   D    
Cr7   O19   S    
Cr10  O18   S    
O70   H53   S    
C35   C203  S    
C56   C60   A    
C104  C191  S    
C168  C172  A    
Cr5   O29   S    
C81   O77   S    
C182  O63   D    
O116  H86   S    
C144  O104  S    
C159  O7    A    
C62   C74   A    
C145  C149  A    
C30   O110  S    
C170  C173  A    
C125  H29   S    
O82   H61   S    
C93   C94   S    
Cr4   O20   S    
C180  O59   D    
C14   C18   A    
C35   C39   A    
O112  H84   S    
C144  C148  A    
C200  O119  D    
Cr4   O24   S    
O106  H78   S    
C173  C174  A    
C143  C147  A    
C34   C202  S    
C89   O37   A    
Cr8   O20   S    
C19   C171  A    
C38   C42   A    
C91   O39   A    
C193  O94   S    
C118  C122  A    
C17   C169  A    
C197  O114  S    
C48   O36   A    
C57   C73   A    
Cr3   O19   S    
C90   O2    A    
C42   H2    S    
C157  O9    A    
C86   C94   A    
C10   H33   S    
Cr7   O7    S    
C189  O82   S    
C198  O115  D    
C33   C201  S    
O54   H45   S    
C186  O72   S    
Cr2   O18   S    
C163  O15   A    
O114  H85   S    
C198  O116  S    
C16   C20   A    
C179  O58   S    
Cr2   O42   S    
C15   C23   A    
C84   O80   S    
C43   H3    S    
C201  O122  S    
C203  O126  S    
C119  C151  S    
C50   C186  S    
C173  C193  S    
C120  C152  S    
C13   C21   A    
C31   O111  S    
C36   C40   A    
Cr3   O3    S    
O122  H89   S    
O60   H48   S    
Cr1   O1    S    
O66   H51   S    
C47   O31   A    
C48   O32   A    
C59   H43   S    
C162  O14   A    
Cr5   O49   S    
O94   H69   S    
Cr10  O38   S    
C124  O108  S    
O118  H87   S    
Cr11  O35   S    
C141  O101  S    
C64   C76   A    
C28   C92   S    
C32   O112  S    
C109  C113  A    
C196  O99   D    
C114  C118  A    
C2    O26   A    
C140  C156  A    
C132  H20   S    
C59   C75   A    
Cr6   O6    S    
Cr9   O13   S    
C194  O95   D    
C106  C110  A    
C157  O5    A    
C134  C155  S    
C128  H32   S    
C160  O8    A    
C34   C38   A    
C41   H1    S    
Cr1   O45   S    
C46   O30   A    
Cr1   O21   S    
O91   H67   S    
C82   C86   A    
C139  O91   S    
C114  H22   S    
O132  H96   S    
Cr4   O44   S    
Cr5   O17   S    
C195  O97   D    
C28   C52   A    
O86   H63   S    
O131  H95   S    
O105  H77   S    
C8    C11   A    
C133  O49   A    
C178  O56   S    
Cr12  O16   S    
C67   O131  S    
C86   H10   S    
C185  O69   D    
C164  O16   A    
C3    O23   A    
Cr3   O47   S    
O128  H92   S    
C16   C24   A    
C204  O127  D    
C189  O81   D    
C111  C115  A    
C190  O83   D    
C97   C101  A    
C120  C124  A    
C77   C157  S    
