data_mof_unit_48739.cif
_audit_creation_date              2012-12-10T19:42:56-0500
_audit_creation_method            fapswitch 2.2
_symmetry_space_group_name_H-M    P1
_symmetry_Int_Tables_number       1
_space_group_crystal_system       triclinic
_cell_length_a                    10.961602
_cell_length_b                    13.045805
_cell_length_c                    11.740093
_cell_angle_alpha                 101.306789
_cell_angle_beta                  94.998671
_cell_angle_gamma                 92.007575
_cell_volume                      1637.68636705

loop_
_atom_site_label
_atom_site_type_symbol
_atom_type_description
_atom_site_fract_x
_atom_site_fract_y
_atom_site_fract_z
_atom_type_partial_charge
C1    C     C_R   0.501729 0.298969 0.477211 0.826515
C2    C     C_R   0.500864 0.701418 0.522852 0.836436
C3    C     C_R   0.871863 0.498860 0.503486 -0.106725
C4    C     C_R   0.127419 0.497764 0.495702 -0.099934
C5    C     C_R   0.949087 0.490137 0.603967 0.101637
C6    C     C_R   0.049616 0.503194 0.394259 0.136420
C7    C     C_R   0.499441 0.816016 0.537392 -0.140320
C8    C     C_R   0.508334 0.185121 0.462791 -0.134733
C9    C     C_R   0.535361 0.012239 0.348030 0.090590
C10   C     C_R   0.478161 0.989910 0.652731 0.092504
C11   C     C_R   0.534669 0.121161 0.357066 0.258914
C12   C     C_R   0.481315 0.881527 0.644896 0.265543
C13   C     C_R   0.489502 0.140686 0.559210 -0.317050
C14   C     C_R   0.516467 0.860044 0.439961 -0.334621
C15   C     C_R   0.494251 0.033279 0.553344 0.065051
C16   C     C_R   0.515222 0.968010 0.446349 0.066743
C17   C     C_R   0.436015 0.371017 0.014790 0.058068
C18   C     C_R   0.561296 0.629266 0.985174 0.048273
C19   C     C_R   0.428605 0.388844 0.138151 0.335480
C20   C     C_R   0.570471 0.611271 0.862209 0.333918
C21   C     C_R   0.521673 0.558912 0.160143 -0.003532
C22   C     C_R   0.478943 0.440655 0.839735 -0.000347
C23   C     C_R   0.261804 0.499090 0.498516 0.792800
C24   C     C_R   0.737965 0.499917 0.501283 0.776264
C25   C     C_R   0.520169 0.547629 0.036576 0.020359
C26   C     C_R   0.479681 0.451933 0.963370 0.012170
C27   C     C_R   0.187780 0.588560 0.139942 0.115985
C28   C     C_R   0.810949 0.380288 0.843766 0.177812
C29   C     C_R   0.150596 0.590222 0.252417 0.098824
C30   C     C_R   0.853966 0.386588 0.735837 0.077567
C31   C     C_R   0.093090 0.500413 0.277611 0.008641
C32   C     C_R   0.903726 0.482603 0.717669 -0.033718
C33   C     C_R   0.066226 0.410250 0.189259 0.139752
C34   C     C_R   0.915103 0.571204 0.809156 0.175122
C35   C     C_R   0.100858 0.408692 0.076061 0.085600
C36   C     C_R   0.877962 0.563776 0.919735 0.092519
C37   C     C_R   0.163799 0.497477 0.051664 0.167076
C38   C     C_R   0.823004 0.468477 0.936382 0.142646
C39   C     C_R   0.923686 0.505254 0.400364 -0.201931
C40   C     C_R   0.075207 0.488739 0.598042 -0.244164
Cu1   Cu    Cu3+1 0.509250 0.507730 0.615930 0.950013
Cu2   Cu    Cu3+1 0.490750 0.492270 0.384070 0.950318
H1    H     H_    0.440825 0.369270 0.783011 0.169901
H2    H     H_    0.560340 0.630196 0.216731 0.164045
H3    H     H_    0.865702 0.510985 0.322465 0.159682
H4    H     H_    0.133016 0.479298 0.674494 0.157067
H5    H     H_    0.531827 0.809011 0.358698 0.175144
H6    H     H_    0.470435 0.191145 0.639603 0.174305
N1    N     N_R   0.523180 0.519350 0.790130 -0.212119
N2    N     N_R   0.476820 0.480650 0.209870 -0.207407
O1    O     O_R   0.506570 0.354460 0.582000 -0.608874
O2    O     O_R   0.493430 0.645540 0.418000 -0.616028
O3    O     O_R   0.490940 0.341410 0.386200 -0.520923
O4    O     O_R   0.509060 0.658590 0.613800 -0.519802
O5    O     O_R   0.327460 0.506540 0.597900 -0.587245
O6    O     O_R   0.672540 0.493460 0.402100 -0.581178
O7    O     O_R   0.311830 0.493480 0.402100 -0.585103
O8    O     O_R   0.688170 0.506520 0.597900 -0.589067
N3    N     N_3   0.202693 0.493532 0.937062 -0.604099
H7    H     H_    0.256839 0.559689 0.932448 0.252098
H8    H     H_    0.124452 0.492563 0.879769 0.216791
N4    N     N_3   0.778161 0.463205 0.046899 -0.600586
H9    H     H_    0.730695 0.392142 0.045402 0.250395
H10   H     H_    0.853380 0.468233 0.108624 0.217416
N5    N     N_3   0.629005 0.689350 0.812009 -0.528586
H11   H     H_    0.671629 0.751009 0.874357 0.167156
H12   H     H_    0.698553 0.654212 0.766189 0.230231
N6    N     N_3   0.369555 0.311491 0.189237 -0.530075
H13   H     H_    0.334784 0.245424 0.128625 0.174136
H14   H     H_    0.294658 0.345250 0.227529 0.231939
N7    N     N_3   0.402186 0.270852 0.941347 -0.643191
H15   H     H_    0.451458 0.213864 0.973803 0.230456
H16   H     H_    0.308406 0.254482 0.941275 0.216710
N8    N     N_3   0.584905 0.731583 0.057223 -0.648439
H17   H     H_    0.534560 0.785034 0.019432 0.234767
H18   H     H_    0.678012 0.753142 0.064036 0.209658
N9    N     N_3   0.248040 0.679638 0.114181 -0.621990
H19   H     H_    0.190109 0.741845 0.128674 0.217708
H20   H     H_    0.328044 0.699296 0.170698 0.226434
N10   N     N_3   0.755698 0.283541 0.859994 -0.603348
H21   H     H_    0.819287 0.225669 0.844970 0.246239
H22   H     H_    0.680127 0.262679 0.797873 0.236121
N11   N     N_3   0.169109 0.683209 0.341847 -0.594793
H23   H     H_    0.262637 0.704981 0.356024 0.233602
H24   H     H_    0.122413 0.743317 0.313177 0.214518
N12   N     N_3   0.846106 0.294308 0.645350 -0.597242
H25   H     H_    0.790382 0.307860 0.573573 0.219239
H26   H     H_    0.933997 0.279908 0.619974 0.219224
N13   N     N_2   0.995946 0.323765 0.212744 -0.424848
H27   H     H_    0.934951 0.286043 0.144275 0.277383
C41   C     C_3   0.064871 0.251758 0.268787 -0.701860
H28   H     H_    0.124922 0.207406 0.207463 0.215557
H29   H     H_    0.000319 0.195314 0.295373 0.225877
H30   H     H_    0.121613 0.293948 0.348126 0.231417
N14   N     N_2   0.954898 0.669795 0.786122 -0.409514
H31   H     H_    0.894766 0.727986 0.806876 0.240934
C42   C     C_3   0.079700 0.705176 0.828936 -0.679203
H32   H     H_    0.099156 0.782221 0.806042 0.219868
H33   H     H_    0.144724 0.649474 0.788165 0.233597
H34   H     H_    0.093643 0.714813 0.925112 0.257537
N15   N     N_3   0.069095 0.316251 0.987211 -0.600312
H35   H     H_    0.096935 0.323440 0.906331 0.237286
H36   H     H_    0.115470 0.254342 0.012018 0.208734
N16   N     N_3   0.901222 0.652888 0.014578 -0.594988
H37   H     H_    0.866966 0.640246 0.091063 0.237613
H38   H     H_    0.855945 0.715870 0.991681 0.198175
N17   N     N_2   0.466485 0.839097 0.745885 -0.382781
H39   H     H_    0.510870 0.882808 0.821939 0.267599
C43   C     C_3   0.341376 0.809210 0.759287 -0.640310
H40   H     H_    0.339992 0.770500 0.835428 0.223059
H41   H     H_    0.300131 0.753232 0.680341 0.234382
H42   H     H_    0.286144 0.879583 0.774472 0.216393
N18   N     N_2   0.562185 0.166132 0.260326 -0.390742
H43   H     H_    0.528600 0.122767 0.179837 0.267891
C44   C     C_3   0.689120 0.201948 0.263487 -0.612422
H44   H     H_    0.700073 0.242730 0.190085 0.219445
H45   H     H_    0.748977 0.134377 0.254832 0.212620
H46   H     H_    0.718370 0.257950 0.346392 0.219661
N19   N     N_3   0.559133 0.948523 0.238818 -0.623920
H47   H     H_    0.483883 0.895782 0.208756 0.225559
H48   H     H_    0.637604 0.907418 0.251938 0.230660
N20   N     N_3   0.457073 0.054047 0.762660 -0.624393
H49   H     H_    0.531353 0.108285 0.790139 0.226802
H50   H     H_    0.376615 0.093237 0.751906 0.229868

loop_
_geom_bond_atom_site_label_1
_geom_bond_atom_site_label_2
_ccdc_geom_bond_type
C8    C13   A    
C27   C29   A    
C1    C8    S    
C44   H45   S    
Cu1   Cu2   S    
N14   H31   S    
C35   N15   S    
N16   H38   S    
C42   H32   S    
C11   N18   S    
N9    H19   S    
C40   H4    S    
N15   H35   S    
N8    H18   S    
C17   C26   A    
C35   C37   A    
C9    C16   A    
Cu1   O8    S    
C29   N11   S    
C10   C15   A    
C43   H41   S    
Cu2   O3    S    
C33   C35   A    
N12   H26   S    
C44   H44   S    
C1    O3    A    
C21   N2    A    
N4    H10   S    
C2    C7    S    
Cu2   O6    S    
C7    C14   A    
Cu1   O5    S    
C4    C40   A    
N6    H13   S    
N5    H12   S    
N17   H39   S    
C31   C33   A    
C30   N12   S    
C18   C20   A    
C39   H3    S    
C5    C32   S    
N19   H48   S    
C6    C31   S    
C3    C39   A    
N3    H7    S    
C18   N8    S    
N17   C43   S    
C3    C24   S    
C18   C25   A    
C20   N1    A    
C10   C12   A    
Cu2   O7    S    
Cu1   N1    S    
N16   H37   S    
C42   H33   S    
N9    H20   S    
C7    C12   A    
N3    H8    S    
N8    H17   S    
C20   N5    S    
C34   N14   S    
N10   H22   S    
C2    O4    A    
C43   H42   S    
C41   H28   S    
N7    H16   S    
C4    C23   S    
N12   H25   S    
C27   N9    S    
C25   C26   A    
C13   H6    S    
C32   C34   A    
N4    H9    S    
C33   N13   S    
C41   H29   S    
C21   H2    S    
C9    C11   A    
N11   H23   S    
C28   C38   A    
C44   H46   S    
C19   N6    S    
C1    O1    A    
C37   N3    S    
C2    O2    A    
Cu2   N2    S    
C22   N1    A    
C4    C6    A    
N11   H24   S    
C17   N7    S    
C13   C15   A    
C9    N19   S    
C14   C16   A    
N13   C41   S    
N20   H50   S    
C3    C5    A    
C42   H34   S    
N18   H43   S    
N15   H36   S    
C23   O7    A    
C21   C25   A    
N10   H21   S    
C10   N20   S    
C12   N17   S    
N19   H47   S    
N14   C42   S    
C23   O5    A    
C14   H5    S    
C24   O6    A    
C36   N16   S    
C36   C38   A    
N13   H27   S    
N7    H15   S    
C29   C31   A    
C43   H40   S    
C41   H30   S    
C30   C32   A    
C19   N2    A    
C27   C37   A    
C8    C11   A    
C28   C30   A    
C17   C19   A    
C34   C36   A    
C28   N10   S    
Cu1   O4    S    
C24   O8    A    
N5    H11   S    
C22   C26   A    
C5    C40   A    
N6    H14   S    
C6    C39   A    
C38   N4    S    
N20   H49   S    
Cu1   O1    S    
C22   H1    S    
C15   C16   A    
Cu2   O2    S    
N18   C44   S    
