data_mof_unit_18340.cif
_audit_creation_date              2013-03-05T16:47:06-0500
_audit_creation_method            fapswitch 2.2
_symmetry_space_group_name_H-M    P1
_symmetry_Int_Tables_number       1
_space_group_crystal_system       triclinic
_cell_length_a                    10.834134
_cell_length_b                    15.778582
_cell_length_c                    17.104831
_cell_angle_alpha                 96.02749
_cell_angle_beta                  90.599653
_cell_angle_gamma                 91.78737
_cell_volume                      2906.16658409

loop_
_atom_site_label
_atom_site_type_symbol
_atom_site_description
_atom_site_fract_x
_atom_site_fract_y
_atom_site_fract_z
_atom_type_partial_charge
O1    O     O_R   0.494360 0.420530 0.382500 -0.565540
O2    O     O_R   0.505640 0.579470 0.617500 -0.566054
O3    O     O_R   0.504550 0.563720 0.388950 -0.596637
O4    O     O_R   0.495450 0.436280 0.611050 -0.595534
C1    C     C_R   0.498624 0.489754 0.348586 0.865401
C2    C     C_R   0.501348 0.510233 0.651416 0.865811
O5    O     O_R   0.314550 0.428410 0.496780 -0.548099
O6    O     O_R   0.685450 0.571590 0.503220 -0.551010
O7    O     O_R   0.324740 0.571600 0.503230 -0.604830
O8    O     O_R   0.675260 0.428400 0.496770 -0.603336
C3    C     C_R   0.262217 0.500814 0.498850 0.881565
C4    C     C_R   0.737772 0.499167 0.501126 0.881612
Cu1   Cu    Cu3+1 0.493970 0.415220 0.496180 0.999604
Cu2   Cu    Cu3+1 0.506030 0.584780 0.503820 0.996284
C5    C     C_R   0.258256 0.686593 0.711440 -0.176039
C6    C     C_R   0.742207 0.315286 0.287258 -0.171576
H1    H     H_    0.296314 0.676060 0.768245 0.166717
H2    H     H_    0.705030 0.326445 0.230399 0.188098
C7    C     C_R   0.187092 0.621657 0.668802 -0.181406
C8    C     C_R   0.813795 0.379543 0.330480 -0.190955
H3    H     H_    0.171651 0.561405 0.692749 0.156729
H4    H     H_    0.830394 0.439892 0.306921 0.158083
C9    C     C_R   0.137661 0.634321 0.594985 0.180653
C10   C     C_R   0.862108 0.366122 0.404385 0.181627
C11   C     C_R   0.159897 0.712412 0.564335 -0.087230
C12   C     C_R   0.838397 0.287907 0.434518 -0.081802
H5    H     H_    0.123371 0.722623 0.506995 0.180081
H6    H     H_    0.874057 0.277114 0.491919 0.182047
C13   C     C_R   0.231281 0.777025 0.606852 -0.176504
C14   C     C_R   0.766491 0.223979 0.391431 -0.194902
H7    H     H_    0.248761 0.836437 0.581867 0.201329
H8    H     H_    0.747739 0.164488 0.416024 0.192799
C15   C     C_R   0.280973 0.764356 0.680497 0.468072
C16   C     C_R   0.717870 0.237448 0.317708 0.463940
C17   C     C_R   0.938605 0.560218 0.551713 0.312966
C18   C     C_R   0.061354 0.439503 0.448440 0.317179
C19   C     C_R   0.871704 0.497068 0.502800 -0.241143
C20   C     C_R   0.128263 0.502813 0.497213 -0.240954
C21   C     C_R   0.932591 0.435106 0.452819 -0.145022
C22   C     C_R   0.067338 0.564807 0.547144 -0.145505
C23   C     C_R   0.495583 0.484221 0.262645 -0.110727
C24   C     C_R   0.504270 0.515664 0.737357 -0.108095
C25   C     C_R   0.520281 0.557122 0.224730 -0.194823
C26   C     C_R   0.479461 0.442670 0.775143 -0.191939
C27   C     C_R   0.517806 0.552139 0.143275 -0.144199
C28   C     C_R   0.481895 0.447463 0.856588 -0.144539
C29   C     C_R   0.489700 0.473716 0.097916 0.263688
C30   C     C_R   0.509990 0.525792 0.902058 0.270123
C31   C     C_R   0.463265 0.400616 0.136012 0.308798
C32   C     C_R   0.536415 0.598993 0.864124 0.301581
C33   C     C_R   0.466925 0.406191 0.218050 -0.238145
C34   C     C_R   0.532928 0.593618 0.782082 -0.239306
N1    N     N_2   0.487392 0.465928 0.014507 -0.177534
N2    N     N_2   0.512399 0.533455 0.985460 -0.176309
H9    H     H_    0.457335 0.381771 0.741800 0.202753
H10   H     H_    0.542401 0.618078 0.257974 0.201398
H11   H     H_    0.461587 0.389662 0.883613 0.230909
H12   H     H_    0.538130 0.609880 0.116149 0.227801
H13   H     H_    0.447011 0.349713 0.247159 0.234403
H14   H     H_    0.552977 0.650142 0.753067 0.233774
N3    N     N_R   0.515100 0.712130 0.509560 -0.239972
N4    N     N_R   0.484900 0.287870 0.490440 -0.240880
C35   C     C_R   0.435061 0.740208 0.456908 -0.064104
C36   C     C_R   0.564380 0.259767 0.543384 -0.066050
C37   C     C_R   0.436352 0.825147 0.440196 0.188716
C38   C     C_R   0.562157 0.174965 0.560497 0.167307
C39   C     C_R   0.513683 0.886407 0.484366 0.133808
C40   C     C_R   0.484789 0.113763 0.516272 0.146975
C41   C     C_R   0.604432 0.854849 0.534103 0.224389
C42   C     C_R   0.394637 0.145418 0.466068 0.293899
C43   C     C_R   0.600408 0.767383 0.547308 0.024783
C44   C     C_R   0.399560 0.232769 0.452569 0.016642
N5    N     N_2   0.508163 0.974862 0.470268 -0.099967
N6    N     N_2   0.490144 0.025324 0.530500 -0.070904
H15   H     H_    0.625642 0.305525 0.576977 0.206473
H16   H     H_    0.373835 0.694414 0.423323 0.205439
H17   H     H_    0.669875 0.742782 0.583863 0.225975
H18   H     H_    0.330417 0.257497 0.415856 0.226763
S1    S     S_3+6 0.373364 0.844903 0.733292 0.059683
O9    O     O_2   0.506845 0.825789 0.719632 -0.255224
O10   O     O_2   0.347048 0.930146 0.706070 -0.237237
O11   O     O_3   0.343864 0.846901 0.829755 -0.488329
H19   H     H_    0.404098 0.889474 0.855949 0.420440
S2    S     S_3+6 0.624684 0.157851 0.264235 0.057904
O12   O     O_2   0.651611 0.071909 0.289711 -0.266274
O13   O     O_2   0.491437 0.176680 0.279209 -0.249107
O14   O     O_3   0.652426 0.157835 0.167710 -0.452754
H20   H     H_    0.591839 0.115665 0.141292 0.421629
S3    S     S_3+6 0.641972 0.152742 0.646316 0.109990
O15   O     O_2   0.771879 0.129251 0.626156 -0.133384
O16   O     O_2   0.647179 0.230732 0.705049 -0.283001
O17   O     O_3   0.569890 0.072936 0.687423 -0.385710
H21   H     H_    0.487769 0.094825 0.702320 0.370387
S4    S     S_3+6 0.354677 0.847590 0.355144 0.082303
O18   O     O_2   0.352937 0.770783 0.295073 -0.283436
O19   O     O_2   0.223667 0.867390 0.375935 -0.189569
O20   O     O_3   0.422173 0.930125 0.315571 -0.389607
H22   H     H_    0.504899 0.910328 0.299470 0.368416
S5    S     S_3+6 0.739806 0.914937 0.564288 0.136837
O21   O     O_2   0.730942 0.946696 0.649793 -0.080247
O22   O     O_2   0.849534 0.859037 0.554052 -0.240056
O23   O     O_3   0.761239 0.997399 0.510584 -0.457402
H23   H     H_    0.777909 0.971073 0.456736 0.357235
S6    S     S_3+6 0.257992 0.086616 0.436156 0.120390
O24   O     O_2   0.243433 0.008870 0.479295 -0.209985
O25   O     O_2   0.149506 0.142141 0.454259 -0.247987
O26   O     O_3   0.260702 0.059058 0.338645 -0.384609
H24   H     H_    0.177104 0.034481 0.324788 0.405610
N7    N     N_R   0.876178 0.615179 0.610127 0.129907
O27   O     O_R   0.802005 0.582555 0.659173 -0.355430
O28   O     O_R   0.896352 0.697303 0.616568 -0.299503
N8    N     N_R   0.123784 0.384134 0.390353 0.129135
O29   O     O_R   0.198176 0.416324 0.341175 -0.365096
O30   O     O_R   0.103337 0.302041 0.384328 -0.308251
S7    S     S_3+6 0.425913 0.301600 0.081245 0.087803
O31   O     O_2   0.539992 0.268776 0.040794 -0.191267
O32   O     O_2   0.378460 0.237489 0.133664 -0.198942
O33   O     O_3   0.317927 0.314689 0.012597 -0.474129
H25   H     H_    0.248110 0.340585 0.042316 0.360077
S8    S     S_3+6 0.573236 0.697868 0.919316 0.092847
O34   O     O_2   0.680622 0.687164 0.973326 -0.199113
O35   O     O_2   0.606802 0.765205 0.866599 -0.187580
O36   O     O_3   0.451376 0.728786 0.974007 -0.462115
H26   H     H_    0.380273 0.723717 0.936751 0.359327

loop_
_geom_bond_atom_site_label_1
_geom_bond_atom_site_label_2
_geom_bond_distance
_ccdc_geom_bond_type
C38   C40   1.410732 A    
O14   H20   0.990555 S    
C35   C37   1.399090 A    
N5    N6    1.255047 D    
S2    O14   1.681254 S    
C31   C33   1.396823 A    
S6    O25   1.503263 D    
O20   H22   0.990598 S    
O36   H26   0.990498 S    
C29   C31   1.406464 A    
N1    N2    1.245595 D    
C5    C7    1.399350 A    
C16   S2    1.758835 S    
O1    C1    1.289245 A    
C17   C19   1.409034 A    
S2    O13   1.502136 D    
N7    O28   1.300317 A    
C42   S6    1.764386 S    
C35   H16   1.080305 S    
C40   N6    1.444276 S    
S7    O31   1.502360 D    
C13   C15   1.400717 A    
O4    Cu1   1.957841 S    
C10   C21   1.483155 S    
C41   C43   1.421077 A    
C4    C19   1.452500 S    
N3    C35   1.360425 A    
O33   H25   0.990568 S    
N8    O29   1.301365 A    
N4    C36   1.360169 A    
C34   H14   1.082626 S    
C6    C16   1.402234 A    
Cu1   N4    2.000759 S    
C8    C10   1.402186 A    
C26   C28   1.387141 A    
S7    O32   1.503079 D    
C18   N8    1.441026 S    
C32   C34   1.396997 A    
O26   H24   0.990537 S    
C39   N5    1.444046 S    
S3    O16   1.503860 D    
C17   N7    1.441033 S    
S8    O36   1.681176 S    
C6    C8    1.399137 A    
C29   N1    1.418958 S    
N3    C43   1.360224 A    
C30   C32   1.406301 A    
Cu1   Cu2   2.663909 S    
C13   H7    1.082609 S    
C23   C25   1.398722 A    
O2    C2    1.289443 A    
C24   C26   1.398968 A    
N8    O30   1.300427 A    
S6    O24   1.501559 D    
S8    O35   1.502717 D    
O5    C3    1.288483 A    
C38   S3    1.768029 S    
C27   C29   1.412724 A    
C11   C13   1.396327 A    
C28   C30   1.412350 A    
C27   H12   1.082685 S    
C14   C16   1.400783 A    
C14   H8    1.082671 S    
S2    O12   1.503316 D    
O4    C2    1.291367 A    
S1    O10   1.503272 D    
C15   S1    1.758800 S    
S4    O20   1.680763 S    
C37   C39   1.410647 A    
Cu2   N3    2.000762 S    
C39   C41   1.428402 A    
C36   C38   1.398944 A    
C30   N2    1.418872 S    
C3    C20   1.452638 S    
C7    C9    1.402315 A    
O7    Cu2   1.968448 S    
O7    C3    1.283010 A    
S5    O21   1.500468 D    
O6    C4    1.288673 A    
S7    O33   1.681492 S    
N4    C44   1.359925 A    
S4    O18   1.503834 D    
S3    O17   1.681076 S    
S4    O19   1.501196 D    
C25   C27   1.387166 A    
O3    Cu2   1.957840 S    
O8    C4    1.282710 A    
C41   S5    1.763857 S    
C40   C42   1.429627 A    
C37   S4    1.767945 S    
S5    O22   1.503079 D    
C8    H4    1.083000 S    
C12   C14   1.396556 A    
C28   H11   1.082590 S    
C32   S8    1.768696 S    
O1    Cu1   1.955094 S    
C43   H17   1.080467 S    
S8    O34   1.502707 D    
C5    H1    1.082360 S    
C1    C23   1.463374 S    
O6    Cu2   1.961431 S    
C31   S7    1.768467 S    
C18   C21   1.397780 A    
C10   C12   1.404032 A    
O3    C1    1.291526 A    
O8    Cu1   1.968447 S    
S1    O11   1.681168 S    
C11   H5    1.083304 S    
C12   H6    1.083302 S    
C18   C20   1.409435 A    
C17   C22   1.397759 A    
C19   C21   1.413640 A    
N7    O27   1.301370 A    
C20   C22   1.413709 A    
C26   H9    1.083389 S    
O17   H21   0.990568 S    
C36   H15   1.080259 S    
C23   C33   1.402879 A    
C9    C11   1.403882 A    
O23   H23   0.990623 S    
O2    Cu2   1.955094 S    
S1    O9    1.502123 D    
C25   H10   1.083394 S    
O5    Cu1   1.961434 S    
S5    O23   1.681444 S    
C33   H13   1.082595 S    
C6    H2    1.082269 S    
O11   H19   0.990539 S    
C2    C24   1.463450 S    
C44   H18   1.080558 S    
C42   C44   1.420657 A    
S3    O15   1.501004 D    
C5    C15   1.402318 A    
S6    O26   1.679690 S    
C9    C22   1.483056 S    
C24   C34   1.402903 A    
C7    H3    1.082981 S    
