data_mof_unit_63748.cif
_audit_creation_date              2013-03-05T16:44:32-0500
_audit_creation_method            fapswitch 2.2
_symmetry_space_group_name_H-M    P1
_symmetry_Int_Tables_number       1
_space_group_crystal_system       triclinic
_cell_length_a                    15.603686
_cell_length_b                    19.193317
_cell_length_c                    19.18678
_cell_angle_alpha                 94.651973
_cell_angle_beta                  101.989163
_cell_angle_gamma                 97.58482
_cell_volume                      5536.65407256

loop_
_atom_site_label
_atom_site_type_symbol
_atom_site_description
_atom_site_fract_x
_atom_site_fract_y
_atom_site_fract_z
_atom_type_partial_charge
Zn1   Zn    Zn3+2 0.425320 0.550450 0.550460 1.031568
Zn2   Zn    Zn3+2 0.580410 0.455020 0.567370 1.031288
Zn3   Zn    Zn3+2 0.568940 0.565780 0.453410 1.013846
Zn4   Zn    Zn3+2 0.425330 0.428750 0.428760 1.045809
O1    O     O_3   0.500000 0.500000 0.500000 -0.512453
O2    O     O_R   0.453390 0.335660 0.446330 -0.618006
O3    O     O_R   0.442080 0.649780 0.539130 -0.635589
O4    O     O_R   0.561920 0.473910 0.663190 -0.648925
O5    O     O_R   0.542610 0.540650 0.351350 -0.604634
O6    O     O_R   0.703360 0.489010 0.567610 -0.618340
O7    O     O_R   0.300660 0.429640 0.429680 -0.653207
O8    O     O_R   0.695340 0.566530 0.487850 -0.626949
O9    O     O_R   0.300650 0.514820 0.514850 -0.610648
O10   O     O_R   0.453370 0.540700 0.651360 -0.597208
O11   O     O_R   0.442100 0.444740 0.334100 -0.611277
O12   O     O_R   0.561930 0.354050 0.543340 -0.630469
O13   O     O_R   0.542600 0.660510 0.471200 -0.652627
C1    C     C_R   0.509506 0.311698 0.493260 0.862880
C2    C     C_R   0.490611 0.688150 0.505601 0.776126
C3    C     C_R   0.508800 0.508036 0.690379 0.853000
C4    C     C_R   0.490891 0.490623 0.308887 0.890671
C5    C     C_R   0.740748 0.534940 0.534675 0.876927
C6    C     C_R   0.258211 0.466664 0.465026 0.792581
C7    C     C_R   0.969856 0.631011 0.579714 -0.085930
H1    H     H_    0.850489 0.643253 0.614080 0.150659
H2    H     H_    0.002989 0.681400 0.608488 0.195523
C8    C     C_R   0.836066 0.546613 0.544228 -0.091106
C9    C     C_R   0.125137 0.376175 0.434900 -0.163742
C10   C     C_R   0.040327 0.351374 0.442273 -0.144465
C11   C     C_R   0.990127 0.397446 0.468743 -0.070844
C12   C     C_R   0.020636 0.471076 0.482535 0.105360
C13   C     C_R   0.108144 0.496143 0.476359 0.027986
C14   C     C_R   0.969517 0.519660 0.507967 -0.062311
C15   C     C_R   0.012389 0.588769 0.538733 -0.002083
C16   C     C_R   0.096376 0.614327 0.527189 0.317918
C17   C     C_R   0.140744 0.568895 0.492691 -0.241774
C18   C     C_R   0.877212 0.502520 0.503827 0.247890
C19   C     C_R   0.883108 0.608980 0.583949 -0.271299
C20   C     C_R   0.161617 0.447528 0.455307 -0.045579
H3    H     H_    0.164674 0.338223 0.418402 0.168150
H4    H     H_    0.929245 0.373642 0.480919 0.176293
H5    H     H_    0.015000 0.295395 0.430850 0.157579
H6    H     H_    0.201510 0.591697 0.479282 0.187658
C21   C     C_R   0.484910 0.763943 0.504137 -0.019318
C22   C     C_R   0.542268 0.806355 0.471751 -0.219493
C23   C     C_R   0.536086 0.877720 0.468553 -0.167193
C24   C     C_R   0.471984 0.908130 0.497723 0.308634
C25   C     C_R   0.413885 0.865565 0.528891 -0.166210
C26   C     C_R   0.420756 0.794155 0.532804 -0.174874
C27   C     C_R   0.446682 0.113805 0.457763 -0.174428
C28   C     C_R   0.441500 0.185678 0.457188 -0.198571
C29   C     C_R   0.526443 0.091179 0.490101 0.241386
N1    N     N_2   0.463938 0.980828 0.496369 -0.185984
N2    N     N_2   0.533366 0.018376 0.491041 -0.203826
C30   C     C_R   0.515306 0.235944 0.489835 -0.055495
H7    H     H_    0.379350 0.201960 0.432701 0.175628
H8    H     H_    0.388576 0.075820 0.432668 0.171699
H9    H     H_    0.363955 0.888101 0.551119 0.170980
H10   H     H_    0.375629 0.762571 0.557826 0.223759
C31   C     C_R   0.595296 0.213651 0.520695 -0.185864
C32   C     C_R   0.602112 0.141658 0.519772 0.203302
H11   H     H_    0.652755 0.252338 0.545830 0.186961
H12   H     H_    0.581006 0.908858 0.442848 0.159819
H13   H     H_    0.591992 0.784445 0.448696 0.178401
C33   C     C_R   0.485972 0.487082 0.230954 -0.170187
C34   C     C_R   0.499328 0.550339 0.198622 0.156383
C35   C     C_R   0.495628 0.546758 0.124977 -0.230574
C36   C     C_R   0.475681 0.481381 0.082291 0.241837
C37   C     C_R   0.458774 0.419397 0.113459 -0.233428
C38   C     C_R   0.466455 0.420989 0.187584 0.249835
C39   C     C_R   0.436462 0.500773 0.866133 -0.224384
C40   C     C_R   0.431185 0.496133 0.792094 0.284155
C41   C     C_R   0.519058 0.516570 0.914970 0.260719
N3    N     N_2   0.470296 0.476468 0.007448 -0.159840
N4    N     N_2   0.525972 0.520575 0.989993 -0.170467
C42   C     C_R   0.510342 0.508792 0.766962 -0.111036
H14   H     H_    0.376186 0.491210 0.885772 0.194097
H15   H     H_    0.443878 0.369122 0.080074 0.196174
C43   C     C_R   0.592346 0.525041 0.815981 -0.259581
C44   C     C_R   0.596443 0.529806 0.889439 -0.162503
H16   H     H_    0.653245 0.535382 0.797294 0.171206
H17   H     H_    0.505925 0.595303 0.100648 0.163243
H18   H     H_    0.660226 0.542840 0.926655 0.162130
N5    N     N_2   0.684269 0.120825 0.552119 -0.308090
H19   H     H_    0.680031 0.070574 0.567749 0.244948
C45   C     C_3   0.754916 0.136470 0.514805 -0.733385
H20   H     H_    0.816606 0.120512 0.545138 0.243526
H21   H     H_    0.768244 0.194032 0.510330 0.255676
H22   H     H_    0.737026 0.106711 0.460358 0.244251
N6    N     N_R   0.345886 0.476265 0.743767 0.221038
O14   O     O_R   0.336624 0.432489 0.686305 -0.395017
O15   O     O_R   0.275237 0.494137 0.761898 -0.366050
N7    N     N_R   0.136182 0.686997 0.547243 0.198887
O16   O     O_R   0.220800 0.702643 0.574696 -0.398924
O17   O     O_R   0.091292 0.737525 0.528338 -0.390821
N8    N     N_R   0.458732 0.355025 0.217963 0.228792
O18   O     O_R   0.400618 0.301716 0.184125 -0.366270
O19   O     O_R   0.519339 0.344227 0.272077 -0.350262
N9    N     N_2   0.515745 0.617945 0.239573 -0.270319
H23   H     H_    0.556256 0.655603 0.220950 0.232750
C46   C     C_3   0.436827 0.643774 0.252620 -0.732360
H24   H     H_    0.394031 0.653025 0.201238 0.235205
H25   H     H_    0.456013 0.694446 0.288264 0.239842
H26   H     H_    0.398771 0.605383 0.279450 0.223447
N10   N     N_R   0.822763 0.449470 0.449563 0.175874
O20   O     O_R   0.764166 0.402320 0.465637 -0.410192
O21   O     O_R   0.830896 0.449010 0.383385 -0.359888

loop_
_geom_bond_atom_site_label_1
_geom_bond_atom_site_label_2
_geom_bond_distance
_ccdc_geom_bond_type
C21   C26   1.403958 A    
N7    O16   1.300663 A    
C10   H5    1.082750 S    
C16   C17   1.390634 A    
C42   C43   1.402222 A    
C40   C42   1.415759 A    
N1    N2    1.247118 D    
C2    C21   1.471281 S    
N10   O21   1.301461 A    
C3    C42   1.463431 S    
O4    C3    1.286739 A    
Zn1   O1    1.961466 S    
C13   C17   1.407857 A    
C9    C10   1.385732 A    
N5    C45   1.446829 S    
C28   H7    1.083227 S    
C29   C32   1.409306 A    
C11   C12   1.415360 A    
C45   H21   1.110573 S    
C9    H3    1.083400 S    
C8    C19   1.392896 A    
C36   N3    1.415574 S    
C33   C38   1.419824 A    
O8    C5    1.270468 A    
O9    C6    1.280137 A    
C31   H11   1.083650 S    
C15   C16   1.405565 A    
C13   C20   1.419290 A    
Zn3   O8    1.943284 S    
N6    O15   1.301433 A    
C12   C13   1.418795 A    
C36   C37   1.393069 A    
N8    O19   1.301547 A    
C27   C29   1.409990 A    
C12   C14   1.424126 A    
C11   H4    1.077366 S    
Zn2   O12   1.924494 S    
C24   N1    1.419189 S    
C34   C35   1.397844 A    
N7    O17   1.301368 A    
C30   C31   1.402336 A    
C41   N4    1.415959 S    
C37   H15   1.083564 S    
C44   H18   1.083058 S    
C29   N2    1.416916 S    
C27   C28   1.393260 A    
C16   N7    1.436722 S    
O2    C1    1.278635 A    
N3    N4    1.247498 D    
C35   C36   1.402313 A    
C46   H24   1.111551 S    
O10   C3    1.285244 A    
N5    H19   1.030952 S    
Zn4   O2    1.934051 S    
C39   C41   1.407129 A    
C45   H20   1.110465 S    
C9    C20   1.402680 A    
C22   C23   1.391131 A    
C45   H22   1.111501 S    
C14   C18   1.418493 A    
C31   C32   1.398770 A    
C34   N9    1.424765 S    
C38   N8    1.437295 S    
C18   N10   1.440400 S    
C10   C11   1.388782 A    
Zn3   O5    1.922560 S    
H1    C19   1.083949 S    
C40   N6    1.439662 S    
C7    C19   1.384832 A    
C24   C25   1.398511 A    
N8    O18   1.301314 A    
C14   C15   1.424807 A    
Zn4   O7    1.951364 S    
C1    C30   1.465707 S    
O12   C1    1.274521 A    
C25   C26   1.395639 A    
N9    C46   1.447032 S    
C46   H26   1.110670 S    
O3    C2    1.289059 A    
C5    C8    1.444989 S    
Zn2   O1    1.945143 S    
Zn1   O9    1.933792 S    
Zn2   O6    1.942063 S    
C39   H14   1.083125 S    
C21   C22   1.403770 A    
C43   H16   1.083615 S    
C23   C24   1.410002 A    
C4    C33   1.476763 S    
Zn1   O3    1.926008 S    
C27   H8    1.082861 S    
Zn2   O4    1.932496 S    
C7    H2    1.081777 S    
Zn4   O1    1.926269 S    
Zn3   O1    1.942751 S    
C32   N5    1.426008 S    
C25   H9    1.083074 S    
N10   O20   1.301571 A    
C22   H13   1.083081 S    
C26   H10   1.081091 S    
N9    H23   1.031902 S    
C23   H12   1.082848 S    
O6    C5    1.274585 A    
Zn4   O11   1.930799 S    
C39   C40   1.400589 A    
O5    C4    1.277649 A    
N6    O14   1.301481 A    
C8    C18   1.404666 A    
C6    C20   1.472206 S    
O7    C6    1.279187 A    
O13   C2    1.286239 A    
C41   C44   1.395523 A    
Zn3   O13   1.935489 S    
C28   C30   1.399420 A    
C37   C38   1.399708 A    
C7    C15   1.404102 A    
C43   C44   1.392495 A    
O11   C4    1.278399 A    
C35   H17   1.083538 S    
C46   H25   1.110598 S    
C33   C34   1.418228 A    
C17   H6    1.080198 S    
Zn1   O10   1.924276 S    
