data_mof_unit_25116.cif
_audit_creation_date              2012-12-10T17:31:14-0500
_audit_creation_method            fapswitch 2.2
_symmetry_space_group_name_H-M    P1
_symmetry_Int_Tables_number       1
_space_group_crystal_system       triclinic
_cell_length_a                    12.133725
_cell_length_b                    12.829772
_cell_length_c                    15.500763
_cell_angle_alpha                 84.905051
_cell_angle_beta                  115.567467
_cell_angle_gamma                 93.039424
_cell_volume                      2167.86721434

loop_
_atom_site_label
_atom_site_type_symbol
_atom_type_description
_atom_site_fract_x
_atom_site_fract_y
_atom_site_fract_z
_atom_type_partial_charge
C1    C     C_R   0.477159 0.300371 0.497825 0.880922
C2    C     C_R   0.572899 0.966826 0.422225 0.642672
C3    C     C_R   0.423057 0.140113 0.563108 -0.241885
C4    C     C_R   0.578535 0.860154 0.439060 -0.248005
C5    C     C_R   0.496526 0.133474 0.439952 0.081374
C6    C     C_R   0.503153 0.866142 0.561278 0.096765
C7    C     C_R   0.517353 0.025426 0.465045 -0.097826
C8    C     C_R   0.483310 0.974455 0.536847 -0.099899
C9    C     C_R   0.020708 0.625307 0.442035 0.673391
C10   C     C_R   0.979442 0.374801 0.557639 0.684438
C11   C     C_R   0.132144 0.608409 0.436687 -0.007653
C12   C     C_R   0.523043 0.699595 0.502692 0.877530
C13   C     C_R   0.867065 0.390719 0.561863 -0.008774
C14   C     C_R   0.151910 0.443477 0.523896 0.814711
C15   C     C_R   0.848761 0.557209 0.477134 0.790779
C16   C     C_R   0.577286 0.498248 0.681191 0.922391
C17   C     C_R   0.423419 0.504557 0.318999 0.910232
C18   C     C_R   0.033153 0.454101 0.520530 -0.383173
C19   C     C_R   0.967468 0.546613 0.480316 -0.384797
C20   C     C_R   0.628562 0.511388 0.786469 -0.331157
C21   C     C_R   0.379325 0.522912 0.213713 -0.276077
C22   C     C_R   0.789009 0.497439 0.949961 0.648512
C23   C     C_R   0.665351 0.553647 0.118822 -0.111374
C24   C     C_R   0.243293 0.612009 0.062427 0.566705
C25   C     C_R   0.753580 0.491945 0.851138 -0.038219
C26   C     C_R   0.261175 0.559606 0.151153 -0.049879
C27   C     C_R   0.548412 0.545540 0.822331 0.537741
C28   C     C_R   0.466334 0.516973 0.177756 0.544380
C29   C     C_R   0.589085 0.561796 0.919922 -0.125880
C30   C     C_R   0.449831 0.569059 0.089767 -0.117337
C31   C     C_R   0.709488 0.533139 0.983933 -0.073459
C32   C     C_R   0.335810 0.614946 0.030749 -0.066465
C33   C     C_R   0.509025 0.593202 0.957766 0.123880
C34   C     C_R   0.398292 0.645490 0.901807 -0.134257
C35   C     C_R   0.541713 0.571163 0.056568 0.125682
C36   C     C_3   0.821651 0.305306 0.613488 -0.314074
C37   C     C_3   0.919766 0.252160 0.705296 -0.784348
C38   C     C_3   0.173290 0.691345 0.380023 -0.311167
C39   C     C_3   0.071983 0.729696 0.282560 -0.811928
C40   C     C_3   0.151367 0.533304 0.171799 -0.322686
C41   C     C_3   0.130403 0.414841 0.179789 -0.708852
C42   C     C_3   0.844602 0.461354 0.814065 -0.334691
C43   C     C_3   0.978550 0.446821 0.884917 -0.721770
C44   C     C_3   0.495900 0.809781 0.650346 -0.286836
C45   C     C_R   0.748535 0.536573 0.082774 -0.149198
C46   C     C_3   0.596079 0.848014 0.743159 -0.780245
C47   C     C_3   0.500692 0.189024 0.349510 -0.268940
C48   C     C_3   0.400077 0.148225 0.258176 -0.765956
C49   C     C_R   0.314040 0.658241 0.938793 -0.134903
C50   C     C_R   0.538034 0.810444 0.503472 -0.195080
C51   C     C_R   0.462449 0.189485 0.497908 -0.199868
C52   C     C_R   0.428494 0.033391 0.580065 0.643375
F1    F     F_    0.964310 0.718856 0.409728 -0.598677
F2    F     F_    0.219319 0.357569 0.569177 -0.579960
F3    F     F_    0.035477 0.280966 0.588102 -0.595193
F4    F     F_    0.561329 0.450830 0.225301 -0.666876
F5    F     F_    0.427431 0.553324 0.763287 -0.658597
F6    F     F_    0.897246 0.459373 0.015436 -0.716191
F7    F     F_    0.135689 0.659974 0.006622 -0.694965
F8    F     F_    0.380458 0.990668 0.639690 -0.658672
F9    F     F_    0.621524 0.009962 0.363119 -0.655191
F10   F     F_    0.781779 0.643489 0.432454 -0.594736
H1    H     H_    0.842292 0.520767 0.133153 0.186818
H2    H     H_    0.759591 0.340193 0.636802 0.239087
H3    H     H_    0.772270 0.244014 0.563528 0.235566
H4    H     H_    0.006578 0.665291 0.248851 0.247089
H5    H     H_    0.021858 0.795477 0.290161 0.323887
H6    H     H_    0.113121 0.759919 0.233413 0.238280
H7    H     H_    0.213491 0.759485 0.423692 0.233835
H8    H     H_    0.242509 0.659396 0.362731 0.241843
H9    H     H_    0.117281 0.380721 0.112585 0.274541
H10   H     H_    0.208925 0.376136 0.240336 0.236504
H11   H     H_    0.047758 0.398019 0.192592 0.267591
H12   H     H_    0.229010 0.696962 0.893140 0.209854
H13   H     H_    0.161910 0.565848 0.237793 0.212530
H14   H     H_    0.067387 0.568984 0.114925 0.285448
H15   H     H_    0.013297 0.515510 0.927702 0.331673
H16   H     H_    0.990091 0.373710 0.931811 0.280622
H17   H     H_    0.034841 0.440812 0.845139 0.217084
H18   H     H_    0.811765 0.386470 0.780969 0.208370
H19   H     H_    0.846137 0.523632 0.760055 0.234452
H20   H     H_    0.687330 0.831516 0.747419 0.246897
H21   H     H_    0.590584 0.933099 0.747863 0.289284
H22   H     H_    0.587249 0.805726 0.805652 0.243482
H23   H     H_    0.699727 0.554890 0.195717 0.218365
H24   H     H_    0.403792 0.815443 0.647841 0.269716
H25   H     H_    0.510156 0.724579 0.655623 0.193605
H26   H     H_    0.408361 0.063373 0.254223 0.284772
H27   H     H_    0.309033 0.162298 0.255482 0.236212
H28   H     H_    0.405569 0.190665 0.194469 0.263319
H29   H     H_    0.484478 0.274053 0.343220 0.196810
H30   H     H_    0.592289 0.184598 0.350797 0.276973
H31   H     H_    0.376951 0.680022 0.830388 0.210731
H32   H     H_    0.611538 0.815450 0.399012 0.234330
H33   H     H_    0.390672 0.185100 0.603369 0.237100
H34   H     H_    0.958638 0.184515 0.688600 0.320153
H35   H     H_    0.994083 0.308095 0.743844 0.269432
H36   H     H_    0.878205 0.220516 0.753751 0.222578
N1    N     N_R   0.799120 0.480200 0.517090 -0.199397
N2    N     N_R   0.200880 0.519800 0.482910 -0.200278
O1    O     O_R   0.580150 0.341050 0.504560 -0.660801
O2    O     O_R   0.419850 0.658950 0.495440 -0.662365
O3    O     O_R   0.388090 0.353760 0.493600 -0.552396
O4    O     O_R   0.611910 0.646240 0.506400 -0.551584
O5    O     O_R   0.650890 0.490020 0.640860 -0.672439
O6    O     O_R   0.349110 0.509980 0.359140 -0.654714
O7    O     O_R   0.458830 0.502730 0.629890 -0.496578
O8    O     O_R   0.541170 0.497270 0.370110 -0.521259
Zn1   Zn    Zn3+2 0.628240 0.491510 0.507320 0.990594
Zn2   Zn    Zn3+2 0.371760 0.508490 0.492680 1.002620

loop_
_geom_bond_atom_site_label_1
_geom_bond_atom_site_label_2
_ccdc_geom_bond_type
C21   C26   A    
C38   H8    S    
N2    Zn2   S    
C23   C45   A    
C27   C29   A    
C39   H6    S    
C14   C18   A    
C2    C7    A    
C34   H31   S    
C37   H35   S    
C28   F4    S    
C7    C8    A    
C43   H16   S    
C15   C19   A    
C5    C47   S    
C30   C35   A    
O3    Zn2   S    
C36   C37   S    
C24   C26   A    
C12   O4    A    
O4    Zn1   S    
C20   C25   A    
O1    Zn1   S    
N1    Zn1   S    
C29   C33   A    
O8    Zn1   S    
C18   C19   A    
C47   H30   S    
C52   F8    S    
C16   O7    A    
C33   C35   A    
C46   H20   S    
C9    C19   A    
C22   C25   A    
C48   H26   S    
C44   H25   S    
C1    O3    A    
C2    F9    S    
C41   H9    S    
C38   H7    S    
C48   H28   S    
C42   H19   S    
C39   H5    S    
C44   H24   S    
C37   H36   S    
C44   C46   S    
C22   C31   A    
C8    C52   A    
C13   C36   S    
C27   F5    S    
C17   O8    A    
C5    C7    A    
C3    C51   A    
C36   H3    S    
C6    C8    A    
C45   H1    S    
C17   C21   S    
C40   H14   S    
C37   H34   S    
C4    C50   A    
C11   N2    A    
C13   N1    A    
C11   C38   S    
C2    C4    A    
C24   C32   A    
C12   O2    A    
C9    C11   A    
C47   C48   S    
C16   C20   S    
C33   C34   A    
C6    C50   A    
C10   F3    S    
C1    C51   S    
C16   O5    A    
C41   H10   S    
C4    H32   S    
C40   C41   S    
C14   F2    S    
C21   C28   A    
C23   C35   A    
C48   H27   S    
C23   H23   S    
C39   H4    S    
C46   H22   S    
O2    Zn2   S    
C9    F1    S    
C42   C43   S    
C1    O1    A    
C6    C44   S    
O6    Zn2   S    
O5    Zn1   S    
C34   C49   A    
C47   H29   S    
C15   N1    A    
C10   C13   A    
C25   C42   S    
C22   F6    S    
C12   C50   S    
C3    C52   A    
C14   N2    A    
C20   C27   A    
C43   H15   S    
C40   H13   S    
C28   C30   A    
C29   C31   A    
C17   O6    A    
C30   C32   A    
C26   C40   S    
C38   C39   S    
C10   C18   A    
C24   F7    S    
O7    Zn2   S    
C15   F10   S    
C32   C49   A    
C41   H11   S    
C46   H21   S    
C31   C45   A    
C42   H18   S    
C49   H12   S    
C5    C51   A    
C3    H33   S    
C36   H2    S    
C43   H17   S    
