data_mof_unit_6207.cif
_audit_creation_date              2013-03-05T15:40:39-0500
_audit_creation_method            fapswitch 2.2
_symmetry_space_group_name_H-M    P1
_symmetry_Int_Tables_number       1
_space_group_crystal_system       triclinic
_cell_length_a                    19.228198
_cell_length_b                    10.852224
_cell_length_c                    18.96697
_cell_angle_alpha                 89.924344
_cell_angle_beta                  89.250293
_cell_angle_gamma                 89.909983
_cell_volume                      3957.46615805

loop_
_atom_site_label
_atom_site_type_symbol
_atom_site_description
_atom_site_fract_x
_atom_site_fract_y
_atom_site_fract_z
_atom_type_partial_charge
O1    O     O_R   0.043230 0.549300 0.667990 -0.434461
O2    O     O_R   0.956770 0.549300 0.332010 -0.476709
O3    O     O_R   0.543230 0.049300 0.667990 -0.432463
O4    O     O_R   0.456770 0.049300 0.332010 -0.474588
O5    O     O_R   0.178620 0.457600 0.674100 -0.452024
O6    O     O_R   0.821380 0.457600 0.325900 -0.464794
O7    O     O_R   0.678620 0.957600 0.674100 -0.453580
O8    O     O_R   0.321380 0.957600 0.325900 -0.464141
C1    C     C_R   0.240384 0.467514 0.646871 0.547955
C2    C     C_R   0.759515 0.466620 0.352933 0.556337
C3    C     C_R   0.740385 0.967510 0.646874 0.550952
C4    C     C_R   0.259515 0.966619 0.352933 0.558096
O9    O     O_R   0.284680 0.542100 0.669460 -0.527659
O10   O     O_R   0.715320 0.542100 0.330540 -0.530022
O11   O     O_R   0.784680 0.042100 0.669460 -0.525556
O12   O     O_R   0.215320 0.042100 0.330540 -0.528999
O13   O     O_R   0.262860 0.790390 0.676650 -0.492053
O14   O     O_R   0.737140 0.790390 0.323350 -0.493729
O15   O     O_R   0.762860 0.290390 0.676650 -0.489204
O16   O     O_R   0.237140 0.290390 0.323350 -0.491703
C5    C     C_R   0.226559 0.872629 0.647044 0.533362
C6    C     C_R   0.773055 0.873321 0.352622 0.532279
C7    C     C_R   0.726560 0.372633 0.647046 0.536828
C8    C     C_R   0.273055 0.373322 0.352621 0.534386
O17   O     O_R   0.167460 0.907030 0.670940 -0.543323
O18   O     O_R   0.832540 0.907030 0.329060 -0.536789
O19   O     O_R   0.667460 0.407030 0.670940 -0.542541
O20   O     O_R   0.332540 0.407030 0.329060 -0.534662
O21   O     O_R   0.053950 0.750220 0.675100 -0.514392
O22   O     O_R   0.946050 0.750220 0.324900 -0.509822
O23   O     O_R   0.553950 0.250220 0.675100 -0.513683
O24   O     O_R   0.446050 0.250220 0.324900 -0.509502
C9    C     C_R   0.063240 0.648258 0.637520 0.563962
C10   C     C_R   0.940168 0.648450 0.363407 0.565775
C11   C     C_R   0.563241 0.148257 0.637520 0.565564
C12   C     C_R   0.440169 0.148450 0.363407 0.565141
O25   O     O_R   0.043300 0.547370 0.827390 -0.438339
O26   O     O_R   0.956700 0.547370 0.172610 -0.442565
O27   O     O_R   0.543300 0.047370 0.827390 -0.429284
O28   O     O_R   0.456700 0.047370 0.172610 -0.430056
O29   O     O_R   0.178690 0.455820 0.821860 -0.444780
O30   O     O_R   0.821310 0.455820 0.178140 -0.446641
O31   O     O_R   0.678690 0.955820 0.821860 -0.466847
O32   O     O_R   0.321310 0.955820 0.178140 -0.449762
C13   C     C_R   0.237446 0.469962 0.852521 0.555720
C14   C     C_R   0.762540 0.469898 0.147510 0.557284
C15   C     C_R   0.737236 0.970641 0.852903 0.566955
C16   C     C_R   0.262769 0.970614 0.147111 0.569282
O33   O     O_R   0.284750 0.540170 0.828860 -0.507434
O34   O     O_R   0.715250 0.540170 0.171140 -0.511040
O35   O     O_R   0.784750 0.040170 0.828860 -0.505908
O36   O     O_R   0.215250 0.040170 0.171140 -0.510390
O37   O     O_R   0.262920 0.788600 0.824420 -0.458809
O38   O     O_R   0.737080 0.788600 0.175580 -0.460372
O39   O     O_R   0.762920 0.288600 0.824420 -0.517965
O40   O     O_R   0.237080 0.288600 0.175580 -0.518409
C17   C     C_R   0.228097 0.876875 0.851480 0.611232
C18   C     C_R   0.771888 0.876943 0.148530 0.610042
C19   C     C_R   0.728515 0.377464 0.851287 0.558460
C20   C     C_R   0.271495 0.377548 0.148716 0.550572
O41   O     O_R   0.167530 0.905110 0.830340 -0.494056
O42   O     O_R   0.832470 0.905110 0.169660 -0.494356
O43   O     O_R   0.667530 0.405110 0.830340 -0.477909
O44   O     O_R   0.332470 0.405110 0.169660 -0.478234
O45   O     O_R   0.054010 0.748440 0.822860 -0.502872
O46   O     O_R   0.945990 0.748440 0.177140 -0.502030
O47   O     O_R   0.554010 0.248440 0.822860 -0.502155
O48   O     O_R   0.445990 0.248440 0.177140 -0.502633
C21   C     C_R   0.029949 0.651921 0.850978 0.591455
C22   C     C_R   0.970010 0.651919 0.148985 0.591399
C23   C     C_R   0.530553 0.151575 0.851493 0.594567
C24   C     C_R   0.469462 0.151576 0.148500 0.592439
Cr1   Cr    Cr6+3 0.113970 0.508630 0.747920 1.115276
Cr2   Cr    Cr6+3 0.886030 0.508630 0.252080 1.089552
Cr3   Cr    Cr6+3 0.613970 0.008630 0.747920 1.100159
Cr4   Cr    Cr6+3 0.386030 0.008630 0.252080 1.096823
Cr5   Cr    Cr6+3 0.269200 0.666740 0.749850 1.065600
Cr6   Cr    Cr6+3 0.730800 0.666740 0.250150 1.057991
Cr7   Cr    Cr6+3 0.769200 0.166740 0.749850 1.036968
Cr8   Cr    Cr6+3 0.230800 0.166740 0.250150 1.029254
Cr9   Cr    Cr6+3 0.112300 0.820070 0.749800 1.050459
Cr10  Cr    Cr6+3 0.887700 0.820070 0.250200 1.052372
Cr11  Cr    Cr6+3 0.612300 0.320070 0.749800 1.048782
Cr12  Cr    Cr6+3 0.387700 0.320070 0.250200 1.055708
O49   O     O_3   0.165160 0.665150 0.749190 -0.309242
O50   O     O_3   0.834840 0.665150 0.250810 -0.299463
O51   O     O_3   0.665160 0.165150 0.749190 -0.299396
O52   O     O_3   0.334840 0.165150 0.250810 -0.293436
C25   C     C_2   0.245347 0.902748 0.574724 -0.100594
C26   C     C_2   0.753695 0.904031 0.424785 -0.110696
C27   C     C_2   0.745349 0.402752 0.574726 -0.102015
C28   C     C_2   0.253694 0.404034 0.424783 -0.112116
C29   C     C_2   0.240519 0.915688 0.421582 -0.086658
C30   C     C_2   0.759274 0.918149 0.578056 -0.092448
C31   C     C_2   0.740520 0.415693 0.421583 -0.086362
C32   C     C_2   0.259273 0.418157 0.578053 -0.092494
C33   C     C_2   0.274228 0.826245 0.454645 -0.121906
C34   C     C_2   0.725853 0.828674 0.545465 -0.148505
C35   C     C_2   0.774227 0.326247 0.454646 -0.121484
C36   C     C_2   0.225855 0.328677 0.545462 -0.148234
C37   C     C_2   0.265742 0.810401 0.531180 -0.145411
C38   C     C_2   0.735106 0.811475 0.469054 -0.161757
C39   C     C_2   0.765742 0.310404 0.531181 -0.145561
C40   C     C_2   0.235109 0.311477 0.469053 -0.162035
H1    H     H_    0.307350 0.762811 0.425808 0.145025
H2    H     H_    0.692373 0.766757 0.574903 0.144287
H3    H     H_    0.807347 0.262809 0.425809 0.145074
H4    H     H_    0.192377 0.266757 0.574901 0.145071
H5    H     H_    0.276191 0.718978 0.551984 0.142482
H6    H     H_    0.726245 0.719216 0.448898 0.146850
H7    H     H_    0.776189 0.218980 0.551986 0.142844
H8    H     H_    0.226252 0.219216 0.448898 0.147228
H9    H     H_    0.198176 0.963025 0.448822 0.097201
H10   H     H_    0.801326 0.965800 0.550582 0.106685
H11   H     H_    0.698178 0.463034 0.448824 0.097193
H12   H     H_    0.301323 0.465812 0.550579 0.106779
H13   H     H_    0.234433 0.995057 0.555796 0.088499
H14   H     H_    0.763079 0.997077 0.443191 0.085964
H15   H     H_    0.734436 0.495062 0.555798 0.088175
H16   H     H_    0.263075 0.497081 0.443188 0.085827
C41   C     C_R   0.964611 0.643203 0.437845 -0.012085
C42   C     C_R   0.044369 0.645148 0.561981 -0.031072
C43   C     C_R   0.464614 0.143201 0.437845 -0.012205
C44   C     C_R   0.544371 0.145145 0.561982 -0.030890
C45   C     C_R   0.937335 0.860989 0.458874 -0.086157
C46   C     C_R   0.044968 0.873925 0.552229 -0.087136
C47   C     C_R   0.437337 0.360986 0.458875 -0.085977
C48   C     C_R   0.544970 0.373921 0.552229 -0.087315
C49   C     C_R   0.954735 0.974427 0.487654 -0.115539
C50   C     C_R   0.010954 0.981557 0.532325 -0.114028
C51   C     C_R   0.454735 0.474423 0.487658 -0.115238
C52   C     C_R   0.510955 0.481554 0.532328 -0.114105
C53   C     C_R   0.022235 0.756759 0.529962 -0.005137
C54   C     C_R   0.974594 0.753175 0.474969 -0.008538
C55   C     C_R   0.522238 0.256756 0.529962 -0.005061
C56   C     C_R   0.474596 0.253172 0.474970 -0.008424
H17   H     H_    0.925550 0.056407 0.474264 0.107776
H18   H     H_    0.027136 0.069459 0.553115 0.105342
H19   H     H_    0.425549 0.556403 0.474269 0.107735
H20   H     H_    0.527135 0.569454 0.553121 0.104859
H21   H     H_    0.892963 0.855731 0.426490 0.152762
H22   H     H_    0.089733 0.883114 0.583871 0.160848
H23   H     H_    0.392964 0.355728 0.426491 0.152523
H24   H     H_    0.589736 0.383111 0.583871 0.160488
C57   C     C_R   0.034583 0.528677 0.525531 0.009792
C58   C     C_R   0.990501 0.528759 0.466393 0.029748
C59   C     C_R   0.534583 0.028672 0.525534 0.010082
C60   C     C_R   0.490504 0.028755 0.466393 0.029761
C61   C     C_R   0.064530 0.409273 0.543790 0.260265
C62   C     C_R   0.973137 0.411262 0.437449 0.283750
C63   C     C_R   0.564526 0.909265 0.543797 0.261158
C64   C     C_R   0.473139 0.911259 0.437449 0.284232
C65   C     C_R   0.066150 0.313794 0.494325 -0.149859
C66   C     C_R   0.018680 0.312688 0.442211 -0.141495
C67   C     C_R   0.566147 0.813785 0.494334 -0.149729
C68   C     C_R   0.518680 0.812681 0.442216 -0.140011
H25   H     H_    0.094603 0.229496 0.503981 0.092730
H26   H     H_    0.010704 0.228154 0.413083 0.103559
H27   H     H_    0.594597 0.729485 0.503991 0.092518
H28   H     H_    0.510703 0.728147 0.413088 0.104534
C69   C     C_2   0.257780 0.937023 0.913458 0.199918
C70   C     C_2   0.742109 0.937350 0.086550 0.199257
C71   C     C_2   0.757449 0.435633 0.915065 0.203921
C72   C     C_2   0.242516 0.436296 0.085004 0.197182
C73   C     C_2   0.256790 0.940672 0.072453 -0.081473
C74   C     C_2   0.743184 0.940778 0.927609 -0.082546
C75   C     C_2   0.756080 0.439119 0.073264 -0.045184
C76   C     C_2   0.243825 0.439265 0.926824 -0.044282
C77   C     C_2   0.235326 0.032251 0.029356 -0.153634
C78   C     C_2   0.764464 0.032424 0.970539 -0.152320
C79   C     C_2   0.735421 0.530832 0.029894 -0.091596
C80   C     C_2   0.264617 0.530883 0.969956 -0.084770
C81   C     C_2   0.220594 0.017338 0.953874 -0.003243
C82   C     C_2   0.779219 0.017564 0.046030 -0.002548
C83   C     C_2   0.719451 0.514304 0.954938 0.051398
C84   C     C_2   0.280689 0.514272 0.044790 0.052603
H29   H     H_    0.222947 0.122271 0.051487 0.180376
H30   H     H_    0.776683 0.122431 0.948261 0.179613
H31   H     H_    0.724491 0.621865 0.051436 0.175726
H32   H     H_    0.275755 0.621750 0.948235 0.178036
H33   H     H_    0.270593 0.849642 0.053235 0.160069
H34   H     H_    0.729544 0.849756 0.946978 0.160054
H35   H     H_    0.767717 0.346714 0.054809 0.158287
H36   H     H_    0.231970 0.347066 0.945527 0.158037
C85   C     C_2   0.000228 0.656121 0.920658 -0.053000
C86   C     C_2   0.999480 0.656119 0.079188 -0.053383
C87   C     C_2   0.501818 0.154314 0.921810 -0.066427
C88   C     C_2   0.498280 0.154313 0.078194 -0.066293
C89   C     C_2   0.983295 0.565648 0.034143 0.202737
C90   C     C_2   0.016126 0.565393 0.965815 0.202241
C91   C     C_2   0.484870 0.059236 0.034883 0.187583
C92   C     C_2   0.515273 0.059137 0.965204 0.185499
H37   H     H_    0.032159 0.733323 0.063352 0.064039
H38   H     H_    0.967714 0.733721 0.936382 0.065361
H39   H     H_    0.527706 0.234302 0.060470 0.057852
H40   H     H_    0.472467 0.234496 0.939501 0.061284
C93   C     C_2   0.164294 0.096913 0.925647 0.577080
O53   O     O_2   0.169270 0.140470 0.866267 -0.504365
O54   O     O_R   0.107341 0.127510 0.968801 -0.679922
H41   H     H_    0.072997 0.183553 0.944306 0.355613
C94   C     C_2   0.835460 0.096980 0.074122 0.576658
O55   O     O_2   0.830502 0.140437 0.133467 -0.508667
O56   O     O_R   0.892325 0.127562 0.030872 -0.679311
H42   H     H_    0.926621 0.183531 0.055268 0.354892
C95   C     C_2   0.663674 0.594269 0.926038 0.565581
O57   O     O_2   0.612882 0.620098 0.962638 -0.486266
O58   O     O_R   0.671027 0.645436 0.858612 -0.686708
H43   H     H_    0.630278 0.699970 0.845632 0.354375
C96   C     C_2   0.337772 0.592199 0.072398 0.562675
O59   O     O_2   0.332652 0.639085 0.130875 -0.504522
O60   O     O_R   0.395754 0.617347 0.029517 -0.663783
H44   H     H_    0.430815 0.672210 0.053605 0.363106
O61   O     O_3   0.323009 0.896799 0.933112 -0.700996
H45   H     H_    0.345665 0.964756 0.958956 0.334257
O62   O     O_3   0.676894 0.897362 0.066965 -0.701900
H46   H     H_    0.654182 0.965349 0.040984 0.333879
O63   O     O_3   0.821885 0.399090 0.939750 -0.732400
H47   H     H_    0.846678 0.349490 0.903601 0.350876
O64   O     O_3   0.177799 0.401034 0.060685 -0.732534
H48   H     H_    0.152938 0.352068 0.097088 0.350033
O65   O     O_3   0.937777 0.471370 0.052120 -0.647927
H49   H     H_    0.935262 0.412962 0.012089 0.358784
O66   O     O_3   0.061422 0.470515 0.948008 -0.648423
H50   H     H_    0.063899 0.412219 0.988193 0.358169
O67   O     O_3   0.444306 0.959758 0.055997 -0.664477
H51   H     H_    0.442428 0.898805 0.017213 0.349103
O68   O     O_3   0.555601 0.959204 0.944082 -0.660044
H52   H     H_    0.557311 0.897906 0.982813 0.360103
O69   O     O_3   0.909383 0.391699 0.409156 -0.674699
H53   H     H_    0.910465 0.313441 0.382022 0.309610
O70   O     O_3   0.082935 0.376250 0.610548 -0.646436
H54   H     H_    0.080832 0.285452 0.617106 0.301278
O71   O     O_3   0.409386 0.891697 0.409154 -0.674918
H55   H     H_    0.410469 0.813440 0.382020 0.310051
O72   O     O_3   0.582932 0.876243 0.610556 -0.647354
H56   H     H_    0.580830 0.785445 0.617116 0.299582

loop_
_geom_bond_atom_site_label_1
_geom_bond_atom_site_label_2
_geom_bond_distance
_ccdc_geom_bond_type
C45   C54   1.406249 A    
C18   O42   1.274625 A    
C21   C85   1.433750 S    
Cr11  O51   1.963187 S    
O56   H42   1.013836 S    
O4    C12   1.268835 A    
O47   Cr11  1.933901 S    
O39   C19   1.271926 A    
C87   H40   1.087442 S    
O20   Cr12  2.052271 S    
C28   C40   1.353771 D    
C94   O55   1.223498 D    
C86   H37   1.087691 S    
C35   C39   1.468569 S    
O66   H50   0.991470 S    
C74   H34   1.084813 S    
O8    Cr4   1.940861 S    
C85   H38   1.087715 S    
C71   C83   1.349063 D    
O26   C22   1.245049 A    
C57   C58   1.414740 A    
C30   H10   1.087352 S    
O1    C9    1.276388 A    
C55   C56   1.397790 A    
C5    C25   1.450909 S    
O61   H45   0.990694 S    
C27   H15   1.084811 S    
O7    C3    1.293404 A    
C43   C60   1.444606 A    
C33   C37   1.468567 S    
O39   Cr7   1.940069 S    
O69   H53   0.993666 S    
C62   O69   1.361678 S    
C78   H30   1.088524 S    
C88   C91   1.347053 D    
O24   C12   1.327443 A    
C11   C44   1.483000 S    
C66   H26   1.083671 S    
O25   C21   1.245318 A    
C78   C82   1.471901 S    
C31   C35   1.327623 D    
C30   C34   1.323592 D    
C37   H5    1.086661 S    
O21   C9    1.327588 A    
C36   C40   1.469938 S    
O23   Cr11  1.971785 S    
C84   C96   1.487683 S    
C39   H7    1.086660 S    
O30   C14   1.286174 A    
C42   C57   1.455143 A    
C77   H29   1.088563 S    
O32   Cr4   1.973301 S    
C1    O9    1.255710 A    
O44   Cr12  2.085352 S    
C57   C61   1.460228 A    
C5    O17   1.273481 A    
C59   C60   1.414750 A    
C96   O60   1.398436 S    
C58   C62   1.430628 A    
C3    O11   1.255714 A    
C92   O68   1.388633 S    
C26   C38   1.353776 D    
C16   C73   1.459303 S    
C64   C68   1.385022 A    
C88   H39   1.087410 S    
C45   H21   1.059456 S    
C76   H36   1.084719 S    
O72   H56   0.993845 S    
C95   O57   1.223192 D    
C7    O19   1.273480 A    
C41   C54   1.401225 A    
O3    Cr3   2.096094 S    
O71   H55   0.993665 S    
Cr4   O52   1.962110 S    
C62   C66   1.385020 A    
O47   C23   1.263710 A    
O2    Cr2   2.097834 S    
O48   C24   1.263867 A    
C33   H1    1.081281 S    
C80   H32   1.088711 S    
O42   Cr10  2.085352 S    
Cr5   O49   2.000806 S    
O54   H41   1.013833 S    
C91   O67   1.388353 S    
O17   Cr9   2.051984 S    
C94   O56   1.398428 S    
C79   H31   1.088692 S    
C89   C90   1.434097 S    
O34   Cr6   2.059193 S    
Cr7   O51   2.000806 S    
O6    Cr2   1.940861 S    
O35   Cr7   2.055926 S    
C70   O62   1.383136 S    
C95   O58   1.399093 S    
C73   C77   1.353379 D    
O24   Cr12  1.968987 S    
C44   C59   1.455147 A    
C75   H35   1.084608 S    
C36   H4    1.081042 S    
O30   Cr2   1.973301 S    
C14   C75   1.454676 S    
O22   C10   1.327438 A    
C67   H27   1.081832 S    
O58   H43   1.013908 S    
C61   O70   1.366407 S    
C4    O12   1.256926 A    
C85   C90   1.341701 D    
C12   C43   1.494847 S    
C19   C71   1.480551 S    
C47   C56   1.406255 A    
C46   C53   1.412146 A    
C96   O59   1.223625 D    
C2    O10   1.256927 A    
C48   C55   1.412145 A    
C31   H11   1.087257 S    
O64   H48   0.989354 S    
C40   H8    1.086676 S    
C15   C74   1.459024 S    
O16   Cr8   1.937258 S    
O15   C7    1.267285 A    
O7    Cr3   1.940806 S    
C64   O71   1.361680 S    
O26   Cr2   2.059546 S    
O63   H47   0.989301 S    
Cr10  O50   1.965895 S    
C79   C83   1.469671 S    
C46   H22   1.060650 S    
C82   C94   1.488398 S    
O13   C5    1.267285 A    
O40   C20   1.273252 A    
O43   Cr11  2.088612 S    
O12   Cr8   2.055969 S    
O48   Cr12  1.933953 S    
O22   Cr10  1.968987 S    
C59   C63   1.460245 A    
O62   H46   0.990750 S    
C42   C53   1.421351 A    
O5    C1    1.293409 A    
O65   H49   0.991417 S    
C27   C39   1.353777 D    
C45   C49   1.390411 A    
O46   Cr10  1.933953 S    
C69   C81   1.357958 D    
C29   C33   1.327626 D    
O45   Cr9   1.933901 S    
O68   H52   0.991220 S    
C81   C93   1.488385 S    
O3    C11   1.276383 A    
O40   Cr8   1.937777 S    
O8    C4    1.292792 A    
C63   O72   1.366420 S    
O13   Cr5   1.934449 S    
O67   H51   0.990982 S    
C6    C26   1.452755 S    
C17   C69   1.467805 S    
C47   H23   1.059463 S    
O29   C13   1.286892 A    
Cr2   O50   1.962110 S    
O15   Cr7   1.934449 S    
C48   H24   1.060648 S    
C1    C32   1.453061 S    
Cr1   O49   1.964842 S    
C87   C92   1.346740 D    
C71   O63   1.387339 S    
C3    C30   1.453061 S    
Cr3   O51   1.964842 S    
O14   Cr6   1.937258 S    
C25   H13   1.084812 S    
O21   Cr9   1.971785 S    
C74   C78   1.353423 D    
C10   C41   1.494841 S    
O27   Cr3   2.059486 S    
C29   H9    1.087259 S    
O9    Cr5   2.057999 S    
C24   C88   1.437624 S    
C53   C54   1.397794 A    
C8    C28   1.452742 S    
C8    O20   1.276435 A    
C7    C27   1.450905 S    
C4    C29   1.456208 S    
C38   H6    1.086676 S    
C83   C95   1.488289 S    
C51   C52   1.384499 A    
C18   C70   1.467642 S    
C26   H14   1.084978 S    
C67   C68   1.354253 A    
C72   O64   1.387335 S    
O31   Cr3   1.971088 S    
C49   C50   1.384498 A    
O38   C18   1.273598 A    
C76   C80   1.352631 D    
C91   C92   1.438109 S    
C69   O61   1.383005 S    
C48   C52   1.391942 A    
O27   C23   1.243174 A    
O28   C24   1.242888 A    
C44   C55   1.421353 A    
C25   C37   1.353774 D    
O14   C6    1.268244 A    
C19   O43   1.278172 A    
O5    Cr1   1.940806 S    
C60   C64   1.430628 A    
C23   C87   1.437245 S    
O37   C17   1.272701 A    
O6    C2    1.292793 A    
C15   O35   1.265838 A    
C17   O41   1.273475 A    
C70   C82   1.357722 D    
C68   H28   1.083668 S    
O11   Cr7   2.057999 S    
C52   H20   1.080471 S    
C35   H3    1.081284 S    
C14   O34   1.263850 A    
O25   Cr1   2.059486 S    
C63   C67   1.398740 A    
C34   H2    1.081044 S    
C75   C79   1.352845 D    
C43   C56   1.401224 A    
C20   O44   1.278869 A    
O1    Cr1   2.096094 S    
C86   C89   1.341962 D    
C93   O54   1.398433 S    
C28   H16   1.084979 S    
C73   H33   1.084809 S    
Cr8   O52   2.000750 S    
O32   C16   1.286744 A    
C34   C38   1.469949 S    
C90   O66   1.386804 S    
C77   C81   1.472216 S    
O2    C10   1.268842 A    
C9    C42   1.483010 S    
Cr12  O52   1.965895 S    
C2    C31   1.456208 S    
O45   C21   1.260638 A    
C61   C65   1.398745 A    
C32   C36   1.323591 D    
O23   C11   1.327591 A    
O19   Cr11  2.051984 S    
C20   C72   1.480434 S    
O33   Cr5   2.055926 S    
C13   O33   1.264841 A    
C72   C84   1.349893 D    
C89   O65   1.386789 S    
O10   Cr6   2.055969 S    
C65   H25   1.081831 S    
C93   O53   1.223504 D    
C13   C76   1.454410 S    
C47   C51   1.390412 A    
O4    Cr4   2.097834 S    
C51   H19   1.082814 S    
C22   C86   1.433879 S    
O29   Cr1   1.971088 S    
O60   H44   1.013779 S    
O28   Cr4   2.059546 S    
C16   O36   1.264988 A    
C49   H17   1.082813 S    
O46   C22   1.260631 A    
O18   Cr10  2.052271 S    
Cr6   O50   2.000750 S    
C6    O18   1.276437 A    
O70   H54   0.993844 S    
C46   C50   1.391946 A    
C41   C58   1.444594 A    
C32   H12   1.087352 S    
O41   Cr9   2.088612 S    
O38   Cr6   1.937777 S    
O37   Cr5   1.940069 S    
O36   Cr8   2.059193 S    
O31   C15   1.287619 A    
O16   C8    1.268242 A    
Cr9   O49   1.963187 S    
C80   C84   1.467383 S    
C65   C66   1.354250 A    
C50   H18   1.080471 S    
