data_mof_unit_66742.cif
_audit_creation_date              2012-12-11T14:19:16-0500
_audit_creation_method            fapswitch 2.2
_symmetry_space_group_name_H-M    P1
_symmetry_Int_Tables_number       1
_space_group_crystal_system       triclinic
_cell_length_a                    8.249376
_cell_length_b                    12.645796
_cell_length_c                    15.03737
_cell_angle_alpha                 94.907954
_cell_angle_beta                  99.378964
_cell_angle_gamma                 98.031832
_cell_volume                      1523.09474316

loop_
_atom_site_label
_atom_site_type_symbol
_atom_type_description
_atom_site_fract_x
_atom_site_fract_y
_atom_site_fract_z
_atom_type_partial_charge
Ba1   Ba    Ba6+2 0.153570 0.551840 0.456200 1.658479
Ba2   Ba    Ba6+2 0.656590 0.448150 0.543720 1.693688
C1    C     C_3   0.367606 0.846386 0.117312 0.099069
C2    C     C_3   0.358875 0.794651 0.206224 0.287961
C3    C     C_3   0.575763 0.783916 0.674781 0.628550
C4    C     C_3   0.507245 0.889138 0.674118 -0.291258
C5    C     C_3   0.919942 0.161745 0.769964 0.846516
C6    C     C_3   0.950959 0.073734 0.831531 -0.368063
C7    C     C_3   0.384901 0.142982 0.788835 0.462888
C8    C     C_3   0.448552 0.093688 0.875000 -0.072931
C9    C     C_R   0.078739 0.185632 0.538464 -0.247446
C10   C     C_R   0.727323 0.815517 0.467325 -0.252730
C11   C     C_R   0.694416 0.994979 0.430905 -0.103704
C12   C     C_3   0.870650 0.834250 0.247033 0.495130
C13   C     C_R   0.628763 0.886539 0.428988 -0.014193
C14   C     C_R   0.889162 0.851087 0.513542 0.111722
C15   C     C_R   0.954856 0.963342 0.520570 -0.068742
C16   C     C_R   0.856021 0.036513 0.478197 -0.058386
C17   C     C_R   0.920299 0.149295 0.487586 0.078702
C18   C     C_R   0.179028 0.114164 0.574728 -0.050176
C19   C     C_R   0.115900 0.004900 0.568304 -0.106372
C20   C     C_R   0.228127 0.466693 0.767489 -0.287197
C21   C     C_R   0.131884 0.425865 0.828211 -0.006643
C22   C     C_R   0.199143 0.434275 0.920795 -0.100842
C23   C     C_3   0.856107 0.939583 0.206174 0.211926
C24   C     C_R   0.364404 0.487125 0.954380 0.024189
C25   C     C_R   0.455229 0.532165 0.890735 -0.111704
C26   C     C_R   0.388270 0.520684 0.798678 0.029119
C27   C     C_R   0.605850 0.550803 0.085929 -0.150518
C28   C     C_R   0.671331 0.569416 0.178286 0.007970
C29   C     C_R   0.415467 0.479562 0.212558 0.077207
C30   C     C_R   0.346959 0.462761 0.120003 -0.107161
C31   C     C_R   0.439183 0.500413 0.054224 -0.008930
C32   C     C_R   0.574560 0.536934 0.241555 -0.288172
C33   C     C_3   0.720503 0.309401 0.269670 0.340920
C34   C     C_3   0.663447 0.274718 0.168341 -0.127264
C35   C     C_3   0.079997 0.684863 0.729285 0.409411
C36   C     C_3   0.126937 0.712612 0.832100 0.178892
C37   C     C_3   0.201205 0.224991 0.340963 0.288222
C38   C     C_3   0.238752 0.110724 0.342492 -0.338639
H1    H     H_    0.251812 0.728670 0.195566 0.096580
H2    H     H_    0.647214 0.346415 0.132467 0.053552
H3    H     H_    0.760013 0.235324 0.140646 0.083294
H4    H     H_    0.182191 0.651694 0.703442 -0.130501
H5    H     H_    0.966084 0.624002 0.714238 0.076115
H6    H     H_    0.250167 0.765010 0.849850 0.058252
H7    H     H_    0.139118 0.638603 0.864850 0.029319
H8    H     H_    0.065408 0.222066 0.323860 0.013429
H9    H     H_    0.249259 0.268711 0.409510 0.027077
H10   H     H_    0.235109 0.073290 0.272673 0.137006
H11   H     H_    0.147145 0.061491 0.374540 0.052326
H12   H     H_    0.364728 0.111478 0.381360 0.144274
H13   H     H_    0.473844 0.759338 0.224548 -0.050343
H14   H     H_    0.525785 0.737952 0.607330 0.039621
H15   H     H_    0.582342 0.948638 0.728871 0.167506
H16   H     H_    0.512216 0.921541 0.608225 0.099641
H17   H     H_    0.377304 0.875719 0.685731 0.102841
H18   H     H_    0.468227 0.916957 0.131845 0.137710
H19   H     H_    0.039909 0.193474 0.750232 -0.190539
H20   H     H_    0.833154 0.038673 0.851818 0.128057
H21   H     H_    0.001658 0.008868 0.795692 0.047469
H22   H     H_    0.042386 0.107966 0.893432 0.077652
H23   H     H_    0.257275 0.100665 0.760960 -0.036802
H24   H     H_    0.382183 0.119372 0.929874 0.052151
H25   H     H_    0.583757 0.123134 0.897623 0.126000
H26   H     H_    0.958838 0.851500 0.312717 -0.031630
H27   H     H_    0.616299 0.045948 0.396838 0.103914
H28   H     H_    0.195253 0.953439 0.599722 0.093673
H29   H     H_    0.128901 0.270228 0.545120 0.054488
H30   H     H_    0.674652 0.731714 0.464332 0.064511
H31   H     H_    0.689602 0.575839 0.041258 0.095117
H32   H     H_    0.118992 0.400407 0.964288 0.059856
H33   H     H_    0.223246 0.418024 0.101651 0.075137
H34   H     H_    0.576522 0.579748 0.910104 0.093355
H35   H     H_    0.627138 0.549845 0.313116 0.067455
H36   H     H_    0.746283 0.801060 0.260200 -0.144386
H37   H     H_    0.176219 0.459759 0.695959 0.061520
H38   H     H_    0.787818 0.989387 0.247099 -0.017355
H39   H     H_    0.981827 0.984348 0.207965 0.025060
H40   H     H_    0.619014 0.340552 0.298297 0.025292
H41   H     H_    0.830245 0.373530 0.279115 0.022439
O1    O     O_2   0.168170 0.764170 0.543850 -0.483400
O2    O     O_3   0.273276 0.271678 0.272791 -0.613476
O3    O     O_3   0.929885 0.762970 0.187451 -0.588325
O4    O     O_2   0.642110 0.235770 0.456130 -0.451356
O5    O     O_3   0.911620 0.370210 0.454030 -0.505184
O6    O     O_3   0.444310 0.304480 0.619110 -0.465628
O7    O     O_3   0.762272 0.220076 0.311375 -0.662562
O8    O     O_3   0.400800 0.556680 0.607590 -0.491849
O9    O     O_3   0.875770 0.359510 0.664420 -0.456504
O10   O     O_2   0.798030 0.437168 0.821282 -0.481482
O11   O     O_3   0.854572 0.241084 0.818039 -0.591581
O12   O     O_3   0.898670 0.629780 0.545890 -0.488814
O13   O     O_3   0.409490 0.443300 0.392340 -0.489466
O14   O     O_2   0.674250 0.555830 0.719690 -0.430028
O15   O     O_3   0.530260 0.731090 0.747739 -0.644141
O16   O     O_2   0.504904 0.116605 0.553816 -0.446004
O17   O     O_3   0.490671 0.131045 0.725152 -0.540806
O18   O     O_3   0.365980 0.695510 0.380810 -0.484003
O19   O     O_2   0.297125 0.884418 0.441708 -0.482199
O20   O     O_3   0.054828 0.778065 0.688929 -0.616919
O21   O     O_3   0.340122 0.873210 0.274316 -0.626408
O22   O     O_2   0.136040 0.444100 0.280280 -0.477890
O23   O     O_3   0.934510 0.640480 0.335500 -0.491715
O24   O     O_2   0.010630 0.569680 0.177766 -0.497587
P1    P     P_3+3 0.998660 0.747790 0.570900 1.031040
P2    P     P_3+3 0.306970 0.411860 0.294270 0.993955
P3    P     P_3+3 0.887088 0.632937 0.218085 0.961527
P4    P     P_3+3 0.811620 0.252200 0.429030 0.967986
P5    P     P_3+3 0.915230 0.366948 0.783289 1.000709
P6    P     P_3+3 0.408813 0.835172 0.381792 0.950698
P7    P     P_3+3 0.499107 0.591519 0.720286 0.996788
P8    P     P_3+3 0.401186 0.164768 0.618942 1.006600
N1    N     N_3   0.505975 0.201275 0.152393 -0.468353
H42   H     H_    0.461570 0.189836 0.082621 0.170360
H43   H     H_    0.529459 0.126512 0.171579 0.200136
O25   O     O_3   0.003012 0.760418 0.866289 -0.697009
H44   H     H_    0.036047 0.839290 0.869270 0.313458
N2    N     N_3   0.212551 0.884298 0.082313 -0.465538
H45   H     H_    0.190587 0.943333 0.129842 0.195304
H46   H     H_    0.113980 0.820471 0.072814 0.249984
N3    N     N_3   0.406650 0.771340 0.047352 -0.482133
H47   H     H_    0.320271 0.700740 0.038466 0.171712
H48   H     H_    0.524340 0.751755 0.069528 0.207533
O26   O     O_3   0.748429 0.805548 0.685616 -0.760326
H49   H     H_    0.790484 0.841107 0.748163 0.327526
O27   O     O_3   0.772432 0.919223 0.116202 -0.718157
H50   H     H_    0.765288 0.990562 0.094284 0.296630
O28   O     O_3   0.804373 0.119329 0.691879 -0.668111
H51   H     H_    0.849817 0.060113 0.662006 0.260877
N4    N     N_3   0.381578 0.256278 0.814425 -0.527234
H52   H     H_    0.313421 0.284403 0.759563 0.131398
H53   H     H_    0.502832 0.298342 0.824702 0.215831
N5    N     N_3   0.419985 0.976795 0.859524 -0.503160
H54   H     H_    0.470007 0.947778 0.919411 0.214980
H55   H     H_    0.291647 0.951209 0.848828 0.172696

loop_
_geom_bond_atom_site_label_1
_geom_bond_atom_site_label_2
_ccdc_geom_bond_type
Ba2   P4    S    
C7    O17   S    
C2    H13   S    
C34   H2    S    
C33   C34   S    
C12   O3    S    
C4    H15   S    
C34   N1    S    
Ba1   O18   S    
N1    H42   S    
C33   H41   S    
C5    C6    S    
C26   P7    S    
O15   P7    S    
O8    P7    S    
C9    C17   A    
C24   C25   A    
C35   C36   S    
C11   C16   A    
O10   P5    D    
Ba2   O14   S    
C22   C24   A    
C16   C17   A    
O4    P4    D    
O14   P7    D    
C18   P8    S    
C2    H1    S    
C27   C31   A    
C33   H40   S    
O20   P1    S    
Ba2   O4    S    
Ba1   Ba2   S    
Ba2   O9    S    
C36   O25   S    
C10   C14   A    
Ba1   O13   S    
C2    O21   S    
C21   C22   A    
O27   H50   S    
C25   H34   S    
C7    C8    S    
Ba1   O22   S    
C1    N3    S    
C14   P1    S    
C32   H35   S    
C7    N4    S    
C20   C26   A    
C4    H17   S    
N3    H48   S    
O21   P6    S    
C5    H19   S    
N2    H46   S    
C9    C18   A    
O24   P3    D    
O13   P2    S    
O6    P8    S    
C28   C32   A    
C23   H38   S    
C13   P6    S    
C3    H14   S    
Ba2   O13   S    
O5    P4    S    
C30   H33   S    
C14   C15   A    
O17   P8    S    
N5    H55   S    
Ba1   O1    S    
C38   H12   S    
C15   C19   A    
C12   H36   S    
Ba2   O8    S    
C27   C28   A    
O12   P1    S    
C33   O7    S    
C24   C31   S    
C29   C30   A    
C10   C13   A    
O18   P6    S    
C15   C16   A    
C12   H26   S    
C29   C32   A    
Ba2   O6    S    
Ba1   O23   S    
C36   H7    S    
C1    N2    S    
Ba1   P2    S    
O7    P4    S    
C37   H9    S    
C11   C13   A    
C19   H28   S    
O26   H49   S    
O9    P5    S    
O16   P8    D    
C1    C2    S    
O23   P3    S    
C3    O15   S    
C22   H32   S    
O28   H51   S    
C11   H27   S    
C8    H25   S    
Ba1   O5    S    
C21   P5    S    
C10   H30   S    
Ba1   O8    S    
C28   P3    S    
C7    H23   S    
C29   P2    S    
Ba2   O12   S    
C8    H24   S    
C8    N5    S    
C20   H37   S    
C4    H16   S    
N4    H53   S    
C23   H39   S    
N1    H43   S    
N2    H45   S    
C9    H29   S    
N5    H54   S    
C38   H11   S    
Ba1   P1    S    
C30   C31   A    
C35   H4    S    
C23   O27   S    
C37   O2    S    
O25   H44   S    
C6    H20   S    
C36   H6    S    
C35   O20   S    
O11   P5    S    
C3    C4    S    
C17   P4    S    
C38   H10   S    
C5    O11   S    
O3    P3    S    
O2    P2    S    
Ba2   O5    S    
O1    P1    D    
C12   C23   S    
C6    H21   S    
C5    O28   S    
C37   C38   S    
C1    H18   S    
C18   C19   A    
O19   P6    D    
Ba1   O12   S    
C3    O26   S    
C25   C26   A    
C20   C21   A    
C34   H3    S    
O22   P2    D    
N3    H47   S    
C35   H5    S    
N4    H52   S    
C6    H22   S    
C37   H8    S    
C27   H31   S    
