data_mof_unit_53900.cif
_audit_creation_date              2012-12-11T14:25:32-0500
_audit_creation_method            fapswitch 2.2
_symmetry_space_group_name_H-M    P1
_symmetry_Int_Tables_number       1
_space_group_crystal_system       triclinic
_cell_length_a                    6.929123
_cell_length_b                    14.88961
_cell_length_c                    16.097029
_cell_angle_alpha                 90.695794
_cell_angle_beta                  89.289424
_cell_angle_gamma                 90.070344
_cell_volume                      1660.5105668

loop_
_atom_site_label
_atom_site_type_symbol
_atom_type_description
_atom_site_fract_x
_atom_site_fract_y
_atom_site_fract_z
_atom_type_partial_charge
O1    O     O_R   0.494490 0.416160 0.413410 -0.529134
O2    O     O_R   0.823830 0.407240 0.585990 -0.534579
O3    O     O_R   0.994160 0.583840 0.586590 -0.560058
C1    C     C_R   0.653121 0.386081 0.614117 0.776533
O4    O     O_R   0.824200 0.405280 0.414020 -0.497812
O5    O     O_R   0.994530 0.581860 0.413390 -0.510644
C2    C     C_R   0.656287 0.381390 0.386896 0.812150
O6    O     O_R   0.494110 0.418140 0.586610 -0.543359
O7    O     O_3   0.660810 0.557940 0.500000 -0.384946
V1    V     V_3+5 0.935650 0.489250 0.500000 1.606129
O8    O     O_R   0.324250 0.592760 0.414010 -0.550735
C3    C     C_R   0.155392 0.614617 0.385627 0.766849
O9    O     O_R   0.323880 0.594720 0.585980 -0.554618
C4    C     C_R   0.154572 0.613142 0.617396 0.693600
V2    V     V_3+5 0.435660 0.510750 0.500000 1.521332
O10   O     O_3   0.160630 0.442060 0.500000 -0.336222
C5    C     C_3   0.951121 0.674707 0.738137 -0.324261
H1    H     H_    0.825321 0.681718 0.696407 0.157923
H2    H     H_    0.940442 0.607372 0.767015 0.169726
C6    C     C_3   0.939229 0.748679 0.806547 -0.420403
H3    H     H_    0.916046 0.716712 0.868028 0.151568
H4    H     H_    0.811187 0.791526 0.795289 0.205522
H5    H     H_    0.025157 0.786296 0.608435 0.161903
H6    H     H_    0.017425 0.891859 0.708646 0.158108
C7    C     C_3   0.150858 0.776863 0.649895 -0.465982
C8    C     C_3   0.314933 0.672113 0.748721 0.381295
C9    C     C_3   0.143027 0.682139 0.687532 -0.008860
H7    H     H_    0.449969 0.687892 0.712936 0.082969
C10   C     C_3   0.125741 0.807502 0.807821 -0.102703
C11   C     C_3   0.147620 0.850604 0.719113 0.377711
C12   C     C_3   0.295780 0.741428 0.821825 -0.355166
H8    H     H_    0.271317 0.705756 0.881430 0.149583
H9    H     H_    0.434082 0.778199 0.828980 0.164121
H10   H     H_    0.281606 0.782230 0.609376 0.201367
C13   C     C_2   0.980274 0.708326 0.281440 0.498487
C14   C     C_2   0.146910 0.682582 0.318519 -0.388494
H11   H     H_    0.283724 0.711724 0.299826 0.113948
C15   C     C_2   0.972807 0.779323 0.216065 -0.213842
C16   C     C_2   0.125904 0.810744 0.173210 -0.362823
H12   H     H_    0.830833 0.805495 0.201905 0.158117
H13   H     H_    0.269548 0.785749 0.185164 0.134230
C17   C     C_2   0.779856 0.202764 0.769734 0.465895
C18   C     C_2   0.622954 0.182236 0.817764 -0.414739
H14   H     H_    0.495861 0.224477 0.814612 0.125681
C19   C     C_2   0.786895 0.282689 0.715881 -0.195940
C20   C     C_2   0.633415 0.316148 0.677454 -0.339811
H15   H     H_    0.928675 0.310047 0.701455 0.186948
H16   H     H_    0.490466 0.288841 0.689025 0.151839
C21   C     C_2   0.774331 0.196372 0.219850 -0.243478
C22   C     C_2   0.610451 0.174339 0.180308 -0.336818
H17   H     H_    0.908991 0.167193 0.197356 0.186699
H18   H     H_    0.472203 0.198868 0.203254 0.177562
C23   C     C_2   0.784943 0.253153 0.296852 0.424554
C24   C     C_2   0.647529 0.315464 0.316891 -0.363571
H19   H     H_    0.522042 0.321620 0.277850 0.131933
O11   O     O_R   0.770850 0.076180 0.907410 -0.500826
O12   O     O_R   0.440600 0.088970 0.079950 -0.552497
O13   O     O_R   0.270430 0.912340 0.080550 -0.554662
C25   C     C_R   0.608172 0.110247 0.109158 0.730160
O14   O     O_R   0.441120 0.087010 0.907980 -0.495752
O15   O     O_R   0.270950 0.910370 0.907350 -0.516298
C26   C     C_R   0.611605 0.109049 0.879832 0.899774
O16   O     O_R   0.770320 0.078150 0.080620 -0.550373
O17   O     O_3   0.604200 0.936340 0.994000 -0.397560
V3    V     V_3+5 0.329300 0.004970 0.993950 1.586095
O18   O     O_R   0.941240 0.899420 0.907920 -0.542353
C27   C     C_R   0.111301 0.877980 0.878086 0.793026
O19   O     O_R   0.940720 0.901380 0.079890 -0.555857
C28   C     C_R   0.109606 0.879625 0.108004 0.733775
V4    V     V_3+5 0.829310 0.983370 0.993880 1.530042
O20   O     O_3   0.104280 0.052120 0.993920 -0.347180
S1    S     S_3+6 0.352619 0.923929 0.703937 0.010529
O21   O     O_2   0.350664 0.999068 0.766452 -0.309671
O22   O     O_2   0.538808 0.872938 0.709709 -0.379526
O23   O     O_3   0.338176 0.968078 0.608560 -0.469877
H20   H     H_    0.447921 0.010602 0.604791 0.384063
O24   O     O_3   0.805428 0.674728 0.310308 -0.533345
C29   C     C_3   0.725669 0.618286 0.248654 -0.231432
H21   H     H_    0.828551 0.564493 0.228805 0.115974
H22   H     H_    0.678219 0.657412 0.194191 0.115382
H23   H     H_    0.596169 0.584807 0.275182 0.152122
S2    S     S_3+6 0.990715 0.136812 0.764880 0.052471
O25   O     O_2   0.107109 0.155909 0.841136 -0.350468
O26   O     O_2   0.936676 0.039357 0.761168 -0.312261
O27   O     O_3   0.121757 0.162306 0.679538 -0.472163
H24   H     H_    0.258125 0.153749 0.695232 0.374885
S3    S     S_3+6 0.989573 0.233848 0.359721 0.033124
O28   O     O_2   0.133683 0.307954 0.346569 -0.328392
O29   O     O_2   0.931732 0.231641 0.450031 -0.303346
O30   O     O_3   0.094765 0.135610 0.333377 -0.493812
H25   H     H_    0.998813 0.089068 0.348615 0.344846
O31   O     O_3   0.316336 0.583379 0.780122 -0.555770
C30   C     C_3   0.506901 0.555408 0.795452 -0.282863
H26   H     H_    0.582199 0.603093 0.837860 0.130455
H27   H     H_    0.589311 0.547066 0.736151 0.122878
H28   H     H_    0.501759 0.489038 0.825959 0.171399

loop_
_geom_bond_atom_site_label_1
_geom_bond_atom_site_label_2
_ccdc_geom_bond_type
S3    O28   D    
C30   H26   S    
C13   C14   D    
C17   S2    S    
C1    O6    A    
C16   H13   S    
C1    C20   S    
C23   C24   D    
C8    C9    S    
C22   C25   S    
C14   H11   S    
O5    C3    A    
C15   C16   D    
C29   H22   S    
O12   C25   A    
C8    O31   S    
V2    O10   S    
C5    C6    S    
O14   C26   A    
S2    O26   D    
C10   C27   S    
O8    V2    S    
O19   C28   A    
C21   H17   S    
C22   H18   S    
C12   H9    S    
V4    O20   S    
O1    V2    S    
O17   V4    S    
C4    C9    S    
C3    C14   S    
O7    V1    S    
C7    H10   S    
O18   C27   A    
C8    C12   S    
C30   H27   S    
O9    C4    A    
S1    O23   S    
C6    C10   S    
C19   H15   S    
C20   H16   S    
C5    C9    S    
C13   C15   S    
S1    O22   D    
O4    C2    A    
C29   H21   S    
O6    V2    S    
O24   C29   S    
C13   O24   S    
C17   C19   S    
O2    C1    A    
O23   H20   S    
C10   C11   S    
O15   C27   A    
O13   V3    S    
C12   H8    S    
O16   V4    S    
C5    H1    S    
C16   C28   S    
C23   S3    S    
O27   H24   S    
O3    C4    A    
C6    H4    S    
O14   V3    S    
S2    O25   D    
C30   H28   S    
O11   V4    S    
S3    O29   D    
C18   H14   S    
O11   C26   A    
C19   C20   D    
C17   C18   D    
O2    V1    S    
C7    C11   S    
C24   H19   S    
O1    C2    A    
C25   O16   A    
O12   V3    S    
S1    O21   D    
O5    V1    S    
C11   S1    S    
O8    C3    A    
O13   C28   A    
C7    C9    S    
S2    O27   S    
C8    H7    S    
O17   V3    S    
O9    V2    S    
O7    V2    S    
O4    V1    S    
C10   C12   S    
O3    V1    S    
V3    O20   S    
C15   H12   S    
C29   H23   S    
O30   H25   S    
O18   V4    S    
C21   C23   S    
O31   C30   S    
C5    H2    S    
H5    C7    S    
H6    C11   S    
O15   V3    S    
C6    H3    S    
O19   V4    S    
C21   C22   D    
S3    O30   S    
V1    O10   S    
C2    C24   S    
C18   C26   S    
