data_mof_unit_37740.cif
_audit_creation_date              2013-03-05T15:56:47-0500
_audit_creation_method            fapswitch 2.2
_symmetry_space_group_name_H-M    P1
_symmetry_Int_Tables_number       1
_space_group_crystal_system       triclinic
_cell_length_a                    6.930361
_cell_length_b                    14.522963
_cell_length_c                    16.093699
_cell_angle_alpha                 89.96034
_cell_angle_beta                  89.903558
_cell_angle_gamma                 90.094543
_cell_volume                      1619.81587691

loop_
_atom_site_label
_atom_site_type_symbol
_atom_site_description
_atom_site_fract_x
_atom_site_fract_y
_atom_site_fract_z
_atom_type_partial_charge
O1    O     O_R   0.638180 0.333920 0.163320 -0.566015
O2    O     O_R   0.361820 0.666080 0.836680 -0.566019
O3    O     O_R   0.308470 0.344960 0.336080 -0.610163
O4    O     O_R   0.691530 0.655040 0.663920 -0.610156
O5    O     O_R   0.138140 0.166110 0.336680 -0.594365
O6    O     O_R   0.861860 0.833890 0.663320 -0.594359
C1    C     C_R   0.477492 0.367142 0.365087 0.908075
C2    C     C_R   0.522508 0.632858 0.634912 0.908086
O7    O     O_R   0.308460 0.344950 0.163930 -0.582953
O8    O     O_R   0.691540 0.655050 0.836070 -0.583046
O9    O     O_R   0.138140 0.166100 0.163310 -0.599496
O10   O     O_R   0.861860 0.833900 0.836690 -0.599509
C3    C     C_R   0.477471 0.365077 0.133443 1.035594
C4    C     C_R   0.522530 0.634931 0.866562 1.035697
O11   O     O_R   0.638180 0.333930 0.336700 -0.603345
O12   O     O_R   0.361820 0.666070 0.663300 -0.603343
O13   O     O_3   0.471670 0.191340 0.250000 -0.279834
O14   O     O_3   0.528330 0.808660 0.750000 -0.279815
V1    V     V_3+5 0.196830 0.260900 0.250000 1.188829
V2    V     V_3+5 0.803170 0.739100 0.750000 1.188758
O15   O     O_R   0.808420 0.155070 0.163920 -0.587449
O16   O     O_R   0.191580 0.844930 0.836080 -0.587405
C5    C     C_R   0.977514 0.132714 0.135050 0.987550
C6    C     C_R   0.022486 0.867286 0.864950 0.987539
O17   O     O_R   0.808420 0.155080 0.336070 -0.597306
O18   O     O_R   0.191580 0.844920 0.663930 -0.597303
C7    C     C_R   0.977144 0.133112 0.364682 0.930638
C8    C     C_R   0.022856 0.866888 0.635318 0.930649
V3    V     V_3+5 0.696830 0.239130 0.250000 1.197598
V4    V     V_3+5 0.303170 0.760870 0.750000 1.197583
O19   O     O_3   0.971850 0.308690 0.250010 -0.271596
O20   O     O_3   0.028150 0.691310 0.749990 -0.271643
H1    H     H_    0.761148 0.828960 0.268722 0.131999
H2    H     H_    0.238854 0.171039 0.731277 0.131975
C9    C     C_R   0.110706 0.185302 0.528417 -0.170777
C10   C     C_R   0.889294 0.814698 0.471583 -0.170786
C11   C     C_R   0.176902 0.212677 0.606264 -0.114876
C12   C     C_R   0.823099 0.787323 0.393736 -0.114863
C13   C     C_R   0.188793 0.149250 0.670702 -0.091966
C14   C     C_R   0.811208 0.850750 0.329297 -0.091936
C15   C     C_R   0.134802 0.057927 0.657775 -0.161566
C16   C     C_R   0.865198 0.942073 0.342224 -0.161577
C17   C     C_R   0.069265 0.027672 0.579090 0.115465
C18   C     C_R   0.930735 0.972328 0.420910 0.115465
C19   C     C_R   0.056776 0.092751 0.512983 0.121192
C20   C     C_R   0.943224 0.907249 0.487016 0.121194
C21   C     C_R   0.012557 0.934863 0.566163 -0.309389
C22   C     C_R   0.987442 0.065137 0.433837 -0.309384
H3    H     H_    0.100875 0.237859 0.480976 0.114494
H4    H     H_    0.899126 0.762141 0.519023 0.114499
H5    H     H_    0.217780 0.283712 0.616769 0.124959
H6    H     H_    0.782222 0.716288 0.383231 0.124971
H7    H     H_    0.143734 0.011810 0.710410 0.104484
H8    H     H_    0.856266 0.988190 0.289590 0.104490
C23   C     C_R   0.179437 0.975355 0.967013 -0.086278
C24   C     C_R   0.820562 0.024645 0.032987 -0.086312
H9    H     H_    0.320174 0.957409 0.942676 0.124708
H10   H     H_    0.679825 0.042592 0.057323 0.124693
C25   C     C_R   0.168317 0.038863 0.032284 -0.123415
C26   C     C_R   0.831682 0.961138 0.967716 -0.123393
H11   H     H_    0.301051 0.068078 0.056030 0.131187
H12   H     H_    0.698948 0.931923 0.943969 0.131200
C27   C     C_R   0.988721 0.064389 0.066214 -0.127689
C28   C     C_R   0.011278 0.935612 0.933785 -0.127680
C29   C     C_R   0.320154 0.471299 0.470306 -0.153345
C30   C     C_R   0.679846 0.528701 0.529694 -0.153354
H13   H     H_    0.179131 0.450002 0.448679 0.118432
H14   H     H_    0.820869 0.549998 0.551320 0.118432
C31   C     C_R   0.331342 0.535008 0.535407 -0.135666
C32   C     C_R   0.668658 0.464992 0.464593 -0.135658
H15   H     H_    0.198334 0.561054 0.561731 0.121648
H16   H     H_    0.801666 0.438947 0.438269 0.121649
C33   C     C_R   0.511348 0.564536 0.566081 -0.114287
C34   C     C_R   0.488652 0.435464 0.433919 -0.114280
C35   C     C_R   0.348218 0.501198 0.057074 -0.210575
C36   C     C_R   0.651806 0.498831 0.942953 -0.210869
H17   H     H_    0.233064 0.504372 0.102614 0.179802
H18   H     H_    0.766978 0.495655 0.897421 0.179680
C37   C     C_R   0.359003 0.569789 0.995609 0.403838
C38   C     C_R   0.641028 0.430251 0.004424 0.403971
C39   C     C_R   0.511418 0.568096 0.936692 -0.345248
C40   C     C_R   0.488591 0.431927 0.063326 -0.345305
N1    N     N_R   0.220245 0.643141 0.997124 0.232245
O21   O     O_R   0.040850 0.625803 0.015501 -0.404415
O22   O     O_R   0.278067 0.728376 0.994156 -0.430534
N2    N     N_R   0.779853 0.356933 0.002946 0.232237
O23   O     O_R   0.959375 0.374352 0.984838 -0.404400
O24   O     O_R   0.722089 0.271680 0.005749 -0.430564

loop_
_geom_bond_atom_site_label_1
_geom_bond_atom_site_label_2
_geom_bond_distance
_ccdc_geom_bond_type
C7    C22   1.489055 S    
C30   H14   1.082722 S    
C8    C21   1.489055 S    
C23   C25   1.400489 A    
O13   V3    1.706783 S    
O4    C2    1.301788 A    
V1    O19   1.707736 S    
C13   C15   1.393315 A    
O9    V1    2.002536 S    
C9    C11   1.392902 A    
C36   H18   1.083694 S    
O3    C1    1.301788 A    
C11   H5    1.082847 S    
N2    O24   1.301328 A    
C12   H6    1.082848 S    
O12   V4    2.002562 S    
C26   H12   1.082776 S    
C31   H15   1.082741 S    
O7    C3    1.301873 A    
C38   N2    1.436435 S    
O5    C7    1.293805 A    
O7    V1    1.999547 S    
O6    C8    1.293805 A    
O8    V2    1.999545 S    
C37   N1    1.436497 S    
C9    H3    1.081534 S    
C31   C33   1.408716 A    
O14   V4    1.706784 S    
V4    O20   2.155684 S    
C5    C27   1.489763 S    
C2    O12   1.296880 A    
C15   C17   1.415985 A    
C16   C18   1.415986 A    
C18   C20   1.425431 A    
O11   V3    2.002561 S    
C1    C34   1.489698 S    
O17   V3    2.002798 S    
C11   C13   1.389243 A    
C25   H11   1.082776 S    
H1    C14   1.082630 S    
H2    C13   1.082630 S    
C38   C40   1.418464 A    
O8    C4    1.301872 A    
C37   C39   1.418514 A    
N2    O23   1.301724 A    
C1    O11   1.296881 A    
C29   H13   1.082723 S    
C30   C33   1.406249 A    
O15   V3    2.002366 S    
C3    C40   1.489911 S    
C29   C34   1.406248 A    
C24   C26   1.400489 A    
C32   C34   1.408716 A    
C35   H17   1.083689 S    
N1    O21   1.301627 A    
C23   C28   1.406268 A    
O10   V2    2.002538 S    
O1    V3    2.001864 S    
C24   C27   1.406268 A    
O3    V1    2.002744 S    
C17   C19   1.425432 A    
C15   H7    1.081421 S    
N1    O22   1.301299 A    
O18   V4    2.002799 S    
C23   H9    1.082749 S    
O16   C6    1.301626 A    
O1    C3    1.295987 A    
C10   C12   1.392901 A    
C9    C19   1.416733 A    
C10   H4    1.081536 S    
V2    O20   1.707734 S    
C19   C22   1.419977 A    
C20   C21   1.419977 A    
O16   V4    2.002367 S    
C25   C27   1.408661 A    
C36   C38   1.405136 A    
C14   C16   1.393314 A    
C36   C39   1.404308 A    
C35   C40   1.404292 A    
O5    V1    2.000041 S    
O17   C7    1.297679 A    
O6    V2    2.000043 S    
O10   C6    1.296679 A    
O18   C8    1.297678 A    
O2    V4    2.001861 S    
C26   C28   1.408663 A    
O15   C5    1.301626 A    
V3    O19   2.155685 S    
C16   H8    1.081421 S    
C12   C14   1.389244 A    
C10   C20   1.416735 A    
C30   C32   1.400417 A    
C17   C21   1.418930 A    
C29   C31   1.400417 A    
O9    C5    1.296681 A    
C2    C33   1.489697 S    
O13   V1    2.157528 S    
C24   H10   1.082748 S    
O14   V2    2.157528 S    
O2    C4    1.295994 A    
O4    V2    2.002746 S    
C6    C28   1.489763 S    
C32   H16   1.082740 S    
C4    C39   1.489918 S    
C35   C37   1.405181 A    
C18   C22   1.418931 A    
