data_mof_unit_5954.cif
_audit_creation_date              2012-12-10T19:50:02-0500
_audit_creation_method            fapswitch 2.2
_symmetry_space_group_name_H-M    P1
_symmetry_Int_Tables_number       1
_space_group_crystal_system       triclinic
_cell_length_a                    14.180721
_cell_length_b                    14.942584
_cell_length_c                    15.503045
_cell_angle_alpha                 89.946417
_cell_angle_beta                  68.215255
_cell_angle_gamma                 89.92637
_cell_volume                      3050.43745292

loop_
_atom_site_label
_atom_site_type_symbol
_atom_type_description
_atom_site_fract_x
_atom_site_fract_y
_atom_site_fract_z
_atom_type_partial_charge
C1    C     C_R   0.500627 0.672049 0.498330 0.875238
C2    C     C_R   0.500678 0.327979 0.498432 0.876363
C3    C     C_R   0.372788 0.545263 0.106370 -0.234923
C4    C     C_R   0.611473 0.585319 0.903354 -0.236093
C5    C     C_R   0.301269 0.540886 0.064943 -0.242084
C6    C     C_R   0.682874 0.589486 0.945081 -0.243760
C7    C     C_R   0.413734 0.902838 0.572395 0.228184
C8    C     C_R   0.524077 0.096980 0.573857 0.227823
C9    C     C_R   0.417620 0.810293 0.566104 -0.242216
C10   C     C_R   0.526038 0.189533 0.567470 -0.243770
C11   C     C_R   0.500148 0.767858 0.498704 -0.093519
C12   C     C_R   0.500735 0.232213 0.498706 -0.093962
C13   C     C_R   0.580511 0.817208 0.434850 0.087016
C14   C     C_R   0.474073 0.183190 0.433556 0.088108
C15   C     C_R   0.577219 0.909745 0.442321 -0.253762
C16   C     C_R   0.470468 0.090655 0.441114 -0.253912
C17   C     C_R   0.495133 0.951949 0.510109 0.079422
C18   C     C_R   0.495037 0.048159 0.510254 0.078981
C19   C     C_R   0.863033 0.477223 0.579650 -0.284035
C20   C     C_R   0.136998 0.475173 0.420761 -0.283390
C21   C     C_R   0.764461 0.476665 0.578192 0.018345
C22   C     C_R   0.235479 0.474858 0.422407 0.015863
C23   C     C_R   0.436860 0.501978 0.675993 0.874617
C24   C     C_R   0.563112 0.501074 0.323970 0.851753
C25   C     C_R   0.827208 0.523292 0.421487 0.010712
C26   C     C_R   0.172999 0.525860 0.577575 0.013452
C27   C     C_R   0.927176 0.524385 0.419836 -0.276292
C28   C     C_R   0.073084 0.526765 0.579048 -0.277759
C29   C     C_R   0.946814 0.501271 0.499785 0.138389
C30   C     C_R   0.053346 0.501282 0.499816 0.140133
C31   C     C_R   0.398062 0.514266 0.776553 -0.060787
C32   C     C_R   0.600770 0.515014 0.223732 -0.059515
C33   C     C_R   0.261674 0.522195 0.926920 -0.205384
C34   C     C_R   0.728789 0.564671 0.079237 -0.205299
C35   C     C_R   0.294204 0.510975 0.830956 -0.204717
C36   C     C_R   0.701057 0.540537 0.172432 -0.207859
C37   C     C_R   0.468106 0.532810 0.817754 -0.266956
C38   C     C_R   0.529611 0.513169 0.181539 -0.259854
C39   C     C_R   0.437364 0.546319 0.913134 0.093226
C40   C     C_R   0.553209 0.544355 0.091412 0.094643
C41   C     C_R   0.332813 0.537302 0.968620 0.180183
C42   C     C_R   0.655480 0.566484 0.038256 0.177104
C43   C     C_R   0.509303 0.561159 0.955028 0.068853
C44   C     C_R   0.478028 0.550035 0.052017 0.070216
H1    H     H_    0.221432 0.536294 0.108518 0.141088
H2    H     H_    0.760339 0.608255 0.903608 0.142527
H3    H     H_    0.873519 0.457304 0.642640 0.135438
H4    H     H_    0.126534 0.453668 0.358259 0.133616
H5    H     H_    0.701669 0.456849 0.640064 0.126786
H6    H     H_    0.298267 0.454241 0.361125 0.128198
H7    H     H_    0.813402 0.541030 0.359648 0.122515
H8    H     H_    0.186897 0.546284 0.638711 0.117335
H9    H     H_    0.988365 0.544329 0.356605 0.132485
H10   H     H_    0.012011 0.548609 0.641494 0.131474
H11   H     H_    0.455268 0.486499 0.220258 0.143693
H12   H     H_    0.547663 0.532292 0.774703 0.153286
H13   H     H_    0.757135 0.542942 0.204414 0.144487
H14   H     H_    0.238745 0.498097 0.799734 0.149433
H15   H     H_    0.181410 0.516808 0.968704 0.132248
H16   H     H_    0.806888 0.583008 0.039648 0.132515
H17   H     H_    0.343565 0.546995 0.181339 0.146002
H18   H     H_    0.637564 0.603980 0.830991 0.146996
H19   H     H_    0.356406 0.770967 0.614437 0.158248
H20   H     H_    0.546633 0.228676 0.616750 0.157713
H21   H     H_    0.637823 0.949523 0.393843 0.151550
H22   H     H_    0.450756 0.051106 0.391578 0.152114
N1    N     N_R   0.747530 0.500020 0.500000 -0.088604
N2    N     N_R   0.252470 0.499980 0.500000 -0.087731
O1    O     O_R   0.420530 0.630930 0.499990 -0.610128
O2    O     O_R   0.579470 0.369070 0.500010 -0.609903
O3    O     O_R   0.579480 0.630940 0.499990 -0.614858
O4    O     O_R   0.420520 0.369060 0.500010 -0.613253
O5    O     O_R   0.375120 0.499990 0.632240 -0.624298
O6    O     O_R   0.624880 0.500010 0.367760 -0.626226
O7    O     O_R   0.534080 0.500000 0.632240 -0.630805
O8    O     O_R   0.465920 0.500000 0.367760 -0.627914
Zn1   Zn    Zn3+2 0.393860 0.499990 0.500000 0.936875
Zn2   Zn    Zn3+2 0.606140 0.500010 0.500000 0.934924
C45   C     C_3   0.322462 0.945655 0.645297 -0.924166
H23   H     H_    0.325060 0.019772 0.643445 0.251690
H24   H     H_    0.252496 0.924475 0.634728 0.240294
H25   H     H_    0.317484 0.923634 0.715278 0.242310
C46   C     C_3   0.553603 0.053844 0.648208 -0.922523
H26   H     H_    0.552101 0.979740 0.646413 0.251703
H27   H     H_    0.631810 0.074626 0.639333 0.240592
H28   H     H_    0.500510 0.076001 0.717603 0.242131
C47   C     C_3   0.666527 0.774899 0.354987 -0.406894
C48   C     C_3   0.764331 0.771304 0.375351 -0.306153
C49   C     C_3   0.853805 0.739070 0.290638 -0.909404
H29   H     H_    0.922011 0.731591 0.309001 0.251670
H30   H     H_    0.836492 0.673465 0.266458 0.251975
H31   H     H_    0.870793 0.788372 0.233197 0.263215
H32   H     H_    0.782463 0.838869 0.394884 0.218013
H33   H     H_    0.753868 0.725098 0.434392 0.241570
H34   H     H_    0.646606 0.706513 0.339483 0.200078
H35   H     H_    0.679708 0.814909 0.290998 0.197857
C50   C     C_3   0.456313 0.225906 0.352111 -0.409751
C51   C     C_3   0.342797 0.230403 0.369125 -0.308864
C52   C     C_3   0.325885 0.264048 0.282964 -0.901811
H36   H     H_    0.364209 0.329377 0.259961 0.254750
H37   H     H_    0.356493 0.215005 0.225447 0.264675
H38   H     H_    0.243298 0.272597 0.299056 0.249979
H39   H     H_    0.308054 0.162929 0.387186 0.218408
H40   H     H_    0.303955 0.276192 0.428134 0.241211
H41   H     H_    0.489502 0.294116 0.337487 0.193943
H42   H     H_    0.496540 0.185851 0.288540 0.196901

loop_
_geom_bond_atom_site_label_1
_geom_bond_atom_site_label_2
_ccdc_geom_bond_type
C47   C48   S    
O2    Zn2   S    
C8    C46   S    
O1    Zn1   S    
C25   N1    A    
C2    C12   S    
C21   H5    S    
C50   C51   S    
C39   C41   A    
C20   C30   A    
C1    O3    A    
C35   H14   S    
C32   C36   A    
C19   C21   A    
C19   H3    S    
C27   C29   A    
C51   H39   S    
C15   H21   S    
C4    H18   S    
C7    C9    A    
O4    Zn1   S    
C37   H12   S    
C38   H11   S    
C52   H36   S    
C34   C42   A    
C7    C17   A    
C1    C11   S    
C14   C16   A    
C32   C38   A    
C49   H30   S    
C22   H6    S    
C50   H41   S    
C40   C42   A    
C33   H15   S    
C21   N1    A    
C34   H16   S    
N1    Zn2   S    
C23   O5    A    
C2    O4    A    
C3    H17   S    
C48   H33   S    
C3    C44   A    
O8    Zn1   S    
C4    C6    A    
C36   H13   S    
C23   O7    A    
C45   H24   S    
C28   H10   S    
C24   O8    A    
C39   C43   A    
C5    H1    S    
C1    O1    A    
C31   C37   A    
C47   H34   S    
C23   C31   S    
C43   C44   A    
C24   C32   S    
C29   C30   S    
C26   H8    S    
C46   H26   S    
C47   H35   S    
C13   C47   S    
C17   C18   S    
C49   H31   S    
C9    C11   A    
C22   N2    A    
C20   H4    S    
C10   C12   A    
C50   H42   S    
C8    C10   A    
C46   H27   S    
C12   C14   A    
C13   C15   A    
O6    Zn2   S    
C31   C35   A    
C16   H22   S    
C19   C29   A    
C14   C50   S    
C7    C45   S    
N2    Zn1   S    
C15   C17   A    
C5    C41   A    
C48   H32   S    
C6    H2    S    
C52   H37   S    
C9    H19   S    
C10   H20   S    
C20   C22   A    
C3    C5    A    
C45   H25   S    
C27   H9    S    
C4    C43   A    
C25   C27   A    
C26   C28   A    
C25   H7    S    
C26   N2    A    
C46   H28   S    
C28   C30   A    
C33   C41   A    
C37   C39   A    
C38   C40   A    
C11   C13   A    
C24   O6    A    
C51   H40   S    
C33   C35   A    
C34   C36   A    
O7    Zn2   S    
C8    C18   A    
C45   H23   S    
C40   C44   A    
C52   H38   S    
C48   C49   S    
C16   C18   A    
C51   C52   S    
C6    C42   A    
O5    Zn1   S    
C49   H29   S    
C2    O2    A    
O3    Zn2   S    
