data_mof_unit_45810.cif
_audit_creation_date              2012-10-26T20:21:18-0400
_audit_creation_method            fapswitch 2.2
_symmetry_space_group_name_H-M    P1
_symmetry_Int_Tables_number       1
_space_group_crystal_system       triclinic
_cell_length_a                    9.563327
_cell_length_b                    10.833933
_cell_length_c                    15.575552
_cell_angle_alpha                 88.086993
_cell_angle_beta                  75.171354
_cell_angle_gamma                 89.941835
_cell_volume                      1559.09658116

loop_
_atom_site_label
_atom_site_type_symbol
_atom_type_description
_atom_site_fract_x
_atom_site_fract_y
_atom_site_fract_z
_atom_type_partial_charge
C1    C     C_R   0.000047 0.262212 0.499885 0.551898
C2    C     C_R   0.129359 0.064053 0.493293 -0.130191
C3    C     C_R   0.999868 0.871698 0.500363 0.024618
C4    C     C_R   0.000132 0.128302 0.499637 0.024619
C5    C     C_R   0.552294 0.416185 0.551942 0.093330
C6    C     C_R   0.447706 0.583816 0.448058 0.093324
C7    C     C_R   0.403555 0.415167 0.551050 0.208709
C8    C     C_R   0.596445 0.584832 0.448949 0.208704
C9    C     C_R   0.918697 0.507878 0.671912 0.542462
C10   C     C_R   0.081302 0.492121 0.328088 0.542465
C11   C     C_R   0.872722 0.515242 0.770839 -0.025519
C12   C     C_R   0.999952 0.737788 0.500114 0.551898
C13   C     C_R   0.127279 0.484757 0.229162 -0.025518
C14   C     C_R   0.915079 0.444547 0.910893 -0.147041
C15   C     C_R   0.084929 0.555461 0.089109 -0.147042
C16   C     C_R   0.969496 0.485276 0.823196 -0.033335
C17   C     C_R   0.030508 0.514727 0.176803 -0.033335
C18   C     C_R   0.725724 0.540801 0.814943 -0.037677
C19   C     C_R   0.274275 0.459193 0.185059 -0.037671
C20   C     C_R   0.672791 0.512273 0.907835 0.016936
C21   C     C_R   0.327215 0.487730 0.092169 0.016938
C22   C     C_R   0.766859 0.447558 0.950189 0.021632
C23   C     C_R   0.563936 0.379389 0.067855 -0.106216
C24   C     C_R   0.233150 0.552449 0.049815 0.021632
C25   C     C_R   0.527442 0.533403 0.958839 0.031984
C26   C     C_R   0.472566 0.466602 0.041166 0.031984
C27   C     C_1   0.370811 0.415068 0.237525 0.220836
C28   C     C_1   0.629174 0.584904 0.762479 0.220842
C29   C     C_1   0.875722 0.502731 0.209558 0.216847
C30   C     C_1   0.124282 0.497268 0.790439 0.216846
C31   C     C_1   0.600555 0.329973 0.610638 0.240094
C32   C     C_1   0.399445 0.670028 0.389362 0.240089
C33   C     C_R   0.436075 0.620618 0.932150 -0.106217
C34   C     C_R   0.711103 0.379764 0.028820 -0.110326
C35   C     C_R   0.288909 0.620246 0.971185 -0.110326
C36   C     C_R   0.870850 0.063664 0.506006 -0.122415
C37   C     C_R   0.129150 0.936336 0.493994 -0.122415
C38   C     C_R   0.870640 0.935947 0.506707 -0.130193
Cu1   Cu    Cu3+1 0.140660 0.500020 0.500000 1.034211
Cu2   Cu    Cu3+1 0.859340 0.499980 0.500000 1.034207
H1    H     H_    0.780119 0.319485 0.056614 0.124335
H2    H     H_    0.230701 0.112112 0.487386 0.136687
H3    H     H_    0.310327 0.324381 0.667844 0.235847
H4    H     H_    0.345186 0.236491 0.578029 0.195183
H5    H     H_    0.689665 0.675616 0.332153 0.235843
H6    H     H_    0.654827 0.763505 0.421968 0.195187
H7    H     H_    0.219894 0.680526 0.943391 0.124333
H8    H     H_    0.988280 0.407266 0.948025 0.117813
H9    H     H_    0.011730 0.592743 0.051976 0.117813
H10   H     H_    0.524084 0.307890 0.117745 0.134502
H11   H     H_    0.475931 0.692114 0.882258 0.134495
H12   H     H_    0.769796 0.111388 0.510664 0.144960
H13   H     H_    0.230204 0.888612 0.489336 0.144961
H14   H     H_    0.769299 0.887888 0.512615 0.136681
N1    N     N_R   0.352080 0.500030 0.499980 -0.222050
N2    N     N_3   0.693013 0.677337 0.398508 -0.547060
N3    N     N_R   0.647920 0.499970 0.500020 -0.222051
N4    N     N_1   0.446480 0.379680 0.280229 -0.273559
N5    N     N_1   0.553493 0.620272 0.719777 -0.273548
N6    N     N_1   0.751589 0.490968 0.234443 -0.283268
N7    N     N_1   0.248415 0.509026 0.765552 -0.283261
N8    N     N_1   0.637757 0.260790 0.658429 -0.307304
N9    N     N_1   0.362243 0.739210 0.341572 -0.307303
N10   N     N_3   0.306989 0.322658 0.601488 -0.547064
O1    O     O_R   0.118740 0.319660 0.500000 -0.479262
O2    O     O_R   0.881260 0.680340 0.500000 -0.479269
O3    O     O_R   0.881170 0.319630 0.500010 -0.511979
O4    O     O_R   0.118830 0.680370 0.499990 -0.511977
O5    O     O_R   0.055570 0.500030 0.629830 -0.470363
O6    O     O_R   0.944430 0.499970 0.370170 -0.470360
O7    O     O_R   0.818000 0.500000 0.629840 -0.485314
O8    O     O_R   0.182000 0.500000 0.370160 -0.485312

loop_
_geom_bond_atom_site_label_1
_geom_bond_atom_site_label_2
_ccdc_geom_bond_type
C36   H12   S    
C6    C32   S    
C21   C26   A    
C4    C36   A    
C11   C18   A    
Cu2   N3    S    
Cu2   O7    S    
C13   C17   A    
C8    N3    A    
C33   H11   S    
C19   C27   S    
C11   C16   A    
C2    C4    A    
C31   N8    T    
C29   N6    T    
C7    N1    A    
C6    N1    A    
Cu1   O8    S    
C23   C34   A    
C37   H13   S    
C12   O4    A    
C36   C38   A    
Cu1   O5    S    
C35   H7    S    
C5    N3    A    
Cu2   O3    S    
Cu2   O2    S    
C17   C29   S    
H4    N10   S    
C8    N2    S    
Cu1   O1    S    
C2    C37   A    
C14   C22   A    
C34   H1    S    
Cu2   O6    S    
C2    H2    S    
H5    N2    S    
C9    C11   S    
C15   C24   A    
C19   C21   A    
C9    O5    A    
H3    N10   S    
C18   C20   A    
C15   H9    S    
C32   N9    T    
C10   O8    A    
C22   C34   A    
C14   C16   A    
C7    N10   S    
C30   N7    T    
C1    C4    S    
C25   C33   A    
C20   C25   A    
C21   C24   A    
C16   C30   S    
C24   C35   A    
C10   O6    A    
C18   C28   S    
C3    C37   A    
C5    C7    A    
Cu1   O4    S    
C23   C26   A    
H6    N2    S    
Cu1   Cu2   S    
C15   C17   A    
C14   H8    S    
C13   C19   A    
C23   H10   S    
C6    C8    A    
C3    C12   S    
C9    O7    A    
C1    O3    A    
C25   C26   A    
C12   O2    A    
C1    O1    A    
C10   C13   S    
C33   C35   A    
Cu1   N1    S    
C28   N5    T    
C3    C38   A    
C20   C22   A    
C5    C31   S    
C27   N4    T    
C38   H14   S    
