data_mof_unit_11219.cif
_audit_creation_date              2012-12-10T18:13:30-0500
_audit_creation_method            fapswitch 2.2
_symmetry_space_group_name_H-M    P1
_symmetry_Int_Tables_number       1
_space_group_crystal_system       triclinic
_cell_length_a                    18.847734
_cell_length_b                    18.303386
_cell_length_c                    26.233318
_cell_angle_alpha                 89.905257
_cell_angle_beta                  90.891302
_cell_angle_gamma                 90.030821
_cell_volume                      9048.79199489

loop_
_atom_site_label
_atom_site_type_symbol
_atom_type_description
_atom_site_fract_x
_atom_site_fract_y
_atom_site_fract_z
_atom_type_partial_charge
C1    C     C_R   0.861766 0.142364 0.247405 0.930803
C2    C     C_R   0.801953 0.254745 0.281388 0.289179
C3    C     C_R   0.248211 0.306111 0.280924 0.322702
C4    C     C_3   0.045503 0.859422 0.446863 -0.312022
C5    C     C_3   0.089188 0.804320 0.478815 -0.831983
C6    C     C_3   0.966149 0.860066 0.546856 -0.340780
C7    C     C_3   0.888021 0.870825 0.561053 -0.639341
C8    C     C_3   0.486065 0.351463 0.942996 -0.313671
C9    C     C_3   0.496011 0.274341 0.965183 -0.777046
C10   C     C_3   0.438730 0.364116 0.055833 -0.312878
C11   C     C_3   0.371656 0.388778 0.083699 -0.693943
C12   C     C_3   0.767002 0.156260 0.852416 -0.234139
C13   C     C_R   0.183806 0.265734 0.728136 0.292164
C14   C     C_3   0.835490 0.128633 0.876858 -0.809572
C15   C     C_3   0.749349 0.146512 0.155883 -0.222757
C16   C     C_3   0.811894 0.112681 0.127620 -0.755638
C17   C     C_3   0.254172 0.138540 0.836326 -0.203195
C18   C     C_3   0.192427 0.146262 0.874066 -0.791135
C19   C     C_3   0.265286 0.114877 0.180765 -0.139329
C20   C     C_3   0.216668 0.114962 0.132786 -0.687941
C21   C     C_3   0.255342 0.644345 0.343696 -0.205670
C22   C     C_3   0.323087 0.633408 0.375195 -0.815007
C23   C     C_3   0.252116 0.647501 0.651619 -0.221836
C24   C     C_R   0.188563 0.264331 0.269498 0.307941
C25   C     C_3   0.313356 0.607384 0.626134 -0.745154
C26   C     C_3   0.743411 0.649962 0.345119 -0.208209
C27   C     C_3   0.674241 0.641337 0.374347 -0.809968
C28   C     C_3   0.759470 0.620314 0.673069 -0.139165
C29   C     C_3   0.707908 0.622510 0.627165 -0.734817
C30   C     C_R   0.302728 0.758446 0.223455 0.320013
C31   C     C_R   0.318665 0.767303 0.764925 0.305218
C32   C     C_R   0.685059 0.765031 0.227602 0.326330
C33   C     C_R   0.698207 0.759784 0.774739 0.306944
C34   C     C_R   0.817915 0.209509 0.766505 -0.221807
C35   C     C_R   0.806347 0.200238 0.242577 -0.253189
C36   C     C_R   0.190920 0.202009 0.758394 -0.261999
C37   C     C_R   0.864875 0.144335 0.754850 0.941940
C38   C     C_R   0.196339 0.197284 0.244300 -0.279757
C39   C     C_R   0.307163 0.700533 0.258600 -0.254041
C40   C     C_R   0.313161 0.704094 0.735040 -0.239574
C41   C     C_R   0.688211 0.704354 0.260911 -0.261867
C42   C     C_R   0.698590 0.696913 0.744116 -0.269290
C43   C     C_R   0.766324 0.208148 0.806385 -0.038199
C44   C     C_R   0.751415 0.196751 0.203655 -0.041994
C45   C     C_R   0.252093 0.193200 0.791238 -0.013178
C46   C     C_R   0.258316 0.184845 0.213619 -0.023704
C47   C     C_R   0.255829 0.699387 0.299237 -0.032639
C48   C     C_R   0.139426 0.140874 0.248765 0.894360
C49   C     C_R   0.255932 0.699098 0.698319 -0.039171
C50   C     C_R   0.744629 0.700145 0.297723 -0.015907
C51   C     C_R   0.754840 0.688952 0.707419 -0.017242
C52   C     C_R   0.195175 0.744836 0.292474 0.315769
C53   C     C_R   0.196903 0.747771 0.703708 0.322121
C54   C     C_R   0.805813 0.743415 0.289655 0.327422
C55   C     C_R   0.810355 0.742511 0.705861 0.379833
C56   C     C_R   0.704574 0.253049 0.800351 0.340076
C57   C     C_R   0.690954 0.243072 0.208900 0.319597
C58   C     C_R   0.312280 0.237144 0.781888 0.329376
C59   C     C_R   0.137788 0.142406 0.752619 0.880111
C60   C     C_R   0.313195 0.238482 0.212753 0.381191
C61   C     C_R   0.200391 0.808946 0.260785 -0.348508
C62   C     C_R   0.197511 0.801919 0.744402 -0.335780
C63   C     C_R   0.805434 0.799333 0.250775 -0.349011
C64   C     C_R   0.802314 0.808002 0.736743 -0.375605
C65   C     C_R   0.705940 0.314130 0.765103 -0.329723
C66   C     C_R   0.688717 0.295301 0.250309 -0.329256
C67   C     C_R   0.306233 0.298778 0.747977 -0.348280
C68   C     C_R   0.308691 0.299227 0.248542 -0.376329
C69   C     C_R   0.064036 0.002562 0.027389 -0.157832
C70   C     C_R   0.363582 0.643096 0.745585 0.892981
C71   C     C_R   0.064385 0.002493 0.974186 -0.154983
C72   C     C_R   0.935562 0.998416 0.025838 -0.152517
C73   C     C_R   0.935917 0.998327 0.972635 -0.160494
C74   C     C_R   0.564070 0.500438 0.527366 -0.158216
C75   C     C_R   0.564422 0.500447 0.474168 -0.150723
C76   C     C_R   0.435547 0.500403 0.525816 -0.154308
C77   C     C_R   0.435892 0.500449 0.472616 -0.149200
C78   C     C_R   0.000354 0.000304 0.946226 0.003025
C79   C     C_R   0.999605 0.000413 0.053790 -0.000869
C80   C     C_R   0.500357 0.500364 0.446209 -0.001409
C81   C     C_R   0.361104 0.641395 0.251836 0.907791
C82   C     C_R   0.499612 0.500335 0.553777 -0.001134
C83   C     C_R   0.141005 0.861235 0.252704 0.914407
C84   C     C_R   0.139990 0.858596 0.749386 0.924762
C85   C     C_R   0.861098 0.857826 0.249392 0.939446
C86   C     C_R   0.859398 0.861538 0.746487 0.903464
C87   C     C_R   0.642688 0.362547 0.754061 0.916334
C88   C     C_R   0.637905 0.357498 0.250559 0.933735
C89   C     C_R   0.361414 0.357652 0.748583 0.918082
C90   C     C_R   0.361910 0.358315 0.250164 0.889641
C91   C     C_R   0.999667 0.000115 0.110162 0.791170
C92   C     C_R   0.640771 0.640243 0.749595 0.899213
C93   C     C_R   0.000326 0.000078 0.889844 0.781005
C94   C     C_R   0.499668 0.500085 0.610156 0.786041
C95   C     C_R   0.500324 0.500094 0.389839 0.796122
C96   C     C_R   0.007130 0.999222 0.389316 0.862804
C97   C     C_R   0.996386 0.999811 0.609636 0.842014
C98   C     C_R   0.498402 0.498489 0.889879 0.856130
C99   C     C_R   0.497761 0.498743 0.110255 0.878355
C100  C     C_R   0.999807 0.060825 0.471266 -0.136269
C101  C     C_R   0.994868 0.062700 0.523646 -0.090483
C102  C     C_R   0.499801 0.554323 0.974023 -0.073939
C103  C     C_R   0.637030 0.643037 0.253338 0.890126
C104  C     C_R   0.504748 0.553624 0.025708 -0.088347
C105  C     C_R   0.013353 0.996698 0.445282 -0.078292
C106  C     C_R   0.993619 0.997795 0.552450 -0.095827
C107  C     C_R   0.494370 0.491891 0.945950 -0.098362
C108  C     C_R   0.492354 0.492787 0.054234 -0.062901
C109  C     C_R   0.021298 0.930004 0.473463 0.086781
C110  C     C_R   0.998534 0.929817 0.525265 0.130209
C111  C     C_R   0.484088 0.423469 0.973076 0.040907
C112  C     C_R   0.475042 0.426314 0.027926 0.123180
C113  C     C_3   0.947637 0.129982 0.518552 0.451583
C114  C     C_R   0.816344 0.270356 0.732487 0.312849
C115  C     C_3   0.952299 0.124691 0.458852 0.493076
C116  C     C_3   0.492743 0.633169 0.028738 0.451833
C117  C     C_3   0.508804 0.634889 0.971082 0.458262
C118  C     C_R   0.263244 0.819483 0.233811 0.342731
C119  C     C_R   0.257664 0.806074 0.777454 0.275779
C120  C     C_R   0.747168 0.803457 0.216275 0.315801
C121  C     C_R   0.738422 0.819774 0.762371 0.318912
C122  C     C_R   0.771089 0.328653 0.740589 0.316412
C123  C     C_R   0.738142 0.290322 0.290263 0.291073
C124  C     C_R   0.244078 0.307105 0.716845 0.315111
H1    H     H_    0.114381 0.004283 0.047786 0.173687
H2    H     H_    0.057072 0.755026 0.487537 0.257564
H3    H     H_    0.449347 0.120042 0.162488 0.401851
H4    H     H_    0.134821 0.784047 0.456373 0.270393
H5    H     H_    0.998376 0.831288 0.429982 0.274089
H6    H     H_    0.081204 0.874523 0.415253 0.232480
H7    H     H_    0.871593 0.928896 0.559985 0.261239
H8    H     H_    0.852889 0.839851 0.534424 0.253746
H9    H     H_    0.878202 0.851033 0.600106 0.281247
H10   H     H_    0.965371 0.814928 0.519002 0.218662
H11   H     H_    0.998587 0.838927 0.579075 0.285769
H12   H     H_    0.531970 0.273832 0.999216 0.262409
H13   H     H_    0.114810 0.004131 0.954993 0.176341
H14   H     H_    0.444097 0.247315 0.971927 0.244485
H15   H     H_    0.520405 0.239120 0.935462 0.317978
H16   H     H_    0.439652 0.350296 0.916022 0.253787
H17   H     H_    0.536068 0.356809 0.922371 0.294265
H18   H     H_    0.355380 0.445519 0.071990 0.253156
H19   H     H_    0.326161 0.350774 0.074721 0.251912
H20   H     H_    0.380056 0.387928 0.126000 0.272472
H21   H     H_    0.419628 0.321041 0.030694 0.225681
H22   H     H_    0.478291 0.337451 0.081513 0.281654
H23   H     H_    0.784498 0.122950 0.593561 0.413002
H24   H     H_    0.885138 0.996688 0.045046 0.178400
H25   H     H_    0.757560 0.087280 0.417323 0.384166
H26   H     H_    0.953650 0.317277 0.530172 0.395868
H27   H     H_    0.043695 0.181928 0.355489 0.406218
H28   H     H_    0.297797 0.613019 0.011055 0.391852
H29   H     H_    0.501796 0.789458 0.917113 0.383189
H30   H     H_    0.490474 0.770938 0.096305 0.401774
H31   H     H_    0.700862 0.599614 0.978871 0.399386
H32   H     H_    0.385427 0.923768 0.164274 0.393427
H33   H     H_    0.285628 0.780326 0.901333 0.395015
H34   H     H_    0.689475 0.856745 0.087071 0.396492
H35   H     H_    0.885575 0.996474 0.952255 0.177149
H36   H     H_    0.605337 0.929909 0.815830 0.375301
H37   H     H_    0.886339 0.411418 0.664171 0.410336
H38   H     H_    0.726854 0.254141 0.419523 0.399429
H39   H     H_    0.173317 0.373848 0.593713 0.397346
H40   H     H_    0.162167 0.392868 0.389864 0.392183
H41   H     H_    0.748072 0.274767 0.605252 0.379969
H42   H     H_    0.913499 0.411923 0.309100 0.395245
H43   H     H_    0.061792 0.413545 0.734589 0.398078
H44   H     H_    0.078459 0.422463 0.281089 0.390173
H45   H     H_    0.268975 0.771669 0.088313 0.406278
H46   H     H_    0.614434 0.500377 0.547754 0.175144
H47   H     H_    0.440199 0.920460 0.783787 0.404903
H48   H     H_    0.562502 0.918445 0.225002 0.403579
H49   H     H_    0.665679 0.842531 0.891824 0.389693
H50   H     H_    0.838142 0.069290 0.869516 0.311706
H51   H     H_    0.882845 0.158500 0.863474 0.244179
H52   H     H_    0.832928 0.132056 0.919136 0.225806
H53   H     H_    0.744984 0.188108 0.884267 0.263401
H54   H     H_    0.731977 0.108793 0.843409 0.262909
H55   H     H_    0.861604 0.144149 0.132986 0.248520
H56   H     H_    0.817571 0.054088 0.138337 0.316362
H57   H     H_    0.614876 0.500401 0.454971 0.182322
H58   H     H_    0.798954 0.109261 0.086116 0.214144
H59   H     H_    0.711589 0.101430 0.163811 0.280309
H60   H     H_    0.728708 0.182415 0.125051 0.237827
H61   H     H_    0.207451 0.184518 0.905897 0.235751
H62   H     H_    0.181783 0.091532 0.891192 0.260991
H63   H     H_    0.142266 0.167278 0.855796 0.253875
H64   H     H_    0.258277 0.081511 0.821530 0.270819
H65   H     H_    0.301527 0.145969 0.861364 0.224849
H66   H     H_    0.204726 0.057158 0.121719 0.262252
H67   H     H_    0.165697 0.144658 0.139145 0.243648
H68   H     H_    0.385104 0.500258 0.545009 0.177699
H69   H     H_    0.242649 0.141706 0.099579 0.260890
H70   H     H_    0.318157 0.099204 0.168299 0.242747
H71   H     H_    0.258085 0.066389 0.204861 0.258006
H72   H     H_    0.336466 0.574241 0.374367 0.296949
H73   H     H_    0.368524 0.666154 0.360516 0.249586
H74   H     H_    0.314955 0.646046 0.415845 0.228528
H75   H     H_    0.216750 0.662918 0.372308 0.243411
H76   H     H_    0.235991 0.590894 0.328476 0.277422
H77   H     H_    0.364280 0.637056 0.630411 0.247299
H78   H     H_    0.316137 0.549910 0.639756 0.322980
H79   H     H_    0.385514 0.500391 0.452240 0.179974
H80   H     H_    0.300917 0.600632 0.584725 0.209265
H81   H     H_    0.210434 0.605917 0.658937 0.282067
H82   H     H_    0.236643 0.684299 0.619770 0.236476
H83   H     H_    0.630171 0.674414 0.357837 0.253179
H84   H     H_    0.659779 0.582573 0.374697 0.289415
H85   H     H_    0.681723 0.655938 0.415144 0.232722
H86   H     H_    0.764144 0.595161 0.334419 0.267673
H87   H     H_    0.779520 0.673074 0.374538 0.233380
H88   H     H_    0.699348 0.566135 0.612639 0.259420
H89   H     H_    0.655838 0.646445 0.636926 0.242366
H90   H     H_    0.110082 0.828512 0.514571 0.273627
H91   H     H_    0.730366 0.655671 0.595926 0.265235
H92   H     H_    0.811187 0.605594 0.658006 0.246991
H93   H     H_    0.754909 0.570457 0.696107 0.268283
H94   H     H_    0.074566 0.597128 0.313196 0.405961
H95   H     H_    0.098555 0.691334 0.586877 0.381062
H96   H     H_    0.912291 0.639472 0.380532 0.389152
H97   H     H_    0.942979 0.617139 0.660821 0.403099
H98   H     H_    0.598074 0.123597 0.860593 0.382479
H99   H     H_    0.592481 0.174599 0.096333 0.382935
H100  H     H_    0.428816 0.118950 0.854595 0.373628
O1    O     O_3   0.000000 0.000010 0.249960 -0.558122
O2    O     O_R   0.414520 0.646190 0.219700 -0.540194
O3    O     O_3   0.176841 0.345365 0.374921 -0.452410
O4    O     O_2   0.898318 0.240965 0.653224 -0.107097
O5    O     O_2   0.780956 0.179630 0.669460 -0.362494
O6    O     O_3   0.782728 0.308568 0.627781 -0.455100
O7    O     O_2   0.889858 0.277050 0.359599 -0.091635
O8    O     O_2   0.940202 0.282988 0.273510 -0.226858
O9    O     O_3   0.865346 0.391079 0.304434 -0.501443
O10   O     O_2   0.070283 0.278870 0.665336 -0.117470
O11   O     O_2   0.047564 0.281245 0.756825 -0.343702
O12   O     O_3   0.103200 0.396079 0.715055 -0.479390
O13   O     O_R   0.585480 0.646190 0.780300 -0.536355
O14   O     O_2   0.061109 0.278798 0.224941 -0.274566
O15   O     O_2   0.068699 0.297172 0.317732 -0.198811
O16   O     O_3   0.114624 0.399506 0.259163 -0.492610
O17   O     O_2   0.397105 0.760672 0.155483 -0.171614
O18   O     O_2   0.303302 0.666424 0.147821 -0.269312
O19   O     O_3   0.273202 0.799425 0.120622 -0.492753
O20   O     O_2   0.430750 0.790409 0.823774 -0.150055
O21   O     O_2   0.452807 0.784122 0.732637 -0.300488
O22   O     O_3   0.394873 0.901613 0.768882 -0.476648
O23   O     O_2   0.584228 0.798755 0.161425 -0.165670
O24   O     O_R   0.585480 0.646190 0.219700 -0.549963
O25   O     O_2   0.545888 0.780015 0.249114 -0.301986
O26   O     O_3   0.611953 0.899573 0.226105 -0.502516
O27   O     O_2   0.595951 0.754360 0.839672 -0.182165
O28   O     O_2   0.703577 0.681284 0.857706 -0.216367
O29   O     O_3   0.707550 0.819588 0.875881 -0.473878
O30   O     O_2   0.077891 0.760025 0.349618 -0.240997
O31   O     O_2   0.068021 0.710604 0.262160 -0.238285
O32   O     O_3   0.108668 0.625173 0.335179 -0.566265
O33   O     O_2   0.058269 0.722793 0.696942 -0.158611
O34   O     O_2   0.108726 0.806548 0.633105 -0.335721
O35   O     O_R   0.085460 0.853840 0.280340 -0.575663
O36   O     O_3   0.116019 0.668677 0.618975 -0.576419
O37   O     O_2   0.941518 0.717649 0.279547 -0.165462
O38   O     O_2   0.906342 0.772001 0.360798 -0.298436
O39   O     O_3   0.890328 0.632871 0.346260 -0.559675
O40   O     O_2   0.856514 0.702249 0.612502 -0.370461
O41   O     O_2   0.943647 0.773324 0.655783 -0.194022
O42   O     O_3   0.923666 0.644583 0.690006 -0.493523
O43   O     O_2   0.615228 0.301337 0.869151 -0.298375
O44   O     O_2   0.565873 0.223114 0.801842 -0.183153
O45   O     O_3   0.626842 0.162705 0.877995 -0.594588
O46   O     O_R   0.085460 0.853840 0.719660 -0.549851
O47   O     O_2   0.551885 0.222417 0.203859 -0.157309
O48   O     O_2   0.603866 0.295709 0.134829 -0.313853
O49   O     O_3   0.608452 0.155872 0.130024 -0.578138
O50   O     O_2   0.446026 0.215533 0.756461 -0.196122
O51   O     O_2   0.424628 0.252888 0.845643 -0.307152
O52   O     O_3   0.405300 0.117534 0.820135 -0.531520
O53   O     O_2   0.353883 0.198893 0.117556 -0.374734
O54   O     O_2   0.441255 0.273451 0.156103 -0.193932
O55   O     O_3   0.428936 0.145153 0.192305 -0.499363
O56   O     O_R   0.914540 0.853840 0.280340 -0.551278
O57   O     O_R   0.914540 0.853840 0.719660 -0.590707
O58   O     O_R   0.585460 0.353840 0.780340 -0.544995
O59   O     O_R   0.585460 0.353840 0.219660 -0.553983
O60   O     O_R   0.414540 0.353840 0.780340 -0.570113
O61   O     O_3   0.000000 0.000010 0.750040 -0.567087
O62   O     O_R   0.414540 0.353840 0.219660 -0.597532
O63   O     O_R   0.853820 0.914550 0.219610 -0.572510
O64   O     O_R   0.853820 0.914550 0.780390 -0.556713
O65   O     O_R   0.146180 0.914550 0.219610 -0.568488
O66   O     O_R   0.146180 0.914550 0.780390 -0.568881
O67   O     O_R   0.353820 0.414550 0.719610 -0.576577
O68   O     O_R   0.353820 0.414550 0.280390 -0.549143
O69   O     O_R   0.646180 0.414550 0.719610 -0.572666
O70   O     O_R   0.646180 0.414550 0.280390 -0.575028
O71   O     O_R   0.146170 0.085440 0.219600 -0.659259
O72   O     O_3   0.500000 0.500010 0.749960 -0.565494
O73   O     O_R   0.146170 0.085440 0.780400 -0.656112
O74   O     O_R   0.853830 0.085440 0.219600 -0.655004
O75   O     O_R   0.853830 0.085440 0.780400 -0.628015
O76   O     O_R   0.646170 0.585440 0.719600 -0.663489
O77   O     O_R   0.646170 0.585440 0.280400 -0.655289
O78   O     O_R   0.353830 0.585440 0.719600 -0.654839
O79   O     O_R   0.353830 0.585440 0.280400 -0.650851
O80   O     O_R   0.939270 0.999980 0.134160 -0.652207
O81   O     O_R   0.939270 0.999980 0.865840 -0.669979
O82   O     O_R   0.060730 0.999980 0.134160 -0.645077
O83   O     O_3   0.500000 0.500010 0.250040 -0.569069
O84   O     O_R   0.060730 0.999980 0.865840 -0.633253
O85   O     O_R   0.439270 0.499980 0.634160 -0.653174
O86   O     O_R   0.439270 0.499980 0.365840 -0.649992
O87   O     O_R   0.560730 0.499980 0.634160 -0.646107
O88   O     O_R   0.560730 0.499980 0.365840 -0.646174
O89   O     O_R   0.000000 0.060760 0.365760 -0.606080
O90   O     O_R   0.000000 0.060760 0.634240 -0.566184
O91   O     O_R   0.500000 0.560760 0.865760 -0.536084
O92   O     O_R   0.500000 0.560760 0.134240 -0.540538
O93   O     O_R   0.000000 0.939310 0.365770 -0.645669
O94   O     O_R   0.914520 0.146190 0.280300 -0.517043
O95   O     O_R   1.000000 0.939310 0.634230 -0.633989
O96   O     O_R   0.500000 0.439310 0.865770 -0.682801
O97   O     O_R   0.500000 0.439310 0.134230 -0.654140
O98   O     O_2   0.825918 0.049491 0.514849 -0.291923
O99   O     O_2   0.819404 0.188262 0.514064 -0.214106
O100  O     O_3   0.837151 0.116323 0.597575 -0.460281
O101  O     O_2   0.867236 0.010579 0.422142 -0.329523
O102  O     O_2   0.879347 0.113284 0.365266 -0.237157
O103  O     O_3   0.790623 0.123898 0.432832 -0.436785
O104  O     O_2   0.004992 0.186975 0.605842 -0.152626
O105  O     O_R   0.914520 0.146190 0.719700 -0.547383
O106  O     O_2   0.058844 0.231595 0.530585 -0.216009
O107  O     O_3   0.932904 0.279210 0.553037 -0.420718
O108  O     O_2   0.976957 0.270678 0.445278 -0.206770
O109  O     O_2   0.080258 0.189101 0.441659 -0.281315
O110  O     O_3   0.995347 0.194933 0.365524 -0.377915
O111  O     O_2   0.384050 0.596295 0.092242 -0.279516
O112  O     O_2   0.379331 0.718554 0.054983 -0.221146
O113  O     O_3   0.347062 0.606231 0.998874 -0.533450
O114  O     O_2   0.400751 0.641915 0.898421 -0.242916
O115  O     O_2   0.400305 0.738603 0.961710 -0.244220
O116  O     O_R   0.085480 0.146190 0.280300 -0.630614
O117  O     O_3   0.496872 0.743405 0.897241 -0.390912
O118  O     O_2   0.606546 0.635135 0.095657 -0.221836
O119  O     O_2   0.591362 0.743520 0.041979 -0.235073
O120  O     O_3   0.502660 0.722887 0.112189 -0.383742
O121  O     O_2   0.613233 0.608130 0.904076 -0.259596
O122  O     O_2   0.620446 0.725717 0.947792 -0.187281
O123  O     O_3   0.655796 0.607949 0.997047 -0.506656
O124  O     O_2   0.255108 0.932489 0.166737 -0.274554
O125  O     O_2   0.287415 0.959742 0.255775 -0.324491
O126  O     O_3   0.381732 0.900538 0.198285 -0.477305
O127  O     O_R   0.085480 0.146190 0.719700 -0.568399
O128  O     O_2   0.273649 0.929942 0.832338 -0.213631
O129  O     O_2   0.183203 0.843866 0.861137 -0.314363
O130  O     O_3   0.314105 0.812749 0.879415 -0.437042
O131  O     O_2   0.735082 0.929500 0.163363 -0.267147
O132  O     O_2   0.827101 0.844247 0.135968 -0.279471
O133  O     O_3   0.698546 0.815620 0.111088 -0.421744
O134  O     O_2   0.736005 0.940099 0.823643 -0.272089
O135  O     O_2   0.718083 0.959480 0.732228 -0.254357
O136  O     O_3   0.615009 0.902569 0.783635 -0.490265
O137  O     O_2   0.757265 0.437552 0.670152 -0.272569
O138  O     O_R   0.414520 0.646190 0.780300 -0.555416
O139  O     O_2   0.789289 0.471473 0.758023 -0.290402
O140  O     O_3   0.885195 0.411988 0.701907 -0.487144
O141  O     O_2   0.739655 0.404112 0.357162 -0.188577
O142  O     O_2   0.640911 0.318237 0.362602 -0.331041
O143  O     O_3   0.763621 0.278377 0.398695 -0.426043
O144  O     O_2   0.229691 0.438952 0.671147 -0.265754
O145  O     O_2   0.315060 0.353796 0.633538 -0.273940
O146  O     O_3   0.182347 0.331222 0.616367 -0.436030
O147  O     O_2   0.311202 0.362826 0.366397 -0.259764
O148  O     O_2   0.231995 0.443611 0.317506 -0.280243
S1    S     S_3+6 0.856371 0.120209 0.535605 0.094212
S2    S     S_3+6 0.255755 0.850364 0.838352 0.105959
S3    S     S_3+6 0.753073 0.850169 0.156014 0.113692
S4    S     S_3+6 0.703316 0.908566 0.775856 0.091775
S5    S     S_3+6 0.799125 0.415565 0.717073 0.081635
S6    S     S_3+6 0.719142 0.324935 0.353029 0.118716
S7    S     S_3+6 0.244062 0.359932 0.658801 0.114597
S8    S     S_3+6 0.243307 0.366349 0.335588 0.102226
S9    S     S_3+6 0.822190 0.249934 0.668482 0.109010
S10   S     S_3+6 0.877507 0.300132 0.305603 0.157098
S11   S     S_3+6 0.098329 0.304364 0.715925 0.121949
S12   S     S_3+6 0.872198 0.092666 0.419531 0.128585
S13   S     S_3+6 0.105302 0.309086 0.268180 0.111357
S14   S     S_3+6 0.320441 0.744437 0.160439 0.127894
S15   S     S_3+6 0.402117 0.810184 0.772420 0.127763
S16   S     S_3+6 0.603367 0.809782 0.215931 0.120677
S17   S     S_3+6 0.674931 0.752745 0.838494 0.138622
S18   S     S_3+6 0.110699 0.710281 0.311172 0.068158
S19   S     S_3+6 0.119359 0.736536 0.662382 0.042755
S20   S     S_3+6 0.887278 0.717036 0.320259 0.068310
S21   S     S_3+6 0.885293 0.719970 0.664771 0.040997
S22   S     S_3+6 0.627128 0.234428 0.837762 0.038387
S23   S     S_3+6 0.989067 0.207838 0.551997 0.179265
S24   S     S_3+6 0.613061 0.229451 0.168432 0.050239
S25   S     S_3+6 0.398694 0.205925 0.801941 0.071706
S26   S     S_3+6 0.385693 0.218599 0.168444 0.042340
S27   S     S_3+6 0.002520 0.196992 0.428731 0.149697
S28   S     S_3+6 0.399192 0.640543 0.045620 0.091588
S29   S     S_3+6 0.447399 0.688490 0.932160 0.151370
S30   S     S_3+6 0.552908 0.683474 0.069318 0.160897
S31   S     S_3+6 0.601136 0.646606 0.953403 0.130510
S32   S     S_3+6 0.295417 0.905860 0.213118 0.076361
Zn1   Zn    Zn3+2 0.000000 0.913260 0.293350 1.110683
Zn2   Zn    Zn3+2 0.413230 0.500000 0.293420 1.023905
Zn3   Zn    Zn3+2 0.586770 0.500000 0.706580 1.021854
Zn4   Zn    Zn3+2 0.586770 0.500000 0.293420 1.024089
Zn5   Zn    Zn3+2 1.000000 0.086780 0.293330 1.105776
Zn6   Zn    Zn3+2 0.000000 0.086780 0.706670 1.140885
Zn7   Zn    Zn3+2 0.500000 0.586780 0.793330 1.165888
Zn8   Zn    Zn3+2 0.500000 0.586780 0.206670 1.159262
Zn9   Zn    Zn3+2 1.000000 0.913260 0.706650 1.099344
Zn10  Zn    Zn3+2 0.500000 0.413260 0.793350 1.100226
Zn11  Zn    Zn3+2 0.500000 0.413260 0.206650 1.092381
Zn12  Zn    Zn3+2 0.913230 0.000000 0.206580 1.032017
Zn13  Zn    Zn3+2 0.913230 0.000000 0.793420 1.024404
Zn14  Zn    Zn3+2 0.086770 0.000000 0.206580 1.009759
Zn15  Zn    Zn3+2 0.086770 0.000000 0.793420 1.020557
Zn16  Zn    Zn3+2 0.413230 0.500000 0.706580 1.007864

loop_
_geom_bond_atom_site_label_1
_geom_bond_atom_site_label_2
_ccdc_geom_bond_type
C28   H92   S    
C82   C94   S    
O124  S32   D    
C101  C113  S    
O135  S4    D    
O97   Zn11  S    
C25   H80   S    
C19   C46   S    
C71   H13   S    
C2    C123  A    
C87   O69   A    
C113  S1    S    
O26   S16   S    
C99   O92   A    
O119  S30   D    
H25   O103  S    
C15   C44   S    
C7    H9    S    
C72   C79   A    
C52   C61   A    
C26   C50   S    
O12   S11   S    
C16   H58   S    
C23   C49   S    
C54   C63   A    
C27   H85   S    
C3    S8    S    
O125  S32   D    
O129  S2    D    
O38   S20   D    
O90   Zn6   S    
C104  C116  S    
O41   S21   D    
C19   C20   S    
H49   O29   S    
C5    H2    S    
C68   C90   S    
O55   S26   S    
C16   H55   S    
C117  S31   S    
H42   O9    S    
C118  S32   S    
C124  S7    S    
O78   Zn16  S    
C21   C22   S    
C63   C85   S    
C116  S30   S    
C100  C115  S    
O69   Zn3   S    
O118  S30   D    
O70   Zn4   S    
C65   C87   S    
O61   Zn13  S    
C1    O74   A    
O86   Zn2   S    
C81   O2    A    
C8    C111  S    
C13   C124  A    
C4    C5    S    
C4    H6    S    
H47   O22   S    
C121  S4    S    
O72   Zn3   S    
O40   S21   D    
O92   Zn8   S    
C95   O86   A    
H31   O123  S    
C14   H51   S    
O116  Zn5   S    
C29   H89   S    
O111  S28   D    
H99   O49   S    
C44   C57   A    
C15   H60   S    
O137  S5    D    
C65   C122  A    
O99   S1    D    
C39   C81   S    
C7    H8    S    
C6    C7    S    
O144  S7    D    
O13   Zn7   S    
C76   C82   A    
O134  S4    D    
C29   H88   S    
C39   C47   A    
O1    Zn14  S    
O128  S2    D    
C46   C60   A    
C61   C118  A    
C72   C73   A    
O19   S14   S    
O94   Zn5   S    
O85   Zn16  S    
C47   C52   A    
O106  S23   D    
O67   Zn16  S    
C8    H16   S    
O127  Zn6   S    
O77   Zn4   S    
O65   Zn14  S    
C7    H7    S    
O142  S6    D    
C59   O127  A    
O27   S17   D    
C49   C53   A    
C5    H4    S    
C119  S2    S    
C42   C92   S    
O108  S27   D    
C58   C67   A    
C84   O66   A    
O138  Zn7   S    
H94   O32   S    
C30   S14   S    
C11   H19   S    
C113  C115  S    
C37   O75   A    
O37   S20   D    
C12   H54   S    
C4    C109  S    
C120  S3    S    
O16   S13   S    
O61   Zn15  S    
C22   H73   S    
C111  C112  A    
C57   C66   A    
C20   H67   S    
C83   O65   A    
O11   S11   D    
C99   C108  S    
O18   S14   D    
C40   C70   S    
C123  S6    S    
C33   C42   A    
C2    S10   S    
C17   C45   S    
C25   H77   S    
C66   C88   S    
O141  S6    D    
C29   H91   S    
C17   H64   S    
C40   C49   A    
C18   H63   S    
C97   O95   A    
C98   O96   A    
O115  S29   D    
O104  S23   D    
C90   O62   A    
C32   C41   A    
C8    H17   S    
O42   S21   S    
C38   C48   S    
O23   S16   D    
C23   H81   S    
C3    C24   A    
H33   O130  S    
C21   H75   S    
C81   O79   A    
O83   Zn8   S    
O76   Zn3   S    
C94   O87   A    
O133  S3    S    
C33   S17   S    
O66   Zn15  S    
O29   S17   S    
O91   Zn7   S    
C30   C118  A    
O5    S9    D    
C6    H11   S    
C76   H68   S    
O100  S1    S    
C17   C18   S    
C102  C107  A    
C26   H86   S    
C80   C95   S    
C10   C112  S    
H37   O140  S    
C102  C117  S    
C10   H22   S    
O36   S19   S    
O75   Zn13  S    
O57   Zn9   S    
C97   O90   A    
O103  S12   S    
C69   C79   A    
H96   O39   S    
C20   H69   S    
O114  S29   D    
O102  S12   D    
C101  C106  A    
C62   C84   S    
C89   O60   A    
O120  S30   S    
C107  C111  A    
C24   S13   S    
C34   C43   A    
H28   O113  S    
O87   Zn3   S    
C73   H35   S    
C18   H61   S    
H29   O117  S    
C87   O58   A    
O110  S27   S    
O83   Zn11  S    
C100  C101  A    
C30   C39   A    
O49   S24   S    
C115  S27   S    
C38   C46   A    
C10   C11   S    
O131  S3    D    
C19   H70   S    
C114  S9    S    
C66   C123  A    
O22   S15   S    
H3    O55   S    
C48   O116  A    
C21   C47   S    
C2    C35   A    
C96   C105  S    
C28   H93   S    
C94   O85   A    
C34   C37   S    
C56   S22   S    
C3    C68   A    
C36   C59   S    
C54   S20   S    
O123  S31   S    
H44   O16   S    
O80   Zn12  S    
C26   C27   S    
C50   C54   A    
H34   O133  S    
C28   C29   S    
H45   O19   S    
O53   S26   D    
O72   Zn16  S    
C20   H66   S    
C28   C51   S    
O17   S14   D    
C64   C121  A    
C32   S16   S    
C31   C40   A    
C27   H84   S    
C37   O105  A    
C14   H52   S    
H98   O45   S    
C89   O67   A    
C90   O68   A    
O3    S8    S    
O112  S28   D    
C15   H59   S    
C83   O35   A    
C98   O91   A    
C85   O63   A    
O81   Zn13  S    
C69   H1    S    
O51   S25   D    
C35   C44   A    
C70   O78   A    
C58   S25   S    
H43   O12   S    
C86   O64   A    
O9    S10   S    
C74   C82   A    
C77   H79   S    
C64   C86   S    
O130  S2    S    
O62   Zn11  S    
H100  O52   S    
C45   C58   A    
O35   Zn1   S    
O25   S16   D    
H39   O146  S    
C61   C83   S    
C51   C55   A    
C98   C107  S    
C108  C112  A    
O122  S31   D    
C52   S18   S    
C99   O97   A    
C53   S19   S    
O79   Zn2   S    
C1    O94   A    
O54   S26   D    
O60   Zn10  S    
O71   Zn14  S    
C31   C119  A    
O20   S15   D    
O146  S7    S    
C93   O84   A    
O83   Zn4   S    
H41   O6    S    
O44   S22   D    
O95   Zn9   S    
C41   C50   A    
C104  C108  A    
O30   S18   D    
C77   C80   A    
O121  S31   D    
O1    Zn1   S    
O52   S25   S    
C22   H74   S    
C96   O93   A    
C4    H5    S    
C103  O24   A    
O31   S18   D    
C84   O46   A    
C91   O82   A    
O45   S22   S    
O39   S20   S    
C14   H50   S    
C109  C110  A    
C9    H15   S    
O68   Zn2   S    
C105  C109  A    
O28   S17   D    
C5    H90   S    
H48   O26   S    
O58   Zn10  S    
C88   O70   A    
O84   Zn15  S    
C60   C68   A    
O14   S13   D    
O96   Zn10  S    
O93   Zn1   S    
C56   C65   A    
C57   S24   S    
O61   Zn6   S    
C19   H71   S    
O1    Zn5   S    
O82   Zn14  S    
O140  S5    S    
C67   C124  A    
H36   O136  S    
C122  S5    S    
C100  C105  A    
C92   O76   A    
O72   Zn10  S    
O43   S22   D    
O117  S29   S    
C12   C43   S    
H27   O110  S    
O2    Zn8   S    
C78   C93   S    
O59   Zn11  S    
C15   C16   S    
O1    Zn12  S    
C67   C89   S    
O8    S10   D    
C116  C117  S    
H30   O120  S    
C9    H14   S    
C69   C71   A    
H97   O42   S    
C59   O73   A    
O113  S28   S    
O101  S12   D    
C8    C9    S    
O98   S1    D    
O105  Zn6   S    
C24   C38   A    
C73   C78   A    
O72   Zn7   S    
C26   H87   S    
O32   S18   S    
H40   O3    S    
C75   C80   A    
O63   Zn12  S    
C55   S21   S    
C42   C51   A    
O6    S9    S    
C12   H53   S    
O64   Zn13  S    
O143  S6    S    
C33   C121  A    
C6    C110  S    
C22   H72   S    
O48   S24   D    
C32   C120  A    
O126  S32   S    
C92   O13   A    
C74   C75   A    
O46   Zn9   S    
C13   S11   S    
C76   C77   A    
O83   Zn2   S    
C13   C36   A    
H32   O126  S    
C25   H78   S    
O56   Zn1   S    
O7    S10   D    
O61   Zn9   S    
C17   H65   S    
C72   H24   S    
O89   Zn5   S    
C18   H62   S    
C41   C103  S    
O109  S27   D    
C53   C62   A    
O145  S7    D    
O24   Zn8   S    
C55   C64   A    
C62   C119  A    
C85   O56   A    
C36   C45   A    
O132  S3    D    
C102  C104  A    
H38   O143  S    
C48   O71   A    
H26   O107  S    
C12   C14   S    
C91   O80   A    
O73   Zn15  S    
C23   H82   S    
O21   S15   D    
O88   Zn4   S    
O139  S5    D    
C21   H76   S    
O4    S9    D    
C75   H57   S    
C88   O59   A    
C1    C35   S    
C117  S29   S    
O47   S24   D    
C11   H20   S    
C93   O81   A    
C31   S15   S    
O147  S8    D    
O148  S8    D    
C60   S26   S    
C116  S28   S    
C79   C91   S    
O10   S11   D    
O50   S25   D    
O74   Zn12  S    
C113  S23   S    
H95   O36   S    
C34   C114  A    
O34   S19   D    
H23   O100  S    
C6    H10   S    
O107  S23   S    
C63   C120  A    
C86   O57   A    
C27   H83   S    
C23   C25   S    
C11   H18   S    
C95   O88   A    
C74   H46   S    
C10   H21   S    
C114  C122  A    
C9    H12   S    
C16   H56   S    
C43   C56   A    
C103  O77   A    
C106  C110  A    
C70   O138  A    
O33   S19   D    
C96   O89   A    
O15   S13   D    
C71   C78   A    
C115  S12   S    
O136  S4    S    
C97   C106  S    
