data_mof_unit_55957.cif
_audit_creation_date              2012-12-11T21:15:14-0500
_audit_creation_method            fapswitch 2.2
_symmetry_space_group_name_H-M    P1
_symmetry_Int_Tables_number       1
_space_group_crystal_system       triclinic
_cell_length_a                    8.183231
_cell_length_b                    18.829051
_cell_length_c                    27.018513
_cell_angle_alpha                 100.028284
_cell_angle_beta                  92.35156
_cell_angle_gamma                 87.980935
_cell_volume                      4094.35383991

loop_
_atom_site_label
_atom_site_type_symbol
_atom_type_description
_atom_site_fract_x
_atom_site_fract_y
_atom_site_fract_z
_atom_type_partial_charge
Ba1   Ba    Ba6+2 0.160810 0.465630 0.521640 1.649919
Ba2   Ba    Ba6+2 0.649380 0.534380 0.478400 1.649642
C1    C     C_3   0.406697 0.295353 0.702087 -0.323149
C2    C     C_R   0.075701 0.093373 0.450543 0.023627
C3    C     C_R   0.222377 0.068579 0.427371 -0.080659
C4    C     C_3   0.933097 0.280576 0.623310 0.349674
C5    C     C_R   0.283804 0.998701 0.428799 -0.081539
C6    C     C_R   0.197968 0.951506 0.452448 0.028957
C7    C     C_R   0.050016 0.975321 0.475566 0.017874
C8    C     C_R   0.257067 0.880713 0.452535 -0.106964
C9    C     C_R   0.168407 0.831662 0.474203 -0.039745
C10   C     C_R   0.020460 0.855514 0.498224 -0.004299
C11   C     C_R   0.962549 0.927778 0.499007 -0.006620
C12   C     C_3   0.443987 0.308729 0.649934 0.282840
C13   C     C_R   0.221693 0.759015 0.471846 -0.004009
C14   C     C_R   0.125410 0.710834 0.491062 -0.295526
C15   C     C_R   0.983473 0.733473 0.516978 0.056115
C16   C     C_3   0.916312 0.207301 0.638644 -0.361494
C17   C     C_R   0.930735 0.807509 0.521575 -0.041797
C18   C     C_R   0.842538 0.071248 0.498398 -0.006005
C19   C     C_R   0.784477 0.143478 0.499126 0.005662
C20   C     C_R   0.875183 0.191700 0.476294 -0.015728
C21   C     C_R   0.015428 0.164107 0.449886 -0.018179
C22   C     C_R   0.790350 0.835175 0.547958 -0.039319
C23   C     C_3   0.341547 0.295185 0.370984 0.275116
C24   C     C_R   0.729296 0.905658 0.546817 0.032208
C25   C     C_R   0.815495 0.952255 0.522365 0.008080
C26   C     C_R   0.754824 0.023639 0.521702 0.016766
C27   C     C_R   0.581232 0.930039 0.569262 -0.081158
C28   C     C_3   0.825146 0.634662 0.634586 0.298892
C29   C     C_R   0.519470 0.999822 0.567648 -0.086083
C30   C     C_R   0.606104 0.047243 0.544411 0.032119
C31   C     C_R   0.635768 0.167154 0.522735 -0.034183
C32   C     C_R   0.546660 0.117946 0.544133 -0.107013
C33   C     C_R   0.581935 0.239702 0.524803 0.000099
C34   C     C_3   0.267035 0.256689 0.321150 -0.356681
C35   C     C_R   0.676903 0.287714 0.504919 -0.259165
C36   C     C_R   0.822517 0.265711 0.480922 0.084696
C37   C     C_R   0.294234 0.432156 0.169467 0.589102
C38   C     C_R   0.177005 0.551499 0.173739 0.580172
C39   C     C_2   0.033584 0.513025 0.267786 -0.067983
C40   C     C_3   0.786238 0.666872 0.688668 -0.367655
C41   C     C_3   0.002289 0.511930 0.322706 -0.064151
C42   C     C_1   0.288311 0.478682 0.333166 -0.001400
C43   C     C_2   0.318866 0.475385 0.285122 -0.100705
C44   C     C_2   0.184588 0.494211 0.249415 0.209737
C45   C     C_3   0.868914 0.718140 0.374748 0.344908
C46   C     C_R   0.298656 0.491144 0.095821 -0.078835
C47   C     C_R   0.337615 0.431203 0.119277 -0.032500
C48   C     C_R   0.420068 0.371469 0.092261 -0.061767
C49   C     C_R   0.216089 0.551324 0.123251 -0.029775
C50   C     C_2   0.161176 0.516370 0.353226 -0.247600
C51   C     C_2   0.656566 0.478533 0.639583 -0.286352
C52   C     C_3   0.921853 0.371570 0.363119 0.342145
C53   C     C_R   0.471567 0.430067 0.967263 0.020044
C54   C     C_R   0.347361 0.552052 0.971386 0.020797
C55   C     C_R   0.432467 0.491145 0.944267 0.050077
C56   C     C_3   0.881511 0.791114 0.358627 -0.365464
C57   C     C_R   0.554532 0.370702 0.938558 -0.117176
C58   C     C_R   0.600948 0.370899 0.889479 -0.041342
C59   C     C_R   0.564528 0.431720 0.866108 -0.053146
C60   C     C_R   0.478907 0.491523 0.893664 -0.076656
C61   C     C_R   0.440019 0.552192 0.870754 -0.030973
C62   C     C_R   0.485629 0.552962 0.821078 0.591826
C63   C     C_R   0.609623 0.434832 0.816139 0.570059
C64   C     C_3   0.841723 0.349901 0.310938 -0.319530
C65   C     C_2   0.765890 0.481841 0.727344 -0.067997
C66   C     C_3   0.807978 0.485374 0.673805 -0.055985
C67   C     C_3   0.355249 0.689260 0.349389 0.291895
C68   C     C_1   0.520982 0.511631 0.656834 0.039375
C69   C     C_2   0.481472 0.512278 0.704131 -0.109099
C70   C     C_2   0.609882 0.495550 0.742303 0.199286
C71   C     C_R   0.426892 0.429948 0.017961 0.022814
C72   C     C_R   0.342448 0.490947 0.044990 0.048925
C73   C     C_R   0.301736 0.551867 0.021888 0.020543
C74   C     C_R   0.464387 0.370817 0.043071 -0.098742
C75   C     C_R   0.175414 0.610574 0.099890 -0.060578
C76   C     C_3   0.331045 0.685264 0.591906 0.311503
C77   C     C_R   0.311341 0.611595 0.946863 -0.100217
C78   C     C_3   0.379378 0.703147 0.296506 -0.342817
C79   C     C_R   0.356402 0.611482 0.897909 -0.062688
C80   C     C_R   0.216488 0.610902 0.050510 -0.099664
C81   C     C_3   0.326926 0.766661 0.608854 -0.393479
C82   C     C_2   0.419088 0.240986 0.400022 0.472329
C83   C     C_1   0.685361 0.306293 0.864561 0.359118
C84   C     C_R   0.989650 0.046793 0.475061 0.009648
H1    H     H_    0.400360 0.364358 0.647203 0.082424
H2    H     H_    0.205710 0.667249 0.581332 0.010363
H3    H     H_    0.410235 0.671856 0.559017 0.066837
H4    H     H_    0.272289 0.294556 0.706171 0.145925
H5    H     H_    0.241249 0.781851 0.640029 0.133409
H6    H     H_    0.285848 0.794247 0.577306 0.056235
H7    H     H_    0.451238 0.784933 0.622108 0.114442
H8    H     H_    0.578211 0.303866 0.645160 -0.007303
H9    H     H_    0.456314 0.339255 0.730751 0.123782
H10   H     H_    0.243971 0.324499 0.393397 0.011995
H11   H     H_    0.361348 0.222851 0.298843 0.152312
H12   H     H_    0.700882 0.714187 0.689230 0.142054
H13   H     H_    0.166466 0.221851 0.328100 0.086321
H14   H     H_    0.217070 0.297199 0.298730 0.107497
H15   H     H_    0.462693 0.242939 0.708378 0.122899
H16   H     H_    0.910853 0.164667 0.604663 0.070695
H17   H     H_    0.754961 0.718586 0.395615 0.115252
H18   H     H_    0.975821 0.710154 0.399825 -0.035465
H19   H     H_    0.775903 0.800435 0.333184 0.137660
H20   H     H_    0.880799 0.834524 0.392189 0.078943
H21   H     H_    0.996963 0.793110 0.338770 0.121926
H22   H     H_    0.222845 0.695435 0.357114 -0.017800
H23   H     H_    0.727398 0.627025 0.707235 0.077932
H24   H     H_    0.398001 0.633025 0.350873 0.080448
H25   H     H_    0.312273 0.662830 0.269015 0.130798
H26   H     H_    0.511529 0.698339 0.288105 0.143530
H27   H     H_    0.044906 0.278592 0.601179 0.106856
H28   H     H_    0.332174 0.758131 0.292879 0.120596
H29   H     H_    0.290368 0.103279 0.408248 0.080155
H30   H     H_    0.397893 0.981287 0.410854 0.081797
H31   H     H_    0.165600 0.654916 0.487714 0.068303
H32   H     H_    0.371350 0.864232 0.434687 0.110109
H33   H     H_    0.080762 0.197377 0.429142 0.074220
H34   H     H_    0.900499 0.684427 0.710251 0.122657
H35   H     H_    0.724039 0.802017 0.568596 0.097515
H36   H     H_    0.512198 0.894929 0.587771 0.064275
H37   H     H_    0.404401 0.016956 0.585069 0.074175
H38   H     H_    0.431334 0.134110 0.561406 0.111172
H39   H     H_    0.824089 0.291267 0.599665 -0.055934
H40   H     H_    0.634950 0.343286 0.507257 0.071687
H41   H     H_    0.442256 0.463116 0.272226 0.111033
H42   H     H_    0.452407 0.324585 0.109311 0.123656
H43   H     H_    0.863306 0.472865 0.754266 0.107024
H44   H     H_    0.585646 0.322039 0.953094 0.064499
H45   H     H_    0.047551 0.387997 0.358922 -0.095152
H46   H     H_    0.529239 0.322491 0.026288 0.072070
H47   H     H_    0.932086 0.524010 0.242805 0.108056
H48   H     H_    0.111136 0.657573 0.119872 0.123308
H49   H     H_    0.248349 0.660039 0.964273 0.070368
H50   H     H_    0.023335 0.195564 0.662860 0.136226
H51   H     H_    0.325065 0.658812 0.881296 0.124303
H52   H     H_    0.356856 0.525120 0.715502 0.130112
H53   H     H_    0.178878 0.658995 0.036193 0.069824
H54   H     H_    0.176372 0.556758 0.387386 0.052793
H55   H     H_    0.659461 0.448324 0.601501 0.072431
H56   H     H_    0.853588 0.418168 0.383656 0.082283
H57   H     H_    0.802575 0.206689 0.659609 0.127201
H58   H     H_    0.711426 0.613912 0.614599 0.023765
H59   H     H_    0.918416 0.590455 0.634135 0.035694
H60   H     H_    0.361732 0.230312 0.433345 -0.034105
H61   H     H_    0.923467 0.311826 0.286651 0.100909
H62   H     H_    0.815003 0.397842 0.292985 0.054255
H63   H     H_    0.725084 0.322897 0.313572 0.175353
N1    N     N_R   0.217328 0.492441 0.196571 -0.425827
N2    N     N_R   0.567762 0.494419 0.794088 -0.423517
N3    N     N_1   0.752777 0.254564 0.844789 -0.266717
O1    O     O_2   0.106080 0.324280 0.466820 -0.489297
O2    O     O_2   0.671038 0.558654 0.330353 -0.492597
O3    O     O_3   0.867442 0.663620 0.332079 -0.591714
O4    O     O_3   0.859130 0.413620 0.470620 -0.490760
O5    O     O_3   0.459240 0.537930 0.559910 -0.487362
O6    O     O_2   0.583120 0.462390 0.379940 -0.452904
O7    O     O_3   0.463179 0.340730 0.361213 -0.620060
O8    O     O_2   0.564226 0.756304 0.475975 -0.496032
O9    O     O_3   0.446176 0.738742 0.383667 -0.609974
O10   O     O_2   0.323846 0.378925 0.188925 -0.601624
O11   O     O_2   0.685501 0.384338 0.792015 -0.595051
O12   O     O_3   0.391832 0.652966 0.631925 -0.627706
O13   O     O_2   0.108927 0.604729 0.197542 -0.600800
O14   O     O_2   0.454186 0.606421 0.802039 -0.599134
O15   O     O_3   0.376230 0.370290 0.556910 -0.481268
O16   O     O_2   0.240142 0.244721 0.523240 -0.500682
O17   O     O_3   0.928290 0.311388 0.387076 -0.628604
O18   O     O_3   0.362694 0.257709 0.614210 -0.613061
O19   O     O_2   0.227190 0.537650 0.620070 -0.469259
O20   O     O_3   0.971110 0.406970 0.583250 -0.490746
O21   O     O_2   0.140447 0.440344 0.669306 -0.500975
O22   O     O_2   0.545726 0.207882 0.386168 -0.584029
O23   O     O_3   0.944184 0.333831 0.666604 -0.588197
O24   O     O_2   0.704230 0.675760 0.533200 -0.474522
O25   O     O_3   0.951180 0.586390 0.529420 -0.485566
O26   O     O_3   0.434080 0.629720 0.443130 -0.473180
O27   O     O_3   0.888626 0.688833 0.612653 -0.641624
O28   O     O_3   0.351080 0.462080 0.440130 -0.463079
O29   O     O_3   0.839200 0.593040 0.416790 -0.487924
P1    P     P_3+3 0.929380 0.335110 0.452880 1.001818
P2    P     P_3+3 0.398530 0.559060 0.613740 0.995213
P3    P     P_3+3 0.967461 0.417937 0.648648 0.971527
P4    P     P_3+3 0.880940 0.664900 0.547160 0.977871
P5    P     P_3+3 0.845104 0.580006 0.350902 0.959953
P6    P     P_3+3 0.390609 0.277196 0.554194 0.928231
P7    P     P_3+3 0.406601 0.432317 0.377235 0.952345
P8    P     P_3+3 0.416462 0.722263 0.444358 0.927238

loop_
_geom_bond_atom_site_label_1
_geom_bond_atom_site_label_2
_ccdc_geom_bond_type
O7    P7    S    
C57   H44   S    
C76   O12   S    
C53   C57   A    
C24   C27   A    
C71   C72   A    
C12   O18   S    
C40   H34   S    
C39   H47   S    
Ba1   P2    S    
O25   P4    S    
O24   P4    D    
C43   C44   S    
C79   H51   S    
C52   H45   S    
O2    P5    D    
C37   N1    Am   
C24   C25   A    
C35   C36   A    
C54   C77   A    
C61   C79   A    
C1    H4    S    
O19   P2    D    
C16   H57   S    
C33   C35   A    
C40   H23   S    
C22   C24   A    
C12   H1    S    
C65   C70   D    
C40   H12   S    
C21   H33   S    
Ba1   O28   S    
C41   C50   S    
C19   C31   A    
C4    O23   S    
Ba1   O15   S    
C13   C14   A    
C81   H7    S    
C28   H58   S    
C54   C55   A    
C78   H25   S    
Ba1   Ba2   S    
C16   H16   S    
C51   C66   S    
C7    C11   A    
C62   O14   D    
O28   P7    S    
Ba2   O24   S    
C9    C13   A    
C76   C81   S    
C46   C49   A    
O21   P3    D    
C15   P4    S    
C14   C15   A    
C18   C84   A    
O18   P6    S    
C23   O7    S    
C23   C82   S    
C32   H38   S    
C39   C44   D    
C16   H50   S    
C68   C69   D    
Ba2   O25   S    
C81   H6    S    
C64   H62   S    
Ba2   O6    S    
C1    H15   S    
C13   P8    S    
C57   C58   A    
O16   P6    D    
C19   C20   A    
C3    H29   S    
C39   C41   S    
C52   O17   S    
C63   O11   D    
C65   H43   S    
Ba2   O28   S    
C82   O22   D    
C51   C68   D    
C67   H22   S    
C69   H52   S    
C76   H3    S    
C4    C16   S    
C45   H17   S    
C72   C73   A    
C62   N2    Am   
C65   C66   S    
C46   C72   A    
C55   C60   A    
O29   P5    S    
C64   H63   S    
O9    P8    S    
C3    C5    A    
C2    C21   A    
O4    P1    S    
C6    C7    A    
C18   C26   A    
C41   P5    S    
Ba1   O19   S    
C58   C59   A    
C56   H20   S    
Ba2   O29   S    
C30   C32   A    
C5    H30   S    
C63   N2    Am   
Ba1   O4    S    
C49   C75   A    
C4    H27   S    
C80   H53   S    
C8    H32   S    
C48   C74   A    
C7    C84   A    
C67   H24   S    
O20   P3    S    
C29   C30   A    
C52   H56   S    
C26   C30   A    
C28   O27   S    
C70   N2    S    
O15   P6    S    
C27   H36   S    
C78   H26   S    
C60   C61   A    
C31   C32   A    
C64   H61   S    
C38   N1    Am   
C34   H14   S    
O1    P1    D    
C37   O10   D    
Ba1   O1    S    
C38   O13   D    
C34   H11   S    
C1    C12   S    
C42   P7    S    
C52   C64   S    
C6    C8    A    
C46   C47   A    
C37   C47   A    
C78   H28   S    
C53   C55   A    
C71   C74   A    
C48   H42   S    
C75   H48   S    
C15   C17   A    
C56   H21   S    
C77   H49   S    
C42   C43   D    
C28   H59   S    
C77   C79   A    
C35   H40   S    
C76   H2    S    
O26   P8    S    
C66   P3    S    
Ba2   O4    S    
C45   H18   S    
C44   N1    S    
C18   C19   A    
C28   C40   S    
C4    H39   S    
C67   O9    S    
C2    C3    A    
C67   C78   S    
O3    P5    S    
O6    P7    D    
O8    P8    D    
Ba1   P1    S    
C73   C80   A    
O27   P4    S    
C82   H60   S    
C38   C49   A    
C81   H5    S    
Ba1   O20   S    
C36   P1    S    
C53   C71   A    
C56   H19   S    
Ba1   O5    S    
C17   C22   A    
Ba2   P4    S    
C29   H37   S    
C69   C70   S    
C27   C29   A    
O12   P2    S    
C14   H31   S    
C45   C56   S    
C74   H46   S    
C42   C50   D    
C45   O3    S    
C75   C80   A    
C43   H41   S    
Ba2   O5    S    
C10   C17   A    
C22   H35   S    
C31   C33   A    
C34   H13   S    
C51   H55   S    
C59   C60   A    
O17   P1    S    
C83   N3    T    
C5    C6    A    
C8    C9    A    
C23   C34   S    
C61   C62   A    
C50   H54   S    
C59   C63   A    
C68   P2    S    
C2    C84   A    
C10   C11   A    
C23   H10   S    
C33   P6    S    
C47   C48   A    
C25   C26   A    
C54   C73   A    
C20   C21   A    
C11   C25   A    
C58   C83   S    
C1    H9    S    
Ba2   O26   S    
Ba1   O25   S    
C12   H8    S    
C9    C10   A    
O5    P2    S    
O23   P3    S    
C20   C36   A    
