data_mof_unit_8200.cif
_audit_creation_date              2012-12-10T18:57:11-0500
_audit_creation_method            fapswitch 2.2
_symmetry_space_group_name_H-M    P1
_symmetry_Int_Tables_number       1
_space_group_crystal_system       triclinic
_cell_length_a                    8.731487
_cell_length_b                    10.833908
_cell_length_c                    9.556413
_cell_angle_alpha                 90.378725
_cell_angle_beta                  97.827234
_cell_angle_gamma                 90.166859
_cell_volume                      895.551094096

loop_
_atom_site_label
_atom_site_type_symbol
_atom_type_description
_atom_site_fract_x
_atom_site_fract_y
_atom_site_fract_z
_atom_type_partial_charge
C1    C     C_R   0.496508 0.262415 0.499090 0.796012
C2    C     C_R   0.469016 0.934808 0.368315 -0.218128
C3    C     C_R   0.481855 0.871005 0.497254 -0.096442
C4    C     C_R   0.471221 0.937809 0.620971 0.132104
C5    C     C_3   0.569971 0.934428 0.761385 -0.488606
C6    C     C_3   0.568162 0.074371 0.760483 -0.454099
C7    C     C_R   0.632157 0.525615 0.090264 0.259468
C8    C     C_R   0.373924 0.462156 0.058303 -0.088798
C9    C     C_R   0.373872 0.462257 0.909713 -0.086624
C10   C     C_R   0.632545 0.524530 0.943059 0.260790
C11   C     C_3   0.726923 0.639530 0.949093 -0.512395
C12   C     C_R   0.203928 0.499298 0.463894 0.882318
C13   C     C_3   0.724571 0.641978 0.107603 -0.497593
C14   C     C_R   0.497360 0.737762 0.499871 0.798005
C15   C     C_R   0.796096 0.500022 0.536164 0.883534
C16   C     C_2   0.038145 0.497310 0.444191 -0.370016
C17   C     C_2   0.961951 0.500779 0.556122 -0.372647
C18   C     C_R   0.470281 0.064891 0.620130 0.126047
C19   C     C_R   0.480119 0.129438 0.495903 -0.096259
C20   C     C_R   0.468172 0.063552 0.367641 -0.218903
Cu1   Cu    Cu3+1 0.499990 0.499980 0.640670 0.937135
Cu2   Cu    Cu3+1 0.500010 0.500020 0.359330 0.936894
H1    H     H_    0.978599 0.492340 0.336859 0.164084
H2    H     H_    0.270910 0.432887 0.841859 0.139955
H3    H     H_    0.843835 0.622808 0.919268 0.193335
H4    H     H_    0.840671 0.628292 0.168750 0.193004
H5    H     H_    0.658334 0.720857 0.143635 0.211659
H6    H     H_    0.021570 0.504816 0.663627 0.163702
H7    H     H_    0.466272 0.110747 0.267863 0.166123
H8    H     H_    0.507280 0.894886 0.844505 0.197346
H9    H     H_    0.686543 0.895454 0.755048 0.196228
H10   H     H_    0.504160 0.115008 0.842468 0.197920
H11   H     H_    0.683458 0.116235 0.754111 0.198582
H12   H     H_    0.271003 0.432752 0.100194 0.142309
N1    N     N_R   0.500980 0.500930 0.148050 -0.186665
N2    N     N_R   0.500990 0.500890 0.852140 -0.185467
O1    O     O_R   0.500000 0.319640 0.618810 -0.581288
O2    O     O_R   0.500020 0.319680 0.381230 -0.586889
O3    O     O_R   0.274830 0.499980 0.591380 -0.584380
O4    O     O_R   0.274850 0.500020 0.353800 -0.597233
O5    O     O_R   0.499980 0.680320 0.618770 -0.578442
O6    O     O_R   0.500000 0.680360 0.381190 -0.586095
O7    O     O_R   0.725150 0.499980 0.646200 -0.591165
O8    O     O_R   0.725170 0.500020 0.408620 -0.575535
H13   H     H_    0.662988 0.716767 0.893598 0.213702
H14   H     H_    0.467406 0.886068 0.268802 0.163412

loop_
_geom_bond_atom_site_label_1
_geom_bond_atom_site_label_2
_ccdc_geom_bond_type
C12   O4    A    
C7    C10   A    
C6    H10   S    
C9    H2    S    
C9    N2    A    
C19   C20   A    
Cu1   O3    S    
C6    H11   S    
C1    O1    A    
C14   O6    A    
Cu2   O4    S    
C12   O3    A    
C2    C3    A    
C8    C9    A    
C4    C18   A    
Cu1   N2    S    
C8    H12   S    
Cu1   Cu2   S    
C2    H14   S    
Cu2   N1    S    
C11   C13   S    
Cu2   O6    S    
C3    C14   S    
C1    O2    A    
C14   O5    A    
Cu1   O5    S    
C4    C5    S    
C15   O8    A    
C18   C19   A    
C16   H1    S    
C20   H7    S    
C5    C6    S    
C6    C18   S    
C13   H4    S    
C11   H13   S    
C1    C19   S    
C10   C11   S    
C11   H3    S    
C15   O7    A    
C3    C4    A    
Cu2   O2    S    
C7    C13   S    
Cu1   O1    S    
C5    H8    S    
C15   C17   S    
C2    C20   A    
C13   H5    S    
C10   N2    A    
Cu1   O7    S    
C17   H6    S    
C7    N1    A    
Cu2   O8    S    
C12   C16   S    
C16   C17   D    
C5    H9    S    
C8    N1    A    
