data_mof_unit_16941.cif
_audit_creation_date              2012-12-10T18:10:43-0500
_audit_creation_method            fapswitch 2.2
_symmetry_space_group_name_H-M    P1
_symmetry_Int_Tables_number       1
_space_group_crystal_system       triclinic
_cell_length_a                    12.590912
_cell_length_b                    13.004757
_cell_length_c                    15.743228
_cell_angle_alpha                 92.013685
_cell_angle_beta                  103.206945
_cell_angle_gamma                 80.824088
_cell_volume                      2477.52625155

loop_
_atom_site_label
_atom_site_type_symbol
_atom_type_description
_atom_site_fract_x
_atom_site_fract_y
_atom_site_fract_z
_atom_type_partial_charge
C1    C     C_R   0.437063 0.692462 0.485099 0.895462
C2    C     C_R   0.598480 0.197183 0.540140 -0.272456
C3    C     C_R   0.282223 0.849580 0.463813 0.470585
C4    C     C_R   0.501685 0.500062 0.661552 0.897273
C5    C     C_R   0.251628 0.957217 0.453027 -0.157858
C6    C     C_R   0.330828 0.020857 0.456517 -0.265067
C7    C     C_R   0.442829 0.977754 0.468036 0.108948
C8    C     C_R   0.469443 0.870582 0.453926 0.042982
C9    C     C_R   0.529579 0.037481 0.492253 0.053518
C10   C     C_R   0.637108 0.994570 0.482347 0.059809
C11   C     C_R   0.655185 0.895334 0.446876 -0.172149
C12   C     C_3   0.381849 0.525744 0.026610 -0.434735
C13   C     C_R   0.571746 0.834147 0.431831 -0.143080
C14   C     C_R   0.515888 0.135406 0.532203 -0.115883
C15   C     C_R   0.708092 0.147358 0.551335 0.489583
C16   C     C_R   0.561875 0.308716 0.519167 0.915376
C17   C     C_R   0.394078 0.804103 0.464820 -0.276626
C18   C     C_R   0.072894 0.435503 0.333405 -0.177644
C19   C     C_R   0.804486 0.607638 0.619731 0.059332
C20   C     C_R   0.910750 0.630657 0.649481 -0.156560
C21   C     C_R   0.989863 0.598334 0.601429 -0.122138
C22   C     C_R   0.961872 0.544493 0.522415 -0.048504
C23   C     C_3   0.501710 0.496135 0.082928 0.039890
C24   C     C_R   0.851844 0.524290 0.492961 0.111580
C25   C     C_R   0.039241 0.506466 0.471995 0.008122
C26   C     C_R   0.999394 0.479304 0.383840 0.142911
C27   C     C_R   0.886072 0.484259 0.350990 -0.303480
C28   C     C_R   0.498008 0.500706 0.338385 0.933952
C29   C     C_R   0.824138 0.472106 0.411607 0.403176
C30   C     C_R   0.153724 0.489734 0.506049 0.087608
C31   C     C_R   0.184821 0.416821 0.371584 0.027690
C32   C     C_3   0.379440 0.508853 0.927862 0.301839
C33   C     C_3   0.572129 0.589088 0.970611 0.680985
C34   C     C_3   0.558690 0.386929 0.055554 -0.015485
C35   C     C_3   0.568778 0.581760 0.068644 -0.479504
C36   C     C_1   0.495555 0.498672 0.249034 -0.117708
C37   C     C_3   0.504787 0.501466 0.917807 -0.081053
C38   C     C_1   0.337689 0.408735 0.902425 0.198669
C39   C     C_1   0.670206 0.356412 0.111572 0.278733
C40   C     C_1   0.430070 0.167163 0.580048 0.257604
C41   C     C_1   0.495195 0.303904 0.066783 0.191095
C42   C     C_3   0.566601 0.393124 0.958085 -0.532509
C43   C     C_1   0.496964 0.497076 0.173962 -0.028581
C44   C     C_1   0.506563 0.500569 0.826505 0.097211
C45   C     C_1   0.505453 0.500020 0.750989 -0.032567
C46   C     C_R   0.726525 0.047613 0.515977 -0.248504
H1    H     H_    0.352024 0.608448 0.039803 0.254794
H2    H     H_    0.043963 0.413343 0.266085 0.172701
H3    H     H_    0.189935 0.512996 0.571295 0.134248
H4    H     H_    0.743335 0.631905 0.657656 0.172246
H5    H     H_    0.071053 0.619106 0.625333 0.204982
H6    H     H_    0.931815 0.673102 0.709813 0.207691
H7    H     H_    0.531687 0.657393 0.092886 0.219373
H8    H     H_    0.653293 0.566087 0.111109 0.212943
H9    H     H_    0.533359 0.327328 0.919429 0.191498
H10   H     H_    0.652656 0.377829 0.950216 0.263941
H11   H     H_    0.985643 0.165826 0.678658 0.397186
H12   H     H_    0.324381 0.480679 0.048206 0.186091
H13   H     H_    0.007171 0.814970 0.488642 0.376955
H14   H     H_    0.216631 0.510557 0.744177 0.341595
H15   H     H_    0.679029 0.244691 0.365347 0.363364
H16   H     H_    0.793293 0.704638 0.947163 0.402883
H17   H     H_    0.370922 0.835019 0.932006 0.412058
H18   H     H_    0.735371 0.862965 0.435124 0.157048
H19   H     H_    0.810396 0.007926 0.521744 0.207586
H20   H     H_    0.303338 0.103872 0.449740 0.177929
H21   H     H_    0.166737 0.993577 0.446923 0.227774
H22   H     H_    0.588751 0.758034 0.403535 0.164159
H23   H     H_    0.242837 0.386424 0.332354 0.146581
H24   H     H_    0.857438 0.458421 0.284635 0.198472
N1    N     N_R   0.222200 0.444690 0.455710 -0.118719
N2    N     N_R   0.776960 0.554780 0.543830 -0.130371
N3    N     N_1   0.304740 0.331154 0.882341 -0.134621
N4    N     N_1   0.757313 0.332042 0.155494 -0.112246
N5    N     N_1   0.362118 0.192774 0.618467 -0.164900
N6    N     N_1   0.445670 0.238939 0.075825 -0.145545
O1    O     O_R   0.366740 0.627160 0.478850 -0.522090
O2    O     O_2   0.801104 0.112470 0.718931 -0.269595
O3    O     O_3   0.935074 0.147163 0.624355 -0.488104
O4    O     O_2   0.155306 0.703356 0.404238 -0.298002
O5    O     O_2   0.214597 0.721829 0.563385 -0.299475
O6    O     O_3   0.059281 0.860524 0.478839 -0.545028
O7    O     O_2   0.210066 0.675147 0.912503 -0.199452
O8    O     O_2   0.318855 0.665859 0.801609 -0.224825
O9    O     O_3   0.179868 0.539595 0.791047 -0.529980
O10   O     O_2   0.884032 0.273943 0.364603 -0.288718
O11   O     O_2   0.835938 0.303964 0.504705 -0.229490
O12   O     O_R   0.544830 0.662520 0.507140 -0.642213
O13   O     O_3   0.677647 0.320952 0.363374 -0.581114
O14   O     O_2   0.785457 0.478592 0.016107 -0.300318
O15   O     O_2   0.725650 0.550319 0.868821 -0.296440
O16   O     O_3   0.778537 0.673610 0.999065 -0.458191
O17   O     O_2   0.592344 0.795318 0.983698 -0.248549
O18   O     O_2   0.512492 0.733460 0.838979 -0.246364
O19   O     O_3   0.393585 0.763615 0.956359 -0.517091
O20   O     O_R   0.410920 0.482310 0.608710 -0.628437
O21   O     O_R   0.589010 0.517670 0.637000 -0.590908
O22   O     O_R   0.455170 0.337480 0.492860 -0.627940
O23   O     O_R   0.633260 0.372840 0.521150 -0.498022
O24   O     O_R   0.410990 0.482330 0.363000 -0.627365
O25   O     O_R   0.589080 0.517690 0.391290 -0.607010
O26   O     O_2   0.786547 0.290569 0.667824 -0.248801
S1    S     S_3+6 0.807828 0.177457 0.643816 0.094155
S2    S     S_3+6 0.177343 0.779362 0.477941 0.032604
S3    S     S_3+6 0.272926 0.602492 0.858326 0.076396
S4    S     S_3+6 0.806384 0.339636 0.412077 0.051357
S5    S     S_3+6 0.717893 0.569244 0.962156 0.062908
S6    S     S_3+6 0.517907 0.722988 0.934718 0.079747
Zn1   Zn    Zn3+2 0.381090 0.476390 0.481110 1.016463
Zn2   Zn    Zn3+2 0.618910 0.523610 0.518890 1.040349

loop_
_geom_bond_atom_site_label_1
_geom_bond_atom_site_label_2
_ccdc_geom_bond_type
C3    S2    S    
C8    C13   A    
C35   H7    S    
C1    O1    A    
H11   O3    S    
C19   C20   A    
C33   S5    S    
H13   O6    S    
C5    H21   S    
C30   N1    A    
C7    C8    A    
C33   S6    S    
C12   C23   S    
O18   S6    D    
C26   C27   A    
O4    S2    D    
O14   S5    D    
O17   S6    D    
C5    C6    A    
C27   C29   A    
H17   O19   S    
C23   C43   S    
C39   N4    T    
C37   C42   S    
C24   C29   A    
C42   H10   S    
C4    O20   A    
C28   O25   A    
C34   C42   S    
C22   C25   A    
C18   C26   A    
O13   S4    S    
C10   C46   A    
C32   C38   S    
C2    C16   S    
C9    C10   A    
O12   Zn2   S    
C28   O24   A    
C1    O12   A    
C31   N1    A    
O24   Zn1   S    
O22   Zn1   S    
C4    O21   A    
C12   C32   S    
C35   H8    S    
O3    S1    S    
C19   N2    A    
O10   S4    D    
C34   C41   S    
C12   H1    S    
O9    S3    S    
H15   O13   S    
C4    C45   S    
N2    Zn2   S    
C34   C39   S    
O15   S5    D    
C46   H19   S    
C11   H18   S    
O19   S6    S    
C25   C26   A    
O23   Zn2   S    
C33   C37   S    
O7    S3    D    
H16   O16   S    
C9    C14   A    
C42   H9    S    
O16   S5    S    
C6    H20   S    
C23   C34   S    
O8    S3    D    
C32   C37   S    
O1    Zn1   S    
C2    C15   A    
C27   H24   S    
C30   H3    S    
C23   C35   S    
C32   S3    S    
C22   C24   A    
C29   S4    S    
C21   H5    S    
C44   C45   T    
C24   N2    A    
C25   C30   A    
C7    C9    A    
O2    S1    D    
C3    C5    A    
C18   H2    S    
H14   O9    S    
C16   O23   A    
C6    C7    A    
O5    S2    D    
O20   Zn1   S    
C1    C17   S    
C8    C17   A    
C40   N5    T    
C37   C44   S    
O25   Zn2   S    
C12   H12   S    
C20   H6    S    
C41   N6    T    
O21   Zn2   S    
C11   C13   A    
C19   H4    S    
C16   O22   A    
O11   S4    D    
N1    Zn1   S    
C33   C35   S    
C3    C17   A    
O26   S1    D    
C2    C14   A    
C10   C11   A    
C14   C40   S    
C31   H23   S    
C20   C21   A    
C28   C36   S    
O6    S2    S    
C36   C43   T    
C18   C31   A    
C15   C46   A    
C15   S1    S    
C21   C22   A    
C38   N3    T    
C13   H22   S    
