data_mof_unit_54016.cif
_audit_creation_date              2012-12-10T20:27:54-0500
_audit_creation_method            fapswitch 2.2
_symmetry_space_group_name_H-M    P1
_symmetry_Int_Tables_number       1
_space_group_crystal_system       triclinic
_cell_length_a                    12.831873
_cell_length_b                    10.626132
_cell_length_c                    9.893153
_cell_angle_alpha                 89.131588
_cell_angle_beta                  97.059916
_cell_angle_gamma                 90.449259
_cell_volume                      1338.55716435

loop_
_atom_site_label
_atom_site_type_symbol
_atom_type_description
_atom_site_fract_x
_atom_site_fract_y
_atom_site_fract_z
_atom_type_partial_charge
C1    C     C_R   0.500618 0.260490 0.500730 0.887521
C2    C     C_R   0.026401 0.455560 0.549857 0.024993
C3    C     C_R   0.973735 0.539382 0.451383 0.069125
C4    C     C_R   0.866919 0.556568 0.449856 -0.236370
C5    C     C_R   0.865433 0.416417 0.645818 -0.231493
C6    C     C_R   0.972000 0.396747 0.648287 -0.163476
C7    C     C_R   0.584463 0.062687 0.564628 0.111097
C8    C     C_R   0.499888 0.128643 0.498675 -0.131302
C9    C     C_R   0.423018 0.067969 0.409746 -0.263472
C10   C     C_R   0.420080 0.936550 0.406971 0.206241
C11   C     C_R   0.497939 0.871481 0.493758 -0.166079
C12   C     C_R   0.298511 0.498171 0.473267 0.923946
C13   C     C_R   0.583140 0.934608 0.562434 0.092566
C14   C     C_3   0.634040 0.922550 0.706030 -0.480201
C15   C     C_3   0.635667 0.065415 0.708521 -0.483494
C16   C     C_R   0.431268 0.425529 0.061459 0.164270
C17   C     C_R   0.558848 0.585327 0.079799 0.247940
C18   C     C_R   0.558582 0.584262 0.935092 -0.190387
C19   C     C_R   0.430956 0.425894 0.919352 0.259928
C20   C     C_3   0.422287 0.286110 0.915023 -0.487121
C21   C     C_3   0.422629 0.285840 0.068565 -0.514088
C22   C     C_R   0.498877 0.739435 0.498680 0.870434
C23   C     C_R   0.701571 0.499652 0.526886 0.873180
C24   C     C_R   0.813394 0.493459 0.544166 -0.049003
C25   C     C_R   0.186534 0.499828 0.456131 -0.198513
C26   C     C_R   0.028459 0.601601 0.354719 0.224899
C27   C     C_R   0.134899 0.579451 0.356876 -0.369853
C28   C     C_R   0.132531 0.432315 0.548404 0.455799
H1    H     H_    0.823975 0.616610 0.373617 0.189800
H2    H     H_    0.713631 0.880633 0.712553 0.197062
H3    H     H_    0.584294 0.103969 0.779620 0.205330
H4    H     H_    0.716197 0.106229 0.716737 0.195476
H5    H     H_    0.605405 0.650812 0.884698 0.163659
H6    H     H_    0.346499 0.254089 0.859382 0.229552
H7    H     H_    0.493183 0.242437 0.883158 0.201110
H8    H     H_    0.346772 0.254303 0.101515 0.201122
H9    H     H_    0.493555 0.240985 0.124454 0.226033
H10   H     H_    0.822898 0.367158 0.718834 0.152774
H11   H     H_    0.010939 0.334041 0.725519 0.183041
H12   H     H_    0.178491 0.630541 0.286281 0.182555
H13   H     H_    0.363310 0.123645 0.350004 0.155867
H14   H     H_    0.581414 0.879590 0.775525 0.212159
N1    N     N_R   0.499290 0.499140 0.142710 -0.132476
N2    N     N_R   0.499290 0.499180 0.857070 -0.129766
O1    O     O_R   0.500010 0.316790 0.614690 -0.616649
O2    O     O_R   0.500000 0.316760 0.385350 -0.623656
O3    O     O_R   0.346360 0.499990 0.595720 -0.567493
O4    O     O_R   0.346350 0.499960 0.366370 -0.634097
O5    O     O_R   0.500000 0.683240 0.614650 -0.625406
O6    O     O_R   0.499990 0.683210 0.385310 -0.613285
O7    O     O_R   0.653650 0.500040 0.633630 -0.624504
O8    O     O_R   0.653640 0.500010 0.404280 -0.593376
Zn1   Zn    Zn3+2 0.500010 0.500020 0.653130 0.956493
Zn2   Zn    Zn3+2 0.499990 0.499980 0.346870 0.957445
N3    N     N_2   0.615469 0.679539 0.159368 -0.257493
H15   H     H_    0.569841 0.756742 0.172542 0.241516
C29   C     C_3   0.718267 0.714494 0.124993 -0.827488
H16   H     H_    0.766236 0.629284 0.114994 0.262888
H17   H     H_    0.758351 0.773527 0.207275 0.256327
H18   H     H_    0.711730 0.771485 0.029371 0.222963
N4    N     N_2   0.978615 0.690812 0.259657 -0.313858
H19   H     H_    0.006943 0.690376 0.166456 0.232270
C30   C     C_3   0.976034 0.816694 0.312935 -0.837071
H20   H     H_    0.935445 0.880602 0.233932 0.241268
H21   H     H_    0.057139 0.852602 0.341898 0.250494
H22   H     H_    0.932678 0.817366 0.403446 0.250942
O9    O     O_3   0.184895 0.349445 0.642405 -0.608146
C31   C     C_3   0.192751 0.232466 0.578915 -0.347576
H23   H     H_    0.240352 0.240260 0.492440 0.150711
H24   H     H_    0.113743 0.192646 0.543570 0.160730
H25   H     H_    0.233094 0.165185 0.654278 0.192049
N5    N     N_2   0.338000 0.868772 0.326771 -0.286390
H26   H     H_    0.308044 0.792488 0.375180 0.216874
C32   C     C_3   0.261531 0.935699 0.233061 -0.819576
H27   H     H_    0.210072 0.866910 0.172925 0.241444
H28   H     H_    0.301632 0.994189 0.160788 0.252375
H29   H     H_    0.211779 0.995427 0.290063 0.228889

loop_
_geom_bond_atom_site_label_1
_geom_bond_atom_site_label_2
_ccdc_geom_bond_type
N3    H15   S    
C30   H21   S    
C16   C21   S    
C1    C8    S    
C19   C20   S    
C12   O4    A    
C29   H16   S    
C7    C8    A    
C21   H8    S    
C25   C28   A    
O4    Zn2   S    
C26   C27   A    
O6    Zn2   S    
C32   H28   S    
C26   N4    S    
C16   C19   A    
C5    C6    A    
C4    C24   A    
C1    O2    A    
C29   H17   S    
N4    C30   S    
C20   H7    S    
N2    Zn1   S    
C8    C9    A    
C32   H29   S    
C23   C24   S    
C9    C10   A    
C17   N3    S    
C4    H1    S    
C14   H14   S    
C20   H6    S    
C7    C15   S    
C30   H22   S    
O1    Zn1   S    
C5    H10   S    
C2    C6    A    
C14   H2    S    
C12   O3    A    
O8    Zn2   S    
C32   H27   S    
O9    C31   S    
C22   O6    A    
C15   H4    S    
C28   O9    S    
N5    C32   S    
C31   H23   S    
C29   H18   S    
O7    Zn1   S    
C17   N1    A    
C18   N2    A    
N1    Zn2   S    
C23   O7    A    
C27   H12   S    
O2    Zn2   S    
C17   C18   A    
C16   N1    A    
C22   O5    A    
N3    C29   S    
C3    C4    A    
C19   N2    A    
C14   C15   S    
C3    C26   A    
N5    H26   S    
C15   H3    S    
C25   C27   A    
C11   C22   S    
C9    H13   S    
O3    Zn1   S    
C12   C25   S    
C2    C3    A    
C11   C13   A    
C1    O1    A    
C23   O8    A    
C5    C24   A    
C31   H25   S    
O5    Zn1   S    
N4    H19   S    
C18   H5    S    
C10   C11   A    
C30   H20   S    
C7    C13   A    
C21   H9    S    
C20   C21   S    
C31   H24   S    
C6    H11   S    
C2    C28   A    
C13   C14   S    
C10   N5    S    
