data_mof_unit_61565.cif
_audit_creation_date              2012-12-10T16:53:05-0500
_audit_creation_method            fapswitch 2.2
_symmetry_space_group_name_H-M    P1
_symmetry_Int_Tables_number       1
_space_group_crystal_system       triclinic
_cell_length_a                    26.222512
_cell_length_b                    26.243509
_cell_length_c                    22.26944
_cell_angle_alpha                 90.007274
_cell_angle_beta                  53.904652
_cell_angle_gamma                 90.011139
_cell_volume                      12383.320659

loop_
_atom_site_label
_atom_site_type_symbol
_atom_type_description
_atom_site_fract_x
_atom_site_fract_y
_atom_site_fract_z
_atom_type_partial_charge
C1    C     C_R   0.650268 0.250016 0.699505 0.822141
C2    C     C_1   0.889506 0.749962 0.221007 -0.145134
C3    C     C_2   0.248288 0.943913 0.499382 -0.297603
C4    C     C_3   0.501531 0.796778 0.975210 -0.162568
C5    C     C_3   0.498492 0.203784 0.975248 -0.162992
C6    C     C_3   0.000428 0.296748 0.975249 -0.162883
C7    C     C_3   0.000290 0.703226 0.975237 -0.163034
C8    C     C_3   0.468030 0.316031 0.486007 -0.401606
C9    C     C_3   0.463594 0.349905 0.432870 -0.345930
C10   C     C_3   0.482897 0.404708 0.433362 -0.882246
C11   C     C_3   0.468096 0.683997 0.485843 -0.401717
C12   C     C_3   0.463590 0.650162 0.432715 -0.346005
C13   C     C_1   0.389627 0.749941 0.220999 -0.143956
C14   C     C_3   0.483177 0.595404 0.432853 -0.881576
C15   C     C_3   0.912771 0.741091 0.596387 -0.401837
C16   C     C_3   0.856846 0.704890 0.646156 -0.342800
C17   C     C_3   0.836417 0.705609 0.726055 -0.886151
C18   C     C_3   0.968394 0.184155 0.485208 -0.402040
C19   C     C_3   0.964284 0.150761 0.431426 -0.345988
C20   C     C_3   0.984280 0.096011 0.430712 -0.880869
C21   C     C_1   0.389537 0.249990 0.221010 -0.144261
C22   C     C_1   0.610676 0.749856 0.778989 -0.141017
C23   C     C_1   0.610518 0.250030 0.778999 -0.143525
C24   C     C_1   0.110518 0.249970 0.779001 -0.143578
C25   C     C_1   0.110496 0.750012 0.778997 -0.143894
C26   C     C_3   0.022231 0.283751 0.024726 -0.160124
C27   C     C_3   0.022112 0.716156 0.024719 -0.160272
C28   C     C_3   0.523076 0.782987 0.024713 -0.160081
C29   C     C_R   0.650314 0.749947 0.699504 0.816616
C30   C     C_3   0.520796 0.214855 0.024724 -0.160132
C31   C     C_3   0.963562 0.249987 0.072983 0.201932
C32   C     C_3   0.963501 0.749966 0.072979 0.202033
C33   C     C_3   0.463815 0.749834 0.072966 0.202047
C34   C     C_3   0.463561 0.250011 0.072983 0.201956
C35   C     C_3   0.559013 0.736000 0.975213 -0.163799
C36   C     C_3   0.559474 0.261100 0.975209 -0.163131
C37   C     C_3   0.058974 0.236973 0.975210 -0.163232
C38   C     C_3   0.058936 0.762920 0.975210 -0.163131
C39   C     C_3   0.536813 0.749792 0.927011 0.201805
C40   C     C_R   0.150265 0.750013 0.699504 0.822174
C41   C     C_3   0.536521 0.250029 0.927029 0.201902
C42   C     C_3   0.036523 0.249970 0.927029 0.201893
C43   C     C_3   0.036466 0.749990 0.927025 0.201953
C44   C     C_3   0.999656 0.203209 0.024765 -0.163614
C45   C     C_3   0.999677 0.796730 0.024766 -0.163289
C46   C     C_3   0.499101 0.702846 0.024769 -0.163820
C47   C     C_3   0.501590 0.296256 0.024765 -0.163847
C48   C     C_3   0.477557 0.716639 0.975263 -0.160216
C49   C     C_3   0.479286 0.285186 0.975289 -0.160125
C50   C     C_3   0.977853 0.216206 0.975287 -0.160118
C51   C     C_R   0.150267 0.249984 0.699509 0.822307
C52   C     C_3   0.977855 0.783800 0.975285 -0.160244
C53   C     C_1   0.922968 0.250000 0.154170 -0.086305
C54   C     C_1   0.922918 0.749959 0.154168 -0.086129
C55   C     C_1   0.423140 0.749886 0.154158 -0.086276
C56   C     C_1   0.422967 0.249999 0.154172 -0.086351
C57   C     C_R   0.849770 0.250012 0.300496 0.819990
C58   C     C_R   0.849759 0.749977 0.300498 0.822256
C59   C     C_R   0.349782 0.750005 0.300493 0.820172
C60   C     C_R   0.349769 0.249987 0.300500 0.819868
C61   C     C_1   0.577348 0.749807 0.845825 -0.085758
C62   C     C_3   0.941111 0.262984 0.024802 -0.163344
C63   C     C_1   0.577105 0.250034 0.845838 -0.085172
C64   C     C_1   0.077106 0.249966 0.845840 -0.085140
C65   C     C_1   0.077065 0.750003 0.845836 -0.085297
C66   C     C_2   0.490407 0.220875 0.463650 -0.201446
C67   C     C_2   0.490369 0.779178 0.463744 -0.201531
C68   C     C_2   0.993310 0.724848 0.457847 -0.201641
C69   C     C_2   0.990105 0.279452 0.464272 -0.201470
C70   C     C_2   0.450731 0.260721 0.484042 -0.005950
C71   C     C_2   0.450734 0.739306 0.484027 -0.005775
C72   C     C_2   0.934869 0.739247 0.515750 -0.005924
C73   C     C_3   0.941030 0.737036 0.024795 -0.163545
C74   C     C_2   0.950700 0.239468 0.484117 -0.005312
C75   C     C_2   0.549896 0.223086 0.455888 -0.176753
C76   C     C_2   0.549858 0.776978 0.455980 -0.177034
C77   C     C_2   0.047245 0.719502 0.461170 -0.176389
C78   C     C_2   0.049648 0.277274 0.456382 -0.176751
C79   C     C_2   0.552758 0.246519 0.507114 -0.330861
C80   C     C_2   0.552748 0.753471 0.507135 -0.330944
C81   C     C_2   0.058926 0.754863 0.494796 -0.331188
C82   C     C_2   0.052696 0.253516 0.507259 -0.331270
C83   C     C_2   0.740963 0.971940 0.458149 -0.162708
C84   C     C_3   0.441628 0.763625 0.024752 -0.163053
C85   C     C_2   0.742684 0.028056 0.456686 -0.163066
C86   C     C_2   0.241120 0.471938 0.458028 -0.163031
C87   C     C_2   0.242954 0.528049 0.456469 -0.164267
C88   C     C_2   0.752264 0.943889 0.499507 -0.297940
C89   C     C_2   0.748495 0.056116 0.502711 -0.295305
C90   C     C_2   0.252618 0.443886 0.499206 -0.296364
C91   C     C_2   0.248459 0.556106 0.502737 -0.295761
C92   C     C_R   0.889535 0.248869 0.498257 0.812078
C93   C     C_R   0.887790 0.748790 0.501744 0.811951
C94   C     C_R   0.389565 0.748811 0.498193 0.812254
C95   C     C_3   0.440609 0.238940 0.024804 -0.163131
C96   C     C_R   0.389564 0.251195 0.498196 0.812302
C97   C     C_R   0.610878 0.249374 0.501060 0.862789
C98   C     C_R   0.610873 0.750624 0.501069 0.862885
C99   C     C_R   0.111879 0.750727 0.499060 0.862938
C100  C     C_R   0.110864 0.250636 0.501092 0.862993
C101  C     C_R   0.749880 0.111390 0.500176 0.850242
C102  C     C_R   0.750235 0.888613 0.499877 0.855733
C103  C     C_R   0.249886 0.611386 0.500171 0.849852
C104  C     C_R   0.250324 0.388613 0.499805 0.850362
C105  C     C_R   0.749927 0.388649 0.499869 0.855063
C106  C     C_1   0.889538 0.250009 0.221007 -0.144282
C107  C     C_R   0.749990 0.611352 0.500265 0.852963
C108  C     C_R   0.249927 0.888649 0.499868 0.855161
C109  C     C_R   0.249987 0.111351 0.500250 0.855197
C110  C     C_2   0.800750 0.528058 0.456818 -0.162780
C111  C     C_2   0.801030 0.471956 0.458415 -0.163180
C112  C     C_2   0.300737 0.028057 0.456757 -0.162942
C113  C     C_2   0.301021 0.971955 0.458347 -0.162892
C114  C     C_2   0.748919 0.556087 0.503047 -0.298295
C115  C     C_2   0.748290 0.443915 0.499379 -0.298291
C116  C     C_2   0.248911 0.056086 0.503006 -0.298198
H1    H     H_    0.845414 0.546696 0.416263 0.175041
H2    H     H_    0.511144 0.735245 0.554832 0.160906
H3    H     H_    0.028223 0.787813 0.520736 0.160934
H4    H     H_    0.011173 0.235110 0.554822 0.161029
H5    H     H_    0.730484 0.953306 0.423010 0.174759
H6    H     H_    0.738277 0.046684 0.416384 0.174773
H7    H     H_    0.230372 0.453309 0.423133 0.174908
H8    H     H_    0.238793 0.546676 0.415973 0.174645
H9    H     H_    0.764255 0.960763 0.533959 0.150130
H10   H     H_    0.751626 0.039248 0.544703 0.150562
H11   H     H_    0.265007 0.460772 0.533282 0.150392
H12   H     H_    0.846698 0.453328 0.423636 0.174429
H13   H     H_    0.251245 0.539214 0.544983 0.150589
H14   H     H_    0.703903 0.539187 0.545423 0.150365
H15   H     H_    0.701809 0.460806 0.533330 0.150210
H16   H     H_    0.203894 0.039188 0.545377 0.150399
H17   H     H_    0.201810 0.960801 0.533399 0.150296
H18   H     H_    0.892170 0.273673 0.046198 0.133182
H19   H     H_    0.892071 0.726400 0.046186 0.133099
H20   H     H_    0.392887 0.774977 0.046118 0.133323
H21   H     H_    0.391256 0.229834 0.046199 0.133299
H22   H     H_    0.503038 0.835377 0.953829 0.133606
H23   H     H_    0.345398 0.046696 0.416192 0.174523
H24   H     H_    0.497726 0.165785 0.953886 0.133470
H25   H     H_    0.001253 0.335185 0.953887 0.133502
H26   H     H_    0.001049 0.664803 0.953869 0.133346
H27   H     H_    0.459361 0.689374 0.953927 0.134947
H28   H     H_    0.462736 0.314086 0.953959 0.135003
H29   H     H_    0.960125 0.188450 0.953956 0.135037
H30   H     H_    0.960176 0.811595 0.953954 0.134986
H31   H     H_    0.998830 0.164772 0.046130 0.133056
H32   H     H_    0.998917 0.835152 0.046134 0.133232
H33   H     H_    0.497593 0.664247 0.046152 0.132815
H34   H     H_    0.346684 0.953327 0.423510 0.174296
H35   H     H_    0.502355 0.334255 0.046130 0.132853
H36   H     H_    0.607763 0.724650 0.953818 0.132786
H37   H     H_    0.608826 0.270207 0.953814 0.133294
H38   H     H_    0.107914 0.226284 0.953816 0.133285
H39   H     H_    0.107894 0.773556 0.953820 0.133286
H40   H     H_    0.039957 0.311506 0.046059 0.134825
H41   H     H_    0.039790 0.688360 0.046049 0.134619
H42   H     H_    0.541272 0.810251 0.046050 0.134700
H43   H     H_    0.537345 0.185955 0.046056 0.134799
H44   H     H_    0.477730 0.183738 0.454504 0.159834
H45   H     H_    0.590135 0.202072 0.410665 0.183430
H46   H     H_    0.477656 0.816325 0.454694 0.159491
H47   H     H_    0.003106 0.718207 0.403784 0.159683
H48   H     H_    0.977167 0.316642 0.455654 0.159176
H49   H     H_    0.451577 0.421089 0.490128 0.265760
H50   H     H_    0.532584 0.406090 0.414725 0.260899
H51   H     H_    0.478786 0.428227 0.394948 0.249363
H52   H     H_    0.495152 0.334567 0.375411 0.219254
H53   H     H_    0.414588 0.350397 0.449184 0.228518
H54   H     H_    0.435574 0.330661 0.543741 0.207534
H55   H     H_    0.516911 0.319995 0.468893 0.224422
H56   H     H_    0.590074 0.798053 0.410819 0.183319
H57   H     H_    0.532959 0.594149 0.413891 0.260759
H58   H     H_    0.452120 0.578918 0.489580 0.265899
H59   H     H_    0.478921 0.571896 0.394537 0.249345
H60   H     H_    0.414515 0.649546 0.449255 0.228909
H61   H     H_    0.494945 0.665625 0.375310 0.219153
H62   H     H_    0.517010 0.680063 0.468624 0.224604
H63   H     H_    0.435711 0.669312 0.543555 0.207478
H64   H     H_    0.875705 0.692822 0.728187 0.260835
H65   H     H_    0.821774 0.744651 0.749532 0.265865
H66   H     H_    0.795773 0.679444 0.760618 0.248229
H67   H     H_    0.079920 0.688253 0.431028 0.183420
H68   H     H_    0.815702 0.716085 0.646760 0.228327
H69   H     H_    0.870643 0.665386 0.624187 0.219842
H70   H     H_    0.950118 0.729449 0.602349 0.224560
H71   H     H_    0.898702 0.780792 0.617244 0.207608
H72   H     H_    0.034017 0.094900 0.411927 0.260573
H73   H     H_    0.953234 0.079076 0.487143 0.266013
H74   H     H_    0.980366 0.072837 0.391870 0.249876
H75   H     H_    0.915248 0.150038 0.447838 0.228329
H76   H     H_    0.995598 0.166667 0.374289 0.219567
H77   H     H_    0.017276 0.180304 0.468120 0.224633
H78   H     H_    0.089753 0.298541 0.411391 0.183451
H79   H     H_    0.935992 0.169064 0.542679 0.207562
H80   H     H_    0.511136 0.264685 0.554861 0.160800
O1    O     O_3   0.750010 0.250010 0.500000 -0.482812
O2    O     O_R   0.613890 0.719960 0.543100 -0.645282
O3    O     O_R   0.113890 0.780040 0.543100 -0.645931
O4    O     O_R   0.113890 0.219960 0.543100 -0.645686
O5    O     O_R   0.697860 0.219970 0.664410 -0.635947
O6    O     O_R   0.697860 0.780030 0.664410 -0.640188
O7    O     O_R   0.197860 0.719970 0.664410 -0.635945
O8    O     O_R   0.197860 0.280030 0.664410 -0.635724
O9    O     O_R   0.802170 0.219970 0.335590 -0.639813
O10   O     O_R   0.802170 0.780030 0.335590 -0.639028
O11   O     O_R   0.302170 0.719970 0.335590 -0.639324
O12   O     O_3   0.750010 0.749990 0.500000 -0.482769
O13   O     O_R   0.302170 0.280030 0.335590 -0.639536
O14   O     O_R   0.637780 0.280050 0.664410 -0.637634
O15   O     O_R   0.637780 0.719950 0.664410 -0.637815
O16   O     O_R   0.137780 0.780050 0.664410 -0.637308
O17   O     O_R   0.137780 0.219950 0.664410 -0.637857
O18   O     O_R   0.862250 0.280060 0.335590 -0.638320
O19   O     O_R   0.862250 0.719940 0.335590 -0.638467
O20   O     O_R   0.362250 0.780060 0.335590 -0.638463
O21   O     O_R   0.362250 0.219940 0.335590 -0.638626
O22   O     O_R   0.843040 0.219980 0.543100 -0.644412
O23   O     O_3   0.250010 0.750010 0.500000 -0.482788
O24   O     O_R   0.843040 0.780020 0.543100 -0.644679
O25   O     O_R   0.343040 0.719980 0.543100 -0.644528
O26   O     O_R   0.343040 0.280020 0.543100 -0.644761
O27   O     O_R   0.656980 0.219970 0.456900 -0.640571
O28   O     O_R   0.656980 0.780030 0.456900 -0.641206
O29   O     O_R   0.156980 0.719970 0.456900 -0.640563
O30   O     O_R   0.156980 0.280030 0.456900 -0.640803
O31   O     O_R   0.758500 0.135440 0.543100 -0.647723
O32   O     O_R   0.758500 0.864560 0.543100 -0.643385
O33   O     O_R   0.258500 0.635440 0.543100 -0.647864
O34   O     O_3   0.250010 0.249990 0.500000 -0.482804
O35   O     O_R   0.258500 0.364560 0.543100 -0.647852
O36   O     O_R   0.698440 0.364590 0.543100 -0.644579
O37   O     O_R   0.698440 0.635410 0.543100 -0.645040
O38   O     O_R   0.198440 0.864590 0.543100 -0.644779
O39   O     O_R   0.198440 0.135410 0.543100 -0.644513
O40   O     O_R   0.741510 0.135430 0.456900 -0.642797
O41   O     O_R   0.741510 0.864570 0.456900 -0.642888
O42   O     O_R   0.241510 0.635430 0.456900 -0.643226
O43   O     O_R   0.241510 0.364570 0.456900 -0.642823
O44   O     O_R   0.801610 0.364600 0.456900 -0.642280
O45   O     O_R   0.886150 0.280070 0.456900 -0.651509
O46   O     O_R   0.801610 0.635400 0.456900 -0.642526
O47   O     O_R   0.301610 0.864600 0.456900 -0.642270
O48   O     O_R   0.301610 0.135400 0.456900 -0.642263
O49   O     O_R   0.886150 0.719930 0.456900 -0.651291
O50   O     O_R   0.386150 0.780070 0.456900 -0.651592
O51   O     O_R   0.386150 0.219930 0.456900 -0.651337
O52   O     O_R   0.613890 0.280040 0.543100 -0.645949
Zn1   Zn    Zn3+2 0.823730 0.292940 0.438410 0.960310
Zn2   Zn    Zn3+2 0.737880 0.792910 0.438410 0.965736
Zn3   Zn    Zn3+2 0.237880 0.707090 0.438410 0.962135
Zn4   Zn    Zn3+2 0.237880 0.292910 0.438410 0.962135
Zn5   Zn    Zn3+2 0.676310 0.292930 0.561590 0.969205
Zn6   Zn    Zn3+2 0.676310 0.707070 0.561590 0.965840
Zn7   Zn    Zn3+2 0.176310 0.792930 0.561590 0.969402
Zn8   Zn    Zn3+2 0.176310 0.207070 0.561590 0.969477
Zn9   Zn    Zn3+2 0.823730 0.707060 0.438410 0.960104
Zn10  Zn    Zn3+2 0.323730 0.792940 0.438410 0.960324
Zn11  Zn    Zn3+2 0.323730 0.207060 0.438410 0.960288
Zn12  Zn    Zn3+2 0.762140 0.207100 0.561590 0.961774
Zn13  Zn    Zn3+2 0.762140 0.792900 0.561590 0.961810
Zn14  Zn    Zn3+2 0.262140 0.707100 0.561590 0.961519
Zn15  Zn    Zn3+2 0.262140 0.292900 0.561590 0.961573
Zn16  Zn    Zn3+2 0.737880 0.207090 0.438410 0.962205

loop_
_geom_bond_atom_site_label_1
_geom_bond_atom_site_label_2
_ccdc_geom_bond_type
C103  O33   A    
C104  O43   A    
C40   O16   A    
C33   C55   S    
C116  H16   S    
C22   C29   S    
C87   C91   D    
O42   Zn3   S    
C109  O39   A    
C45   H32   S    
C32   C45   S    
C26   H40   S    
O24   Zn13  S    
C31   C62   S    
C69   H48   S    
C82   H4    S    
C1    O5    A    
C111  H12   S    
C97   O52   A    
C66   H44   S    
O26   Zn15  S    
C69   C78   S    
O7    Zn14  S    
C47   C49   S    
C71   C94   S    
C115  H15   S    
O33   Zn14  S    
O32   Zn13  S    
O30   Zn4   S    
C15   C72   S    
O23   Zn14  S    
C28   H42   S    
C88   H9    S    
O23   Zn7   S    
C66   C70   D    
C93   O24   A    
O39   Zn8   S    
C5    C30   S    
C14   H57   S    
O34   Zn8   S    
C62   H18   S    
C103  O42   A    
C25   C40   S    
C20   H74   S    
C87   H8    S    
C11   C71   S    
C43   C52   S    
C31   C53   S    
C112  C116  D    
C75   H45   S    
C58   O10   A    
C27   C38   S    
C44   C50   S    
C15   C16   S    
C49   H28   S    
C57   O9    A    
C44   H31   S    
C7    C27   S    
C36   C47   S    
C18   C19   S    
C78   H78   S    
C74   C92   S    
C37   C42   S    
C76   H56   S    
C110  C111  S    
C112  C113  S    
C38   C45   S    
C86   C90   D    
C109  C116  S    
C4    C28   S    
C9    H53   S    
C53   C106  T    
C73   H19   S    
C28   C35   S    
C12   H61   S    
C10   H51   S    
C98   O28   A    
C94   O25   A    
C52   H30   S    
C90   H11   S    
C40   O7    A    
C107  O46   A    
O12   Zn9   S    
C3    C108  S    
C7    C43   S    
C16   H69   S    
C92   O22   A    
O49   Zn9   S    
C60   O13   A    
C110  C114  D    
C96   O51   A    
C8    H55   S    
O28   Zn2   S    
C19   H76   S    
C12   H60   S    
C80   C98   S    
C58   O19   A    
O2    Zn6   S    
C24   C51   S    
C23   C63   T    
C83   C88   D    
C107  O37   A    
O1    Zn5   S    
O44   Zn1   S    
C18   C74   S    
O23   Zn3   S    
C18   H77   S    
C33   C46   S    
C114  H14   S    
C112  H23   S    
C36   C41   S    
O48   Zn11  S    
O12   Zn6   S    
C38   H39   S    
O18   Zn1   S    
O1    Zn12  S    
O34   Zn4   S    
C17   H66   S    
C110  H1    S    
C41   C49   S    
O27   Zn16  S    
C5    C95   S    
O8    Zn15  S    
C8    H54   S    
C36   H37   S    
C29   O15   A    
C80   H2    S    
C89   H10   S    
C30   H43   S    
C39   C61   S    
C15   H70   S    
C46   C48   S    
C95   H21   S    
C31   C44   S    
C30   C34   S    
C5    C41   S    
C105  O36   A    
C69   C74   D    
C25   C65   T    
C34   C95   S    
C59   O20   A    
C21   C60   S    
C7    C73   S    
C52   C73   S    
C3    C113  D    
O43   Zn4   S    
C32   C73   S    
O23   Zn10  S    
C98   O2    A    
C86   C87   S    
C8    C9    S    
C104  O35   A    
C81   C99   S    
C45   C52   S    
C15   H71   S    
C49   C95   S    
O12   Zn13  S    
C97   O27   A    
C48   H27   S    
C68   C72   D    
C3    H17   S    
O47   Zn10  S    
C70   C96   S    
C107  C114  S    
C109  O48   A    
C14   H59   S    
O50   Zn10  S    
C17   H65   S    
C20   H72   S    
C66   C75   S    
C92   O45   A    
C78   C82   D    
C79   C97   S    
C88   C102  S    
C4    C84   S    
C4    C39   S    
O1    Zn1   S    
C43   C65   S    
C101  O40   A    
C102  O32   A    
C1    O14   A    
O45   Zn1   S    
C85   H6    S    
C11   H62   S    
O12   Zn2   S    
C83   H5    S    
C6    H25   S    
C100  O30   A    
C94   O50   A    
C90   C104  S    
C113  H34   S    
C99   O29   A    
C93   O49   A    
O31   Zn12  S    
C42   C50   S    
C13   C59   S    
C72   C93   S    
C100  O4    A    
C50   H29   S    
C83   C85   S    
O4    Zn8   S    
C28   C33   S    
O25   Zn14  S    
C96   O26   A    
C2    C54   T    
O19   Zn9   S    
C50   C62   S    
O46   Zn9   S    
O41   Zn2   S    
O40   Zn16  S    
C11   H63   S    
C35   H36   S    
C41   C63   S    
O14   Zn5   S    
O6    Zn13  S    
C42   C64   S    
C20   H73   S    
C51   O8    A    
C17   H64   S    
C5    H24   S    
C51   O17   A    
C9    C10   S    
C68   H47   S    
C59   O11   A    
C68   C77   S    
O35   Zn15  S    
O34   Zn15  S    
C84   H20   S    
C102  O41   A    
C85   C89   D    
C29   O6    A    
C89   C101  S    
C27   C32   S    
O52   Zn5   S    
C82   C100  S    
C37   H38   S    
C34   C56   S    
C9    H52   S    
O37   Zn6   S    
O36   Zn5   S    
C76   C80   D    
C91   C103  S    
O21   Zn11  S    
C21   C56   T    
O51   Zn11  S    
C11   C12   S    
C16   H68   S    
C26   C37   S    
C1    C23   S    
C6    C26   S    
C91   H13   S    
O9    Zn16  S    
C30   C36   S    
C10   H50   S    
O1    Zn16  S    
C81   H3    S    
C8    C70   S    
C32   C54   S    
C105  C115  S    
C101  O31   A    
O20   Zn10  S    
O22   Zn12  S    
C6    C62   S    
C19   C20   S    
C12   C14   S    
O5    Zn12  S    
C38   C43   S    
C14   H58   S    
C60   O21   A    
C22   C61   T    
C67   H46   S    
O3    Zn7   S    
C24   C64   T    
C16   C17   S    
O11   Zn3   S    
C37   C44   S    
C10   H49   S    
C35   C39   S    
C108  O47   A    
C77   H67   S    
C105  O44   A    
C18   H79   S    
C57   C106  S    
C67   C71   D    
C2    C58   S    
O10   Zn2   S    
C33   C84   S    
C79   H80   S    
O16   Zn7   S    
C47   H35   S    
O13   Zn4   S    
C4    H22   S    
C48   C84   S    
C26   C31   S    
C46   H33   S    
C27   H41   S    
C57   O18   A    
O29   Zn3   S    
C77   C81   D    
C6    C42   S    
C99   O3    A    
C86   H7    S    
C108  O38   A    
O34   Zn11  S    
O17   Zn8   S    
C111  C115  D    
C34   C47   S    
O15   Zn6   S    
C35   C46   S    
C75   C79   D    
O38   Zn7   S    
C7    H26   S    
C67   C76   S    
C19   H75   S    
C39   C48   S    
C13   C55   T    
