data_mof_unit_22795.cif
_audit_creation_date              2012-12-11T20:22:10-0500
_audit_creation_method            fapswitch 2.2
_symmetry_space_group_name_H-M    P1
_symmetry_Int_Tables_number       1
_space_group_crystal_system       triclinic
_cell_length_a                    8.226463
_cell_length_b                    17.433995
_cell_length_c                    26.975778
_cell_angle_alpha                 99.892309
_cell_angle_beta                  92.684623
_cell_angle_gamma                 81.424753
_cell_volume                      3767.84640982

loop_
_atom_site_label
_atom_site_type_symbol
_atom_type_description
_atom_site_fract_x
_atom_site_fract_y
_atom_site_fract_z
_atom_type_partial_charge
Ba1   Ba    Ba6+2 0.860160 0.462360 0.521850 1.663381
Ba2   Ba    Ba6+2 0.329680 0.537570 0.478140 1.661225
C1    C     C_3   0.624501 0.198256 0.659096 -0.356825
C2    C     C_R   0.896958 0.577597 0.180553 0.609819
C3    C     C_2   0.756148 0.551420 0.274799 -0.103416
C4    C     C_3   0.164039 0.243875 0.644994 0.310194
C5    C     C_3   0.734284 0.578755 0.330566 -0.041554
C6    C     C_1   0.986215 0.488845 0.343086 0.042570
C7    C     C_2   0.029151 0.486147 0.295484 -0.097846
C8    C     C_2   0.906006 0.516362 0.257402 0.176470
C9    C     C_R   0.022084 0.508467 0.101924 -0.148585
C10   C     C_R   0.080290 0.444373 0.126863 -0.020685
C11   C     C_R   0.178117 0.378748 0.100346 -0.048828
C12   C     C_3   0.615384 0.274852 0.638581 0.378369
C13   C     C_R   0.926668 0.575322 0.128799 -0.040390
C14   C     C_2   0.847267 0.529331 0.361954 -0.273338
C15   C     C_2   0.356462 0.484043 0.640311 -0.279452
C16   C     C_3   0.089887 0.223324 0.690644 -0.344456
C17   C     C_R   0.204491 0.438275 0.972922 0.034311
C18   C     C_R   0.024522 0.564432 0.972561 -0.033350
C19   C     C_R   0.133736 0.500547 0.947215 0.047013
C20   C     C_R   0.315571 0.376895 0.946239 -0.101325
C21   C     C_R   0.353459 0.376068 0.896300 -0.058131
C22   C     C_R   0.283564 0.436572 0.870417 -0.015431
C23   C     C_3   0.490003 0.663916 0.634428 0.298195
C24   C     C_R   0.172603 0.498993 0.895690 -0.120450
C25   C     C_R   0.100700 0.559761 0.869472 -0.106481
C26   C     C_R   0.155136 0.560730 0.820326 0.592141
C27   C     C_R   0.322179 0.435542 0.819654 0.590735
C28   C     C_3   0.216065 0.293434 0.405629 0.340169
C29   C     C_2   0.462185 0.484571 0.728703 -0.073895
C30   C     C_3   0.504550 0.490429 0.675292 -0.070437
C31   C     C_1   0.210460 0.516428 0.657300 0.048548
C32   C     C_2   0.171070 0.515539 0.704383 -0.091550
C33   C     C_2   0.302853 0.497761 0.743142 0.206885
C34   C     C_3   0.474183 0.693978 0.690589 -0.364440
C35   C     C_R   0.162356 0.439401 0.024104 0.034840
C36   C     C_R   0.059453 0.505539 0.050117 0.051267
C37   C     C_R   0.993627 0.568760 0.024790 -0.003732
C38   C     C_R   0.219167 0.376398 0.050465 -0.100265
C39   C     C_R   0.864290 0.638892 0.103570 0.442748
C40   C     C_3   0.208944 0.205935 0.388639 0.168134
C41   C     C_R   0.945526 0.621072 0.944234 -0.079850
C42   C     C_R   0.978622 0.618461 0.893752 0.417044
C43   C     C_R   0.899441 0.635127 0.052755 -0.157765
C44   C     C_2   0.446799 0.279979 0.514536 -0.190207
C45   C     C_3   0.990831 0.720068 0.348510 0.529023
C46   C     C_3   0.377420 0.230200 0.546685 -0.077971
C47   C     C_2   0.428258 0.143692 0.530316 -0.041141
C48   C     C_2   0.557606 0.116984 0.499787 0.042047
C49   C     C_2   0.636946 0.174963 0.477881 -0.075146
C50   C     C_1   0.574399 0.250527 0.485573 0.074818
C51   C     C_R   0.793204 0.863381 0.474608 -0.112883
C52   C     C_3   0.974827 0.701993 0.588518 0.307525
C53   C     C_R   0.850291 0.782806 0.467476 0.031506
C54   C     C_R   0.618044 0.760100 0.511862 0.035428
C55   C     C_R   0.560842 0.840627 0.519775 -0.100905
C56   C     C_3   0.961516 0.759961 0.302129 0.201049
C57   C     C_R   0.646360 0.892786 0.500532 0.050008
C58   C     C_2   0.619214 0.031626 0.486019 -0.048648
C59   C     C_2   0.588389 0.977898 0.513438 -0.061351
C60   C     C_R   0.758539 0.731142 0.483926 -0.271831
C61   C     C_3   0.944235 0.790815 0.604636 -0.377207
C62   C     C_3   0.694537 0.363780 0.369160 0.294335
C63   C     C_3   0.701051 0.343829 0.312103 -0.354097
C64   C     C_3   0.467857 0.745482 0.365761 0.336809
C65   C     C_3   0.416821 0.820346 0.343467 0.197890
C66   C     C_R   0.038365 0.446531 0.177634 0.596907
H1    H     H_    0.678315 0.261379 0.601837 0.049377
H2    H     H_    0.582865 0.325432 0.296517 0.136291
H3    H     H_    0.484248 0.299604 0.633913 -0.094378
H4    H     H_    0.368232 0.649834 0.619296 0.028890
H5    H     H_    0.582336 0.609996 0.628569 0.033605
H6    H     H_    0.389013 0.750312 0.697038 0.141783
H7    H     H_    0.424256 0.650789 0.709166 0.075414
H8    H     H_    0.596387 0.703630 0.707664 0.130010
H9    H     H_    0.555347 0.208502 0.694565 0.134646
H10   H     H_    0.176694 0.230717 0.723339 0.092227
H11   H     H_    0.053448 0.658711 0.337846 0.031640
H12   H     H_    0.268537 0.186161 0.351578 0.074470
H13   H     H_    0.855816 0.738810 0.279608 0.084989
H14   H     H_    0.928222 0.824451 0.314073 0.074046
H15   H     H_    0.603659 0.736427 0.368591 -0.045875
H16   H     H_    0.418477 0.753931 0.404255 0.088443
H17   H     H_    0.179619 0.307190 0.653136 0.026570
H18   H     H_    0.154551 0.463925 0.284324 0.140541
H19   H     H_    0.224855 0.328432 0.118297 0.122910
H20   H     H_    0.561133 0.475490 0.756081 0.102705
H21   H     H_    0.439815 0.327523 0.878013 0.121129
H22   H     H_    0.378083 0.328610 0.963030 0.071196
H23   H     H_    0.077981 0.196247 0.384622 0.069473
H24   H     H_    0.294091 0.323178 0.033414 0.071019
H25   H     H_    0.658733 0.570742 0.249289 0.126959
H26   H     H_    0.849159 0.666789 0.959357 0.107348
H27   H     H_    0.285286 0.206601 0.639211 -0.028549
H28   H     H_    0.043776 0.529652 0.715508 0.122669
H29   H     H_    0.853977 0.686751 0.036406 0.064952
H30   H     H_    0.828443 0.540906 0.402244 0.080764
H31   H     H_    0.369873 0.453537 0.601827 0.069807
H32   H     H_    0.742934 0.154199 0.454122 0.069859
H33   H     H_    0.868133 0.902630 0.462732 0.064528
H34   H     H_    0.062447 0.687812 0.557210 0.072068
H35   H     H_    0.360896 0.104442 0.545437 0.050645
H36   H     H_    0.973492 0.262882 0.700299 0.165137
H37   H     H_    0.453331 0.862877 0.542473 0.075696
H38   H     H_    0.403978 0.342716 0.521227 0.052409
H39   H     H_    0.804473 0.668925 0.479144 0.061353
H40   H     H_    0.066215 0.161328 0.682912 0.110587
H41   H     H_    0.345644 0.303240 0.411496 -0.001836
H42   H     H_    0.148503 0.313499 0.441287 0.063781
H43   H     H_    0.270493 0.107171 0.412207 0.320954
H44   H     H_    0.858099 0.680582 0.575551 0.004122
H45   H     H_    0.849532 0.806813 0.634081 0.137628
H46   H     H_    0.596250 0.414304 0.379315 0.079192
H47   H     H_    0.754327 0.174618 0.666644 0.126630
H48   H     H_    0.721947 0.395996 0.296230 0.070074
H49   H     H_    0.571062 0.153800 0.631215 0.049080
H50   H     H_    0.868865 0.718334 0.363509 -0.329956
H51   H     H_    0.111064 0.690532 0.255263 0.323030
H52   H     H_    0.593848 0.883485 0.357923 0.294591
H53   H     H_    0.281405 0.835396 0.343524 0.163081
H54   H     H_    0.456329 0.810917 0.303683 0.074136
H55   H     H_    0.727482 0.741687 0.105447 0.302294
H56   H     H_    0.901000 0.820061 0.572175 0.051573
H57   H     H_    0.850940 0.645361 0.835901 0.324162
H58   H     H_    0.516780 0.995937 0.547206 0.054813
H59   H     H_    0.692970 0.013209 0.452620 0.086775
H60   H     H_    0.059996 0.812339 0.619856 0.125852
H61   H     H_    0.814214 0.380133 0.384026 0.006131
H62   H     H_    0.802862 0.295356 0.300822 0.131791
N1    N     N_R   0.947582 0.512961 0.204384 -0.433618
N2    N     N_R   0.259926 0.497836 0.795232 -0.425480
O1    O     O_2   0.906370 0.542040 0.619810 -0.464512
O2    O     O_2   0.188631 0.780520 0.477649 -0.487360
O3    O     O_3   0.088521 0.762883 0.383659 -0.609106
O4    O     O_3   0.138370 0.541980 0.559630 -0.494710
O5    O     O_3   0.572820 0.404940 0.471170 -0.499847
O6    O     O_2   0.345130 0.693150 0.532000 -0.462917
O7    O     O_3   0.541095 0.722438 0.611621 -0.641055
O8    O     O_2   0.421566 0.528448 0.324724 -0.490101
O9    O     O_3   0.407072 0.681539 0.335073 -0.588140
O10   O     O_2   0.081256 0.388660 0.197645 -0.594672
O11   O     O_2   0.410751 0.378897 0.797163 -0.597418
O12   O     O_3   0.662244 0.297809 0.388091 -0.631063
O13   O     O_2   0.827777 0.638204 0.204729 -0.556955
O14   O     O_2   0.114020 0.618856 0.800515 -0.569676
O15   O     O_3   0.686580 0.398330 0.583860 -0.486520
O16   O     O_2   0.847132 0.443098 0.669054 -0.478139
O17   O     O_3   0.038264 0.668052 0.629938 -0.626454
O18   O     O_3   0.694134 0.327769 0.672768 -0.582337
O19   O     O_2   0.844570 0.306830 0.467970 -0.462894
O20   O     O_3   0.101900 0.357890 0.557750 -0.476646
O21   O     O_2   0.062309 0.218619 0.504233 -0.444763
O22   O     O_3   0.290211 0.162725 0.423676 -0.751628
O23   O     O_3   0.061562 0.228176 0.602429 -0.582178
O24   O     O_3   0.102923 0.745786 0.272959 -0.693045
O25   O     O_3   0.484796 0.882985 0.372411 -0.748112
O26   O     O_3   0.766242 0.704139 0.128774 -0.659245
O27   O     O_3   0.884013 0.673206 0.869183 -0.682358
O28   O     O_2   0.283330 0.457940 0.380160 -0.458266
O29   O     O_3   0.051340 0.457960 0.440360 -0.499171
O30   O     O_3   0.503130 0.601610 0.416130 -0.478704
O31   O     O_3   0.145355 0.332480 0.367112 -0.669335
O32   O     O_3   0.616890 0.595000 0.528820 -0.481004
O33   O     O_3   0.087820 0.642040 0.442240 -0.483304
P1    P     P_3+3 0.071770 0.565500 0.613330 0.998310
P2    P     P_3+3 0.664870 0.318630 0.453960 0.983793
P3    P     P_3+3 0.150534 0.256386 0.551980 0.995172
P4    P     P_3+3 0.117940 0.434440 0.386660 0.983698
P5    P     P_3+3 0.055188 0.743445 0.443397 0.975285
P6    P     P_3+3 0.681354 0.416500 0.649901 0.990096
P7    P     P_3+3 0.531949 0.694160 0.546244 0.950887
P8    P     P_3+3 0.516491 0.594822 0.351029 0.960704

loop_
_geom_bond_atom_site_label_1
_geom_bond_atom_site_label_2
_ccdc_geom_bond_type
C55   H37   S    
C19   C24   A    
C40   H12   S    
H51   O24   S    
C66   N1    Am   
C12   H3    S    
Ba1   Ba2   S    
C31   P1    S    
C45   H11   S    
O16   P6    D    
C61   H56   S    
C51   C57   A    
C64   O9    S    
C10   C11   A    
C10   C66   A    
C24   C25   A    
C4    H17   S    
C28   H42   S    
C17   C19   A    
C32   H28   S    
C40   H23   S    
C35   C38   A    
C56   H14   S    
C50   P2    S    
C36   C37   A    
C55   C57   A    
C27   N2    Am   
C52   C61   S    
Ba1   P2    S    
C63   H2    S    
C27   O11   D    
C53   C60   A    
C44   C50   D    
C49   H32   S    
C41   H26   S    
C54   C55   A    
Ba1   O20   S    
C32   C33   S    
O3    P5    S    
C22   C27   A    
C11   C38   A    
C34   H8    S    
C64   H15   S    
C8    N1    S    
C9    C13   A    
C25   C42   A    
C45   H50   S    
O18   P6    S    
Ba1   O32   S    
C51   H33   S    
C6    C7    D    
O28   P4    D    
C21   H21   S    
C66   O10   D    
C59   H58   S    
C52   O17   S    
Ba1   O4    S    
C17   C35   A    
C7    C8    S    
C53   P5    S    
C23   H5    S    
C4    O23   S    
C37   C43   A    
O29   P4    S    
C64   C65   S    
Ba1   O29   S    
C6    C14   D    
C54   P7    S    
O9    P8    S    
C11   H19   S    
C15   C31   D    
C28   O31   S    
Ba1   O1    S    
C65   H53   S    
Ba2   O29   S    
O20   P3    S    
O15   P6    S    
C63   H62   S    
C2    N1    Am   
C51   C53   A    
C4    C16   S    
C44   C46   S    
C57   C59   S    
C62   H46   S    
O12   P2    S    
O6    P7    D    
C49   C50   D    
Ba2   O6    S    
C17   C20   A    
C13   C39   A    
C56   H13   S    
Ba2   O32   S    
C3    C5    S    
C18   C37   A    
O8    P8    D    
C60   H39   S    
C28   H41   S    
Ba2   O4    S    
C58   C59   D    
C26   N2    Am   
C9    C36   A    
C41   C42   A    
C35   C36   A    
C34   H7    S    
C7    H18   S    
C29   C30   S    
C46   P3    S    
O23   P3    S    
C16   H10   S    
O30   P8    S    
C12   O18   S    
Ba2   P4    S    
C48   C49   S    
C20   H22   S    
C52   H44   S    
O7    P7    S    
C65   O25   S    
C23   H4    S    
C16   H36   S    
C38   H24   S    
C15   H31   S    
Ba2   O33   S    
C1    C12   S    
C56   O24   S    
C46   C47   S    
C40   O22   S    
C30   P6    S    
C4    H27   S    
O21   P3    D    
H52   O25   S    
C12   H1    S    
C54   C60   A    
O32   P7    S    
C1    H9    S    
C65   H54   S    
O5    P2    S    
C18   C41   A    
Ba1   O5    S    
C6    P4    S    
O33   P5    S    
C15   C30   S    
C34   H6    S    
C29   H20   S    
C45   O3    S    
C23   C34   S    
Ba2   O5    S    
C52   H34   S    
C58   H59   S    
C5    C14   S    
O17   P1    S    
C61   H60   S    
C22   C24   A    
C47   H35   S    
C3    H25   S    
C9    C10   A    
H57   O27   S    
H55   O26   S    
C62   H61   S    
C62   O12   S    
C26   O14   D    
C48   C58   S    
C62   C63   S    
C2    C13   A    
C23   O7    S    
C3    C8    D    
C1    H47   S    
O1    P1    D    
C45   C56   S    
C14   H30   S    
O4    P1    S    
Ba1   P1    S    
O19   P2    D    
C2    O13   D    
C5    P8    S    
C63   H48   S    
C31   C32   D    
Ba1   O19   S    
C29   C33   D    
O31   P4    S    
H43   O22   S    
C16   H40   S    
Ba1   O15   S    
C44   H38   S    
C21   C22   A    
C64   H16   S    
C39   O26   S    
C61   H45   S    
C18   C19   A    
Ba2   O28   S    
C47   C48   D    
O2    P5    D    
C25   C26   A    
C42   O27   S    
C39   C43   A    
C20   C21   A    
C28   C40   S    
C43   H29   S    
C1    H49   S    
C33   N2    S    
Ba2   O30   S    
