data_mof_unit_38411.cif
_audit_creation_date              2012-12-10T17:33:01-0500
_audit_creation_method            fapswitch 2.2
_symmetry_space_group_name_H-M    P1
_symmetry_Int_Tables_number       1
_space_group_crystal_system       triclinic
_cell_length_a                    12.471387
_cell_length_b                    13.261799
_cell_length_c                    14.236854
_cell_angle_alpha                 95.443178
_cell_angle_beta                  108.431253
_cell_angle_gamma                 116.946517
_cell_volume                      1910.78238724

loop_
_atom_site_label
_atom_site_type_symbol
_atom_type_description
_atom_site_fract_x
_atom_site_fract_y
_atom_site_fract_z
_atom_type_partial_charge
C1    C     C_R   0.649030 0.714192 0.506910 0.891842
C2    C     C_R   0.823865 0.462461 0.911321 0.029554
C3    C     C_R   0.763478 0.459641 0.981145 0.020694
C4    C     C_R   0.927116 0.437294 0.934593 -0.051394
C5    C     C_R   0.991408 0.441637 0.037944 -0.043365
C6    C     C_R   0.924913 0.428259 0.104628 0.431365
C7    C     C_R   0.809758 0.435865 0.075288 0.268728
C8    C     C_R   0.965013 0.403029 0.858246 0.447777
C9    C     C_R   0.074180 0.388154 0.888502 -0.208643
C10   C     C_R   0.151095 0.413573 0.992464 -0.050534
C11   C     C_R   0.115463 0.448561 0.068763 0.060185
C12   C     C_R   0.616519 0.514163 0.686971 0.868913
C13   C     C_R   0.265610 0.407596 0.020596 -0.139916
C14   C     C_R   0.347674 0.437806 0.124030 0.394683
C15   C     C_R   0.208522 0.495715 0.172457 0.382522
C16   C     C_R   0.161728 0.949766 0.402856 -0.109971
C17   C     C_R   0.255000 0.158924 0.474179 -0.143334
C18   C     C_R   0.724142 0.928540 0.563820 0.340876
C19   C     C_R   0.829179 0.046168 0.597038 0.369691
C20   C     C_R   0.933622 0.074375 0.568227 -0.132953
C21   C     C_R   0.935729 0.988993 0.502553 0.060232
C22   C     C_R   0.831212 0.870622 0.470314 -0.011016
C23   C     C_R   0.347023 0.284453 0.487417 0.838319
C24   C     C_R   0.042054 0.016645 0.472214 0.085555
C25   C     C_R   0.046415 0.925259 0.416360 0.072049
C26   C     C_R   0.936500 0.810961 0.375861 0.413795
C27   C     C_R   0.827255 0.786827 0.398181 -0.226821
C28   C     C_R   0.144274 0.132839 0.495277 -0.222770
C29   C     C_R   0.268153 0.064887 0.435891 0.389192
C30   C     C_R   0.732841 0.838901 0.510455 -0.155322
C31   C     C_R   0.263694 0.700542 0.657710 0.313179
C32   C     C_R   0.651347 0.331531 0.367144 0.591498
C33   C     C_R   0.723461 0.281895 0.352791 -0.182195
C34   C     C_R   0.384047 0.487033 0.312651 0.832795
C35   C     C_R   0.858265 0.339423 0.408459 0.325958
C36   C     C_R   0.927054 0.457391 0.471884 -0.090219
C37   C     C_R   0.847740 0.501639 0.494248 0.031449
C38   C     C_R   0.069697 0.529738 0.520188 -0.093956
C39   C     C_R   0.129360 0.641387 0.590426 -0.160886
C40   C     C_R   0.053496 0.691158 0.592761 0.398789
C41   C     C_R   0.919663 0.619030 0.564131 0.318215
C42   C     C_R   0.158406 0.501846 0.498359 0.071401
C43   C     C_R   0.342951 0.661181 0.639421 0.491981
C44   C     C_R   0.671990 0.507013 0.792382 -0.077567
C45   C     C_R   0.315632 0.476360 0.202206 -0.274050
C46   C     C_R   0.656023 0.478411 0.953780 -0.059860
C47   C     C_R   0.609226 0.499462 0.859395 -0.186130
C48   C     C_R   0.782657 0.495122 0.821811 -0.054807
Cu1   Cu    Cu3+1 0.416420 0.526630 0.522910 1.072110
Cu2   Cu    Cu3+1 0.583580 0.473370 0.477090 1.072119
H1    H     H_    0.293047 0.380964 0.961816 0.174123
H2    H     H_    0.170542 0.879149 0.368046 0.236484
H3    H     H_    0.137341 0.205387 0.526842 0.196853
H4    H     H_    0.013574 0.164423 0.601568 0.171442
H5    H     H_    0.739281 0.701504 0.358086 0.142481
H6    H     H_    0.126454 0.434325 0.431149 0.226973
H7    H     H_    0.672853 0.195319 0.298922 0.231171
H8    H     H_    0.100874 0.359025 0.830312 0.153550
H9    H     H_    0.605916 0.475612 0.003983 0.213915
H10   H     H_    0.523255 0.508458 0.838525 0.175669
H11   H     H_    0.838001 0.514435 0.774715 0.230845
N1    N     N_R   0.290690 0.566960 0.557640 -0.261424
N2    N     N_R   0.709100 0.433710 0.442970 -0.233925
O1    O     O_R   0.545970 0.684450 0.528810 -0.476827
O2    O     O_R   0.687130 0.639470 0.490120 -0.579051
O3    O     O_R   0.519670 0.535100 0.660030 -0.554817
O4    O     O_R   0.660830 0.490120 0.621340 -0.535459
O5    O     O_R   0.312870 0.360530 0.509880 -0.602193
O6    O     O_R   0.454030 0.315550 0.471190 -0.504612
O7    O     O_R   0.339170 0.509880 0.378660 -0.529736
O8    O     O_R   0.480330 0.464900 0.339970 -0.553364
Cl1   Cl    Cl    0.721408 0.412046 0.154835 -0.621959
Cl2   Cl    Cl    0.415120 0.083625 0.431105 -0.512388
O9    O     O_3   0.937153 0.724488 0.314020 -0.705854
H12   H     H_    0.854639 0.648503 0.295536 0.352404
O10   O     O_3   0.613870 0.899340 0.583720 -0.646375
H13   H     H_    0.599297 0.966866 0.585690 0.367480
O11   O     O_3   0.837384 0.135251 0.662770 -0.713025
H14   H     H_    0.786131 0.100699 0.703769 0.363927
Cl3   Cl    Cl    0.512001 0.738324 0.720457 -0.452492
Cl4   Cl    Cl    0.213528 0.607820 0.256186 -0.532068
Cl5   Cl    Cl    0.124173 0.846934 0.629292 -0.483558
Cl6   Cl    Cl    0.330210 0.809549 0.775155 -0.402818
Cl7   Cl    Cl    0.484146 0.256629 0.283416 -0.425824
Cl8   Cl    Cl    0.925424 0.248355 0.402796 -0.645513
Cl9   Cl    Cl    0.884204 0.676666 0.659175 -0.541908
O12   O     O_3   0.460973 0.433821 0.144906 -0.632575
H15   H     H_    0.533849 0.507380 0.198970 0.336131
O13   O     O_3   0.966515 0.394434 0.191690 -0.664683
H16   H     H_    0.929960 0.408552 0.240305 0.379613
O14   O     O_3   0.887297 0.371836 0.754421 -0.708933
H17   H     H_    0.934901 0.362832 0.713135 0.358559

loop_
_geom_bond_atom_site_label_1
_geom_bond_atom_site_label_2
_ccdc_geom_bond_type
O12   H15   S    
Cu1   O5    S    
C46   H9    S    
C17   C29   A    
C23   O6    A    
C35   C36   A    
C4    C8    A    
C15   Cl4   S    
C41   Cl9   S    
C26   C27   A    
C17   C23   S    
C31   C43   A    
C36   C37   A    
Cu2   O6    S    
C14   O12   S    
C38   C42   A    
C3    C7    A    
C38   C39   A    
C33   C35   A    
C27   H5    S    
C29   Cl2   S    
C31   Cl6   S    
C9    H8    S    
C42   H6    S    
C47   H10   S    
C13   H1    S    
C11   C15   A    
C19   C20   A    
C8    C9    A    
C1    O2    A    
C18   C30   A    
Cu2   O4    S    
C34   O7    A    
O14   H17   S    
C44   C47   A    
Cu1   O1    S    
C21   C22   A    
Cu2   N2    S    
C37   N2    A    
C14   C45   A    
C32   Cl7   S    
C12   O4    A    
Cu1   O3    S    
C40   Cl5   S    
C24   C25   A    
C20   H4    S    
O9    H12   S    
C39   C40   A    
C8    O14   S    
O11   H14   S    
C18   C19   A    
C2    C48   A    
C25   C26   A    
C12   O3    A    
C16   H2    S    
C23   O5    A    
C19   O11   S    
C2    C4    A    
Cu2   O8    S    
C34   C45   S    
O10   H13   S    
C40   C41   A    
C22   C27   A    
C15   C45   A    
C1    O1    A    
C7    Cl1   S    
C9    C10   A    
C16   C25   A    
C42   N1    A    
C46   C47   A    
C33   H7    S    
Cu1   N1    S    
C22   C30   A    
C17   C28   A    
C24   C28   A    
C32   N2    A    
C4    C5    A    
C10   C13   A    
C28   H3    S    
C5    C11   A    
C6    C7    A    
C6    O13   S    
C3    C46   A    
Cu1   O7    S    
C32   C33   A    
C36   C38   A    
C2    C3    A    
C43   Cl3   S    
C12   C44   S    
C35   Cl8   S    
C48   H11   S    
C5    C6    A    
C1    C30   S    
C26   O9    S    
C31   C39   A    
C37   C41   A    
Cu2   O2    S    
C10   C11   A    
C20   C21   A    
C16   C29   A    
Cu1   Cu2   S    
C21   C24   A    
O13   H16   S    
C13   C14   A    
C34   O8    A    
C44   C48   A    
C43   N1    A    
C18   O10   S    
