data_mof_unit_67759.cif
_audit_creation_date              2012-12-10T16:50:01-0500
_audit_creation_method            fapswitch 2.2
_symmetry_space_group_name_H-M    P1
_symmetry_Int_Tables_number       1
_space_group_crystal_system       triclinic
_cell_length_a                    8.064397
_cell_length_b                    8.52255
_cell_length_c                    10.828335
_cell_angle_alpha                 92.948204
_cell_angle_beta                  85.003814
_cell_angle_gamma                 92.078799
_cell_volume                      740.035931921

loop_
_atom_site_label
_atom_site_type_symbol
_atom_type_description
_atom_site_fract_x
_atom_site_fract_y
_atom_site_fract_z
_atom_type_partial_charge
C1    C     C_R   0.542439 0.792694 0.501099 0.813381
C2    C     C_R   0.457013 0.206929 0.502353 0.959466
C3    C     C_R   0.496450 0.479687 0.261601 0.847835
C4    C     C_R   0.185147 0.518293 0.907745 0.216756
C5    C     C_R   0.088482 0.611173 0.994248 -0.486447
C6    C     C_R   0.075635 0.566620 0.117555 0.505585
C7    C     C_R   0.179587 0.447539 0.144372 0.531108
C8    C     C_R   0.335828 0.446195 0.074914 -0.225692
C9    C     C_3   0.693712 0.761285 0.984474 -0.839723
C10   C     C_3   0.081511 0.784768 0.656002 -0.720978
C11   C     C_3   0.110653 0.244536 0.850791 -0.856797
C12   C     C_R   0.337209 0.474043 0.948468 0.011292
C13   C     C_3   0.990552 0.777021 0.239490 -0.298250
C14   C     C_3   0.204553 0.195455 0.214985 -0.327208
C15   C     C_3   0.742996 0.191276 0.130076 -0.807192
C16   C     C_3   0.629546 0.995166 0.723510 -0.370188
C17   C     C_3   0.971557 0.223155 0.567949 -0.659622
C18   C     C_R   0.490256 0.482307 0.874581 -0.161832
C19   C     C_R   0.636915 0.486992 0.934421 0.093851
C20   C     C_R   0.632058 0.421850 0.050445 0.257204
C21   C     C_R   0.486586 0.437806 0.128912 -0.170437
C22   C     C_2   0.557823 0.955076 0.526121 0.390044
C23   C     C_2   0.438586 0.043043 0.491161 -0.542546
C24   C     C_R   0.498899 0.499621 0.740128 0.838526
H1    H     H_    0.014403 0.700892 0.964060 0.213727
H2    H     H_    0.168341 0.720619 0.706259 0.264901
H3    H     H_    0.981794 0.442688 0.810648 0.230810
H4    H     H_    0.230014 0.199650 0.806197 0.254324
H5    H     H_    0.005455 0.175258 0.813626 0.224769
H6    H     H_    0.102584 0.224616 0.950966 0.232591
H7    H     H_    0.992164 0.855294 0.160260 0.129851
H8    H     H_    0.111623 0.787034 0.282049 0.160250
H9    H     H_    0.893007 0.819292 0.310557 0.214055
H10   H     H_    0.328367 0.198227 0.252043 0.165444
H11   H     H_    0.215270 0.152988 0.116206 0.135974
H12   H     H_    0.332935 0.994169 0.444319 0.130530
H13   H     H_    0.126898 0.106542 0.266562 0.161057
H14   H     H_    0.873307 0.353677 0.023061 0.242415
H15   H     H_    0.861359 0.141847 0.152773 0.242014
H16   H     H_    0.691047 0.114901 0.055628 0.214344
H17   H     H_    0.655049 0.190579 0.214745 0.238816
H18   H     H_    0.606752 0.869023 0.743239 0.160740
H19   H     H_    0.516178 0.063240 0.752284 0.162663
H20   H     H_    0.729576 0.041624 0.780643 0.184436
H21   H     H_    0.914023 0.244017 0.390639 0.265062
H22   H     H_    0.984822 0.094812 0.549540 0.239980
H23   H     H_    0.781126 0.640453 0.823759 0.227302
H24   H     H_    0.852315 0.250361 0.621887 0.278572
H25   H     H_    0.070362 0.266133 0.624279 0.266902
H26   H     H_    0.783579 0.859603 0.962144 0.220048
H27   H     H_    0.689032 0.744595 0.085751 0.284917
H28   H     H_    0.568795 0.794260 0.960469 0.228948
H29   H     H_    0.864749 0.662201 0.627193 0.259510
H30   H     H_    0.000790 0.852326 0.726717 0.190837
H31   H     H_    0.147138 0.872333 0.596200 0.252210
N1    N     N_2   0.950330 0.457950 0.466250 0.064188
N2    N     N_2   0.049670 0.542050 0.533750 0.039582
N3    N     N_2   0.746465 0.618929 0.914667 -0.314336
N4    N     N_2   0.980112 0.679966 0.582766 -0.214957
N5    N     N_2   0.098978 0.410720 0.828226 -0.259641
N6    N     N_2   0.773915 0.349453 0.088524 -0.227004
N7    N     N_2   0.987509 0.301733 0.452890 -0.152099
O1    O     O_R   0.389250 0.738570 0.508280 -0.648363
O2    O     O_3   0.129040 0.343521 0.235419 -0.570355
O3    O     O_3   0.682383 0.013569 0.597247 -0.604533
O4    O     O_R   0.678390 0.711630 0.486650 -0.611566
O5    O     O_R   0.355400 0.513470 0.694050 -0.605245
O6    O     O_R   0.644540 0.486530 0.672420 -0.678899
O7    O     O_R   0.321610 0.288370 0.513350 -0.606216
O8    O     O_R   0.610750 0.261430 0.491720 -0.595492
O9    O     O_R   0.355460 0.513470 0.327580 -0.578391
O10   O     O_R   0.644600 0.486530 0.305950 -0.541367
O11   O     O_3   0.951268 0.619672 0.203466 -0.540467
Zn1   Zn    Zn3+2 0.306930 0.517990 0.514440 0.984010
Zn2   Zn    Zn3+2 0.693070 0.482010 0.485560 0.985013

loop_
_geom_bond_atom_site_label_1
_geom_bond_atom_site_label_2
_ccdc_geom_bond_type
N2    Zn1   S    
C14   H10   S    
O9    Zn1   S    
C3    O9    A    
C22   O3    S    
C13   H9    S    
C6    C7    A    
C8    C21   A    
O1    Zn1   S    
C17   N7    S    
C4    C12   A    
C2    O7    A    
C16   H20   S    
C13   H8    S    
C19   C20   A    
C9    H27   S    
C17   H24   S    
C8    C12   A    
H14   N6    S    
C14   O2    S    
C4    N5    S    
C3    O10   A    
C15   N6    S    
C14   H11   S    
C1    C22   S    
N1    Zn2   S    
C17   H22   S    
C14   H13   S    
C10   H31   S    
C16   H19   S    
C10   H2    S    
C9    H28   S    
O6    Zn2   S    
C11   H4    S    
C20   N6    S    
O10   Zn2   S    
C18   C24   S    
O4    Zn2   S    
C1    O1    A    
C13   O11   S    
C10   N4    S    
H3    N5    S    
C19   N3    S    
H29   N4    S    
C5    C6    A    
C10   H30   S    
N1    N7    S    
C15   H16   S    
C3    C21   S    
N2    N4    S    
C11   H5    S    
C24   O6    A    
C12   C18   A    
C11   N5    S    
C16   H18   S    
H21   N7    S    
O7    Zn1   S    
C7    O2    S    
C18   C19   A    
N1    N2    D    
C15   H17   S    
C6    O11   S    
C23   H12   S    
C17   H25   S    
C2    C23   S    
O5    Zn1   S    
C7    C8    A    
C22   C23   D    
C9    N3    S    
O8    Zn2   S    
C16   O3    S    
C24   O5    A    
C20   C21   A    
C2    O8    A    
C13   H7    S    
C9    H26   S    
C15   H15   S    
C11   H6    S    
C4    C5    A    
H23   N3    S    
C5    H1    S    
C1    O4    A    
