data_mof_unit_26476.cif
_audit_creation_date              2012-10-26T18:49:07-0400
_audit_creation_method            fapswitch 2.2
_symmetry_space_group_name_H-M    P1
_symmetry_Int_Tables_number       1
_space_group_crystal_system       triclinic
_cell_length_a                    10.753777
_cell_length_b                    10.920974
_cell_length_c                    9.680123
_cell_angle_alpha                 90.093407
_cell_angle_beta                  89.882149
_cell_angle_gamma                 90.183684
_cell_volume                      1136.8405399

loop_
_atom_site_label
_atom_site_type_symbol
_atom_type_description
_atom_site_fract_x
_atom_site_fract_y
_atom_site_fract_z
_atom_type_partial_charge
C1    C     C_R   0.501346 0.265354 0.499966 0.550997
C2    C     C_2   0.414438 0.446607 0.077706 -0.031070
C3    C     C_R   0.259988 0.498644 0.500488 0.589207
C4    C     C_R   0.497615 0.734640 0.500197 0.569074
C5    C     C_R   0.740138 0.498181 0.500112 0.603505
C6    C     C_3   0.071436 0.469769 0.648793 -0.204686
C7    C     C_3   0.928328 0.477242 0.651239 0.143197
C8    C     C_3   0.072397 0.624265 0.447450 0.183384
C9    C     C_3   0.072313 0.395813 0.405551 -0.314910
C10   C     C_3   0.122344 0.498946 0.502092 -0.016670
C11   C     C_3   0.349905 0.238492 0.893423 -0.009869
C12   C     C_3   0.878263 0.498773 0.501199 0.060426
C13   C     C_3   0.263959 0.158894 0.806361 -0.377043
C14   C     C_3   0.867851 0.371974 0.850113 -0.009047
C15   C     C_3   0.820402 0.249634 0.903711 -0.368032
C16   C     C_3   0.098741 0.770491 0.634272 0.040484
C17   C     C_3   0.213225 0.793311 0.722542 -0.396579
C18   C     C_3   0.810315 0.806431 0.430853 -0.011619
C19   C     C_3   0.899264 0.889386 0.350373 -0.383212
C20   C     C_3   0.926776 0.623938 0.443114 0.135626
C21   C     C_3   0.928617 0.394221 0.407131 -0.285783
C22   C     C_2   0.495457 0.932871 0.386470 -0.168194
C23   C     C_2   0.491860 0.866630 0.502751 -0.121309
C24   C     C_2   0.491704 0.066938 0.386868 -0.167217
C25   C     C_2   0.506900 0.133436 0.502054 -0.126981
C26   C     C_2   0.422279 0.434156 0.921447 0.351745
Cu1   Cu    Cu3+1 0.500030 0.500020 0.638630 0.988841
Cu2   Cu    Cu3+1 0.499970 0.499980 0.361370 0.912628
H1    H     H_    0.111613 0.529884 0.729654 0.106809
H2    H     H_    0.899440 0.557572 0.714957 0.120059
H3    H     H_    0.105393 0.409940 0.297686 0.118700
H4    H     H_    0.894835 0.303756 0.444665 0.170672
H5    H     H_    0.899648 0.625425 0.331463 0.069118
H6    H     H_    0.324286 0.224824 0.003705 0.099327
H7    H     H_    0.447348 0.207270 0.876163 0.131453
H8    H     H_    0.285306 0.170930 0.694923 0.161768
H9    H     H_    0.276697 0.061160 0.834129 0.086645
H10   H     H_    0.165548 0.184642 0.825430 0.145688
H11   H     H_    0.555172 0.561388 0.895067 0.155448
H12   H     H_    0.893862 0.404961 0.299610 0.106386
H13   H     H_    0.578806 0.528161 0.105823 0.188053
H14   H     H_    0.800064 0.443862 0.881196 0.128757
H15   H     H_    0.959653 0.391350 0.898655 0.114942
H16   H     H_    0.886492 0.175715 0.875436 0.145987
H17   H     H_    0.811345 0.253281 0.017962 0.087185
H18   H     H_    0.727887 0.228863 0.858278 0.160320
H19   H     H_    0.035801 0.708480 0.690241 0.138679
H20   H     H_    0.049506 0.859127 0.624145 0.168257
H21   H     H_    0.272773 0.863941 0.673383 0.151659
H22   H     H_    0.184573 0.826722 0.826196 0.078148
H23   H     H_    0.100199 0.625468 0.336467 0.112445
H24   H     H_    0.266857 0.707665 0.735430 0.192378
H25   H     H_    0.752555 0.865971 0.497924 0.154037
H26   H     H_    0.745407 0.758509 0.359340 0.140009
H27   H     H_    0.959361 0.834902 0.280307 0.146788
H28   H     H_    0.844707 0.954609 0.287031 0.093495
H29   H     H_    0.958502 0.942700 0.422479 0.162569
H30   H     H_    0.107961 0.305080 0.439364 0.131402
H31   H     H_    0.500001 0.887968 0.286375 0.144768
H32   H     H_    0.483488 0.907653 0.603975 0.088417
H33   H     H_    0.477166 0.111683 0.288061 0.141580
H34   H     H_    0.525382 0.092899 0.601704 0.092710
H35   H     H_    0.334214 0.407212 0.129313 0.137912
H36   H     H_    0.101353 0.375745 0.677926 0.174490
N1    N     N_2   0.498630 0.498660 0.846910 -0.329251
N2    N     N_2   0.498590 0.498630 0.153040 -0.380016
O1    O     O_R   0.500020 0.321960 0.617040 -0.468223
O2    O     O_3   0.878535 0.366117 0.704688 -0.558661
O3    O     O_3   0.134574 0.730452 0.500746 -0.551683
O4    O     O_3   0.874431 0.723685 0.517662 -0.592122
O5    O     O_R   0.499980 0.321920 0.382900 -0.502238
O6    O     O_R   0.317710 0.500000 0.617070 -0.459991
O7    O     O_R   0.317670 0.499960 0.382930 -0.506680
O8    O     O_R   0.500020 0.678080 0.617100 -0.511898
O9    O     O_R   0.499980 0.678040 0.382960 -0.492924
O10   O     O_R   0.682330 0.500040 0.617070 -0.468226
O11   O     O_R   0.682290 0.500000 0.382930 -0.534093
O12   O     O_3   0.335415 0.361963 0.853789 -0.527946

loop_
_geom_bond_atom_site_label_1
_geom_bond_atom_site_label_2
_ccdc_geom_bond_type
C19   H28   S    
C18   O4    S    
C24   H33   S    
C16   H20   S    
C19   H29   S    
C8    O3    S    
C26   O12   S    
C15   H16   S    
C18   C19   S    
C17   H24   S    
C9    H30   S    
C6    H36   S    
C4    O9    A    
C18   H25   S    
C7    O2    S    
C16   C17   S    
Cu1   O8    S    
C9    C10   S    
C4    O8    A    
C14   H14   S    
C7    H2    S    
C1    C25   S    
H11   N1    S    
C20   O4    S    
C7    C12   S    
Cu2   O7    S    
C16   H19   S    
C23   H32   S    
C21   H4    S    
C24   C25   D    
C5    C12   S    
C17   H21   S    
C22   H31   S    
C4    C23   S    
C9    H3    S    
C12   C21   S    
Cu2   N2    S    
Cu1   N1    S    
C11   O12   S    
C12   C20   S    
C2    C26   S    
C8    C20   S    
Cu2   O11   S    
C8    H23   S    
C13   H10   S    
H13   N2    S    
C13   H8    S    
C20   H5    S    
C22   C24   S    
Cu2   O5    S    
C15   H17   S    
C5    O11   A    
Cu1   O10   S    
C2    H35   S    
C19   H27   S    
C22   C23   D    
C26   N1    D    
C13   H9    S    
C11   H6    S    
C16   O3    S    
C2    N2    D    
C17   H22   S    
C6    C10   S    
C6    C7    S    
C5    O10   A    
C11   H7    S    
C3    O6    A    
C3    C10   S    
C11   C13   S    
C9    C21   S    
C21   H12   S    
C1    O5    A    
C1    O1    A    
C25   H34   S    
C3    O7    A    
Cu1   O1    S    
C18   H26   S    
C6    H1    S    
C8    C10   S    
Cu1   Cu2   S    
C14   O2    S    
C14   C15   S    
C15   H18   S    
Cu2   O9    S    
Cu1   O6    S    
C14   H15   S    
