data_mof_unit_48932.cif
_audit_creation_date              2012-12-10T20:28:46-0500
_audit_creation_method            fapswitch 2.2
_symmetry_space_group_name_H-M    P1
_symmetry_Int_Tables_number       1
_space_group_crystal_system       triclinic
_cell_length_a                    10.708324
_cell_length_b                    10.669206
_cell_length_c                    9.836532
_cell_angle_alpha                 89.777329
_cell_angle_beta                  90.817246
_cell_angle_gamma                 90.051924
_cell_volume                      1123.69382789

loop_
_atom_site_label
_atom_site_type_symbol
_atom_type_description
_atom_site_fract_x
_atom_site_fract_y
_atom_site_fract_z
_atom_type_partial_charge
C1    C     C_R   0.499373 0.260078 0.500214 0.920102
C2    C     C_R   0.574995 0.935991 0.401465 -0.212133
C3    C     C_R   0.509825 0.871431 0.502120 -0.054086
C4    C     C_R   0.260889 0.514237 0.499633 0.894865
C5    C     C_R   0.455619 0.934712 0.609311 0.059967
C6    C     C_3   0.325411 0.922695 0.659845 -0.566362
C7    C     C_3   0.320165 0.064964 0.657639 0.315451
C8    C     C_R   0.398753 0.456405 0.070087 0.208136
C9    C     C_R   0.594047 0.555043 0.073275 -0.136936
C10   C     C_R   0.593757 0.555498 0.929111 -0.153715
C11   C     C_R   0.399005 0.456043 0.927326 0.233927
C12   C     C_R   0.065558 0.547943 0.624793 0.103093
C13   C     C_3   0.347988 0.326362 0.921970 -0.525131
C14   C     C_3   0.346224 0.327252 0.076232 -0.501246
C15   C     C_R   0.501879 0.739772 0.499924 0.873811
C16   C     C_R   0.740658 0.492676 0.501989 0.872890
C17   C     C_R   0.122878 0.599563 0.742768 -0.164368
C18   C     C_R   0.068215 0.585579 0.869542 -0.152544
C19   C     C_R   0.956609 0.520165 0.880313 -0.172983
C20   C     C_R   0.894151 0.479637 0.763059 -0.188469
C21   C     C_R   0.942564 0.505278 0.632101 0.109038
C22   C     C_3   0.116331 0.122147 0.610807 0.084556
C23   C     C_R   0.128222 0.532214 0.500487 -0.134620
C24   C     C_3   0.024301 0.155479 0.496249 -0.306506
C25   C     C_3   0.890338 0.160939 0.546987 -0.973739
C26   C     C_R   0.062526 0.509521 0.379752 -0.235855
C27   C     C_R   0.936073 0.492846 0.382844 -0.228946
C28   C     C_R   0.874957 0.490276 0.507495 -0.115088
C29   C     C_R   0.452318 0.062690 0.608581 0.045914
C30   C     C_R   0.506090 0.128191 0.501718 -0.044621
C31   C     C_R   0.573338 0.065610 0.401453 -0.237783
H1    H     H_    0.108959 0.500971 0.283037 0.168169
H2    H     H_    0.209912 0.650858 0.738043 0.150765
H3    H     H_    0.114624 0.621639 0.959750 0.131776
H4    H     H_    0.917348 0.502315 0.979373 0.130141
H5    H     H_    0.811286 0.424029 0.778072 0.165856
H6    H     H_    0.886679 0.479521 0.287046 0.165441
H7    H     H_    0.620916 0.116460 0.321863 0.156443
H8    H     H_    0.623110 0.886688 0.321617 0.158559
H9    H     H_    0.261457 0.876568 0.585149 0.207783
H10   H     H_    0.114555 0.197704 0.688623 0.136437
H11   H     H_    0.086305 0.031916 0.657771 0.142206
H12   H     H_    0.323041 0.882690 0.764282 0.167231
H13   H     H_    0.050116 0.247834 0.452545 0.236145
H14   H     H_    0.029915 0.084098 0.414549 0.224698
H15   H     H_    0.859654 0.066718 0.581526 0.268721
H16   H     H_    0.827196 0.192632 0.463228 0.259137
H17   H     H_    0.883046 0.227825 0.632600 0.261339
H18   H     H_    0.311920 0.108123 0.759739 0.061697
H19   H     H_    0.671044 0.597425 0.128680 0.146446
H20   H     H_    0.670046 0.598930 0.875659 0.159575
H21   H     H_    0.253272 0.323202 0.874330 0.205056
H22   H     H_    0.416808 0.259114 0.880751 0.208704
H23   H     H_    0.250305 0.326198 0.118004 0.200142
H24   H     H_    0.411918 0.258705 0.123686 0.224783
N1    N     N_R   0.499160 0.499140 0.142800 -0.106790
N2    N     N_R   0.499160 0.499180 0.857150 -0.111979
O1    O     O_R   0.500020 0.316790 0.614690 -0.628510
O2    O     O_R   0.500000 0.316760 0.385350 -0.621007
O3    O     O_R   0.316770 0.500020 0.614690 -0.622004
O4    O     O_R   0.316760 0.499980 0.385350 -0.616807
O5    O     O_R   0.500000 0.683240 0.614650 -0.619609
O6    O     O_R   0.499980 0.683210 0.385310 -0.622597
O7    O     O_R   0.683240 0.500020 0.614650 -0.635390
O8    O     O_R   0.683230 0.499980 0.385310 -0.628876
O9    O     O_3   0.237260 0.111960 0.556574 -0.619051
Zn1   Zn    Zn3+2 0.500010 0.500020 0.653130 0.936659
Zn2   Zn    Zn3+2 0.499990 0.499980 0.346870 0.942096

loop_
_geom_bond_atom_site_label_1
_geom_bond_atom_site_label_2
_ccdc_geom_bond_type
C12   C17   A    
C16   C28   S    
N1    Zn2   S    
C26   H1    S    
C29   C30   A    
C7    C29   S    
C12   C21   A    
C2    C3    A    
O2    Zn2   S    
C13   H21   S    
C11   C13   S    
C9    C10   A    
C25   H16   S    
C13   H22   S    
C19   C20   A    
O4    Zn2   S    
C31   H7    S    
C30   C31   A    
O8    Zn2   S    
C10   H20   S    
C8    N1    A    
C14   H24   S    
C7    H18   S    
C9    N1    A    
C19   H4    S    
C13   C14   S    
C24   C25   S    
C7    O9    S    
C18   H3    S    
C12   C23   A    
C4    O3    A    
C26   C27   A    
C22   H11   S    
C17   H2    S    
O5    Zn1   S    
N2    Zn1   S    
C8    C11   A    
C24   H14   S    
C25   H15   S    
C1    C30   S    
C14   H23   S    
C21   C28   A    
C27   H6    S    
C17   C18   A    
C6    C7    S    
C5    C29   A    
C6    H12   S    
C1    O2    A    
C5    C6    S    
C24   H13   S    
C22   C24   S    
C22   H10   S    
C2    H8    S    
C20   H5    S    
O7    Zn1   S    
C1    O1    A    
O1    Zn1   S    
C6    H9    S    
C3    C15   S    
C20   C21   A    
C10   N2    A    
C18   C19   A    
C23   C26   A    
C27   C28   A    
C4    C23   S    
C15   O6    A    
O6    Zn2   S    
C22   O9    S    
C8    C14   S    
C16   O8    A    
C16   O7    A    
C11   N2    A    
C25   H17   S    
C4    O4    A    
C15   O5    A    
C9    H19   S    
O3    Zn1   S    
C2    C31   A    
C3    C5    A    
