data_mof_unit_9274.cif
_audit_creation_date              2012-12-10T20:21:46-0500
_audit_creation_method            fapswitch 2.2
_symmetry_space_group_name_H-M    P1
_symmetry_Int_Tables_number       1
_space_group_crystal_system       triclinic
_cell_length_a                    19.335629
_cell_length_b                    18.452202
_cell_length_c                    8.919021
_cell_angle_alpha                 89.996422
_cell_angle_beta                  90.000628
_cell_angle_gamma                 89.999918
_cell_volume                      3182.17229553

loop_
_atom_site_label
_atom_site_type_symbol
_atom_type_description
_atom_site_fract_x
_atom_site_fract_y
_atom_site_fract_z
_atom_type_partial_charge
C1    C     C_R   0.365641 0.500000 0.499947 0.861425
C2    C     C_R   0.530393 0.197772 0.618029 -0.121787
C3    C     C_R   0.499998 0.841347 0.499994 0.308315
C4    C     C_R   0.500002 0.158639 0.500002 0.308354
C5    C     C_R   0.436872 0.961713 0.487295 0.296128
C6    C     C_R   0.563278 0.038269 0.491380 0.295943
C7    C     C_R   0.563130 0.961710 0.512697 0.296030
C8    C     C_R   0.436727 0.038270 0.508624 0.295916
C9    C     C_R   0.500003 0.077191 0.500003 -0.281694
C10   C     C_R   0.500000 0.922792 0.499995 -0.281668
C11   C     C_R   0.500001 0.500001 0.218386 0.945013
C12   C     C_R   0.634358 0.500000 0.500054 0.861428
C13   C     C_R   0.499999 0.499998 0.781614 0.945009
C14   C     C_1   0.500000 0.500001 0.065306 -0.192702
C15   C     C_1   0.499999 0.499997 0.934694 -0.192704
C16   C     C_R   0.745611 0.434118 0.499064 -0.174184
C17   C     C_R   0.254390 0.565881 0.501405 -0.174420
C18   C     C_R   0.254388 0.434123 0.498438 -0.174194
C19   C     C_R   0.745612 0.565882 0.501100 -0.174428
C20   C     C_R   0.817239 0.434161 0.498976 -0.159995
C21   C     C_R   0.182762 0.565839 0.501463 -0.159934
C22   C     C_R   0.182760 0.434167 0.498385 -0.159974
C23   C     C_R   0.468398 0.726120 0.613614 0.002859
C24   C     C_R   0.817240 0.565838 0.501186 -0.159927
C25   C     C_R   0.853153 0.499999 0.500074 0.101689
C26   C     C_R   0.146842 0.500004 0.499931 0.101723
C27   C     C_R   0.709474 0.500000 0.500077 -0.045618
C28   C     C_R   0.290527 0.500001 0.499926 -0.045613
C29   C     C_R   0.964186 0.543972 0.601525 -0.165560
C30   C     C_R   0.035796 0.456037 0.398468 -0.165554
C31   C     C_R   0.035817 0.543970 0.601497 -0.165554
C32   C     C_R   0.964166 0.456029 0.398518 -0.165583
C33   C     C_R   0.071736 0.500005 0.499963 0.097857
C34   C     C_R   0.469875 0.273867 0.384520 0.002094
C35   C     C_R   0.928253 0.499999 0.500041 0.098132
C36   C     C_R   0.531600 0.726126 0.386382 0.002930
C37   C     C_R   0.530126 0.273861 0.615481 0.002347
C38   C     C_R   0.468080 0.802210 0.616120 -0.120980
C39   C     C_R   0.469610 0.197777 0.381974 -0.121818
C40   C     C_R   0.531917 0.802216 0.383870 -0.121289
H1    H     H_    0.718689 0.382637 0.498582 0.171093
H2    H     H_    0.063159 0.422520 0.318300 0.146026
H3    H     H_    0.063196 0.577488 0.681638 0.145984
H4    H     H_    0.936780 0.422503 0.318400 0.145715
H5    H     H_    0.443431 0.696328 0.702913 0.140457
H6    H     H_    0.446046 0.303634 0.293745 0.141009
H7    H     H_    0.556567 0.696338 0.297084 0.140664
H8    H     H_    0.553953 0.303624 0.706256 0.141148
H9    H     H_    0.443369 0.830388 0.708136 0.172770
H10   H     H_    0.446111 0.169601 0.288476 0.172685
H11   H     H_    0.556627 0.830398 0.291853 0.172907
H12   H     H_    0.281313 0.617359 0.502280 0.171217
H13   H     H_    0.553892 0.169591 0.711528 0.172715
H14   H     H_    0.335075 0.814990 0.318845 0.383200
H15   H     H_    0.667024 0.185535 0.331197 0.382588
H16   H     H_    0.664728 0.814609 0.680015 0.382754
H17   H     H_    0.332991 0.185516 0.668867 0.382841
H18   H     H_    0.281309 0.382643 0.497568 0.171077
H19   H     H_    0.718690 0.617362 0.501576 0.171149
H20   H     H_    0.844633 0.382941 0.499609 0.150820
H21   H     H_    0.155376 0.617064 0.501154 0.150844
H22   H     H_    0.155373 0.382944 0.498704 0.150741
H23   H     H_    0.844633 0.617057 0.500544 0.150913
H24   H     H_    0.936816 0.577496 0.681671 0.145708
N1    N     N_R   0.500000 0.689440 0.500000 -0.102904
N2    N     N_R   0.500000 0.310560 0.500000 -0.102812
O1    O     O_R   0.398180 0.560840 0.499960 -0.621533
O2    O     O_2   0.310912 0.963550 0.352102 -0.173157
O3    O     O_3   0.378157 0.843965 0.322911 -0.572532
O4    O     O_2   0.674234 0.113120 0.585890 -0.270589
O5    O     O_2   0.691040 0.036455 0.364354 -0.172365
O6    O     O_3   0.624222 0.156042 0.330894 -0.571990
O7    O     O_2   0.675315 0.886834 0.425361 -0.270487
O8    O     O_2   0.689105 0.963514 0.647855 -0.172708
O9    O     O_3   0.621846 0.843938 0.677046 -0.572468
O10   O     O_2   0.325774 0.113141 0.414146 -0.270832
O11   O     O_2   0.308965 0.036443 0.635652 -0.172347
O12   O     O_R   0.601820 0.439160 0.500040 -0.621073
O13   O     O_3   0.375791 0.156021 0.669156 -0.571896
O14   O     O_R   0.601820 0.560840 0.500040 -0.621616
O15   O     O_R   0.398180 0.439160 0.499960 -0.621059
O16   O     O_R   0.500000 0.560800 0.285330 -0.620305
O17   O     O_R   0.500000 0.439200 0.714670 -0.621086
O18   O     O_R   0.500000 0.560800 0.714670 -0.620496
O19   O     O_R   0.500000 0.439200 0.285330 -0.621251
O20   O     O_2   0.324671 0.886832 0.574575 -0.270362
S1    S     S_3+6 0.359640 0.914543 0.435389 0.088257
S2    S     S_3+6 0.641189 0.085443 0.444487 0.088601
S3    S     S_3+6 0.640362 0.914528 0.564574 0.088315
S4    S     S_3+6 0.358818 0.085440 0.555537 0.088631
Zn1   Zn    Zn3+2 0.500000 0.581210 0.500000 0.963617
Zn2   Zn    Zn3+2 0.500000 0.418790 0.500000 0.963408

loop_
_geom_bond_atom_site_label_1
_geom_bond_atom_site_label_2
_ccdc_geom_bond_type
C7    C10   A    
C21   C26   A    
C23   H5    S    
H17   O13   S    
O4    S2    D    
C34   N2    A    
C6    C9    A    
C38   H9    S    
O17   Zn2   S    
C13   O18   A    
C31   H3    S    
O8    S3    D    
C11   C14   S    
C20   C25   A    
C1    O15   A    
C7    S3    S    
C6    S2    S    
C36   H7    S    
O13   S4    S    
O15   Zn2   S    
C18   H18   S    
C3    C38   A    
C8    C9    A    
C12   O12   A    
C1    C28   S    
C31   C33   A    
C34   H6    S    
O18   Zn1   S    
C20   H20   S    
C19   C27   A    
C21   H21   S    
H15   O6    S    
O3    S1    S    
C16   C27   A    
C29   H24   S    
H16   O9    S    
C17   H12   S    
O6    S2    S    
O19   Zn2   S    
C11   O16   A    
O11   S4    D    
C12   C27   S    
C34   C39   A    
C32   C35   A    
C36   C40   A    
C18   C28   A    
C24   C25   A    
C36   N1    A    
N2    Zn2   S    
O12   Zn2   S    
C17   C21   A    
O16   Zn1   S    
C2    C4    A    
C22   H22   S    
C26   C33   S    
C4    C39   A    
C16   C20   A    
C37   N2    A    
O1    Zn1   S    
C32   H4    S    
C37   H8    S    
C25   C35   S    
C3    C40   A    
C24   H23   S    
C13   C15   S    
C8    S4    S    
C40   H11   S    
O20   S1    D    
N1    Zn1   S    
C29   C35   A    
C30   C33   A    
C18   C22   A    
C17   C28   A    
C2    H13   S    
C5    C8    A    
C6    C7    A    
C23   C38   A    
C13   O17   A    
C19   H19   S    
C23   N1    A    
O14   Zn1   S    
C19   C24   A    
O7    S3    D    
C5    C10   A    
C29   C31   A    
C3    C10   S    
C30   C32   A    
C2    C37   A    
H14   O3    S    
C11   O19   A    
C12   O14   A    
C1    O1    A    
O9    S3    S    
O5    S2    D    
C5    S1    S    
C39   H10   S    
C22   C26   A    
O2    S1    D    
C14   C15   T    
C30   H2    S    
C4    C9    S    
C16   H1    S    
O10   S4    D    
