data_mof_unit_61334.cif
_audit_creation_date              2012-10-26T19:39:11-0400
_audit_creation_method            fapswitch 2.2
_symmetry_space_group_name_H-M    P1
_symmetry_Int_Tables_number       1
_space_group_crystal_system       monoclinic
_cell_length_a                    11.771004
_cell_length_b                    13.175517
_cell_length_c                    7.580564
_cell_angle_alpha                 90.0
_cell_angle_beta                  106.959692
_cell_angle_gamma                 90.0
_cell_volume                      1124.53324587

loop_
_atom_site_label
_atom_site_type_symbol
_atom_type_description
_atom_site_fract_x
_atom_site_fract_y
_atom_site_fract_z
_atom_type_partial_charge
C1    C     C_R   0.350470 0.851900 0.456202 0.541095
C2    C     C_2   0.715684 0.758897 0.556281 -0.034995
C3    C     C_2   0.715684 0.241103 0.556281 -0.034996
C4    C     C_2   0.284316 0.758897 0.443719 -0.034995
C5    C     C_2   0.784316 0.741103 0.443719 -0.034995
C6    C     C_2   0.215684 0.258897 0.556281 -0.034995
C7    C     C_2   0.215684 0.741103 0.556281 -0.034996
C8    C     C_2   0.784316 0.258897 0.443719 -0.034995
C9    C     C_3   0.806072 0.818979 0.313022 -0.382285
C10   C     C_3   0.193928 0.181021 0.686978 -0.382285
C11   C     C_3   0.193928 0.818979 0.686978 -0.382285
C12   C     C_R   0.649530 0.148100 0.543798 0.541094
C13   C     C_3   0.806072 0.181021 0.313022 -0.382285
C14   C     C_3   0.306072 0.318979 0.313022 -0.382285
C15   C     C_3   0.693928 0.681021 0.686978 -0.382285
C16   C     C_3   0.693928 0.318979 0.686978 -0.382285
C17   C     C_3   0.306072 0.681021 0.313022 -0.382285
C18   C     C_3   0.253493 1.000000 0.965288 -0.077173
C19   C     C_3   0.746507 1.000000 0.034712 -0.077173
C20   C     C_3   0.753493 0.500000 0.965288 -0.077173
C21   C     C_3   0.246507 0.500000 0.034712 -0.077173
C22   C     C_R   0.649530 0.851900 0.543798 0.541094
C23   C     C_R   0.350470 0.148100 0.456202 0.541095
C24   C     C_R   0.850470 0.351900 0.456202 0.541095
C25   C     C_R   0.149530 0.648100 0.543798 0.541094
C26   C     C_R   0.149530 0.351900 0.543798 0.541094
C27   C     C_R   0.850470 0.648100 0.456202 0.541095
C28   C     C_2   0.284316 0.241103 0.443719 -0.034995
Cu1   Cu    Cu3+1 0.517640 1.000000 0.687200 1.015973
Cu2   Cu    Cu3+1 0.482360 1.000000 0.312800 1.015973
Cu3   Cu    Cu3+1 0.017640 0.500000 0.687200 1.015973
Cu4   Cu    Cu3+1 0.982360 0.500000 0.312800 1.015973
H1    H     H_    0.885682 0.801147 0.268080 0.122612
H2    H     H_    0.885682 0.198853 0.268080 0.122612
H3    H     H_    0.822475 0.106038 0.382546 0.136468
H4    H     H_    0.727889 0.180503 0.189038 0.182321
H5    H     H_    0.385682 0.301147 0.268080 0.122612
H6    H     H_    0.227889 0.319497 0.189039 0.182321
H7    H     H_    0.322475 0.393962 0.382547 0.136468
H8    H     H_    0.614318 0.698853 0.731920 0.122612
H9    H     H_    0.677525 0.606038 0.617453 0.136468
H10   H     H_    0.772111 0.680502 0.810961 0.182321
H11   H     H_    0.614318 0.301147 0.731920 0.122612
H12   H     H_    0.727889 0.819497 0.189039 0.182321
H13   H     H_    0.772111 0.319497 0.810961 0.182322
H14   H     H_    0.677525 0.393962 0.617453 0.136468
H15   H     H_    0.385682 0.698853 0.268080 0.122612
H16   H     H_    0.322475 0.606038 0.382546 0.136468
H17   H     H_    0.227889 0.680503 0.189038 0.182321
H18   H     H_    0.244479 0.070627 0.036105 0.144756
H19   H     H_    0.244479 0.929373 0.036105 0.144757
H20   H     H_    0.171501 1.000000 0.848323 0.055786
H21   H     H_    0.755521 0.070627 0.963895 0.144756
H22   H     H_    0.755521 0.929373 0.963895 0.144756
H23   H     H_    0.822475 0.893962 0.382547 0.136468
H24   H     H_    0.828499 1.000000 0.151677 0.055786
H25   H     H_    0.744479 0.570627 0.036105 0.144756
H26   H     H_    0.744479 0.429373 0.036105 0.144757
H27   H     H_    0.671501 0.500000 0.848323 0.055786
H28   H     H_    0.255521 0.570627 0.963895 0.144756
H29   H     H_    0.255521 0.429372 0.963895 0.144756
H30   H     H_    0.328499 0.500000 0.151677 0.055786
H31   H     H_    0.114318 0.198853 0.731920 0.122612
H32   H     H_    0.177525 0.106038 0.617453 0.136468
H33   H     H_    0.272111 0.180502 0.810961 0.182321
H34   H     H_    0.114318 0.801147 0.731920 0.122612
H35   H     H_    0.272111 0.819497 0.810961 0.182322
H36   H     H_    0.177525 0.893962 0.617453 0.136468
N1    N     N_2   0.455760 1.000000 0.031460 0.107939
N2    N     N_2   0.544240 1.000000 0.968540 0.107939
N3    N     N_2   0.955760 0.500000 0.031460 0.107939
N4    N     N_2   0.044240 0.500000 0.968540 0.107939
O1    O     O_R   0.398880 0.887420 0.621600 -0.474632
O2    O     O_R   0.630920 0.112580 0.694560 -0.542572
O3    O     O_R   0.630920 0.887420 0.694560 -0.542572
O4    O     O_R   0.369080 0.112580 0.305440 -0.542572
O5    O     O_R   0.869080 0.387420 0.305440 -0.542572
O6    O     O_R   0.130920 0.612580 0.694560 -0.542572
O7    O     O_R   0.130920 0.387420 0.694560 -0.542572
O8    O     O_R   0.869080 0.612580 0.305440 -0.542572
O9    O     O_3   0.351713 1.000000 0.894546 -0.488061
O10   O     O_3   0.648287 0.000000 0.105454 -0.488062
O11   O     O_3   0.851713 0.500000 0.894546 -0.488061
O12   O     O_R   0.601120 0.112580 0.378400 -0.474632
O13   O     O_3   0.148287 0.500000 0.105454 -0.488062
O14   O     O_R   0.601120 0.887420 0.378400 -0.474632
O15   O     O_R   0.398880 0.112580 0.621600 -0.474632
O16   O     O_R   0.898880 0.387420 0.621600 -0.474632
O17   O     O_R   0.101120 0.612580 0.378400 -0.474632
O18   O     O_R   0.101120 0.387420 0.378400 -0.474632
O19   O     O_R   0.898880 0.612580 0.621600 -0.474632
O20   O     O_R   0.369080 0.887420 0.305440 -0.542572

loop_
_geom_bond_atom_site_label_1
_geom_bond_atom_site_label_2
_ccdc_geom_bond_type
C19   H24   S    
C8    C13   S    
C12   O2    A    
C10   H31   S    
C17   H16   S    
C23   O4    A    
N4    O13   S    
C18   H20   S    
C7    C11   S    
C13   H3    S    
Cu1   O1    S    
C18   O9    S    
C12   O12   A    
C3    C12   S    
C14   H7    S    
C5    C27   S    
Cu4   O18   S    
Cu3   Cu4   S    
C2    C22   S    
C27   O19   A    
C9    H23   S    
Cu2   O14   S    
C19   O10   S    
C21   H29   S    
C11   H34   S    
C19   H21   S    
Cu4   O5    S    
C23   O15   A    
C9    H1    S    
C22   O3    A    
C4    C7    D    
C11   H35   S    
C18   H19   S    
Cu4   N3    S    
N3    O11   S    
C21   O13   S    
C25   O6    A    
C15   H9    S    
C13   H4    S    
Cu2   O20   S    
C27   O8    A    
C16   H14   S    
Cu1   O2    S    
C5    C9    S    
Cu1   Cu2   S    
Cu4   O8    S    
Cu2   O4    S    
C24   O5    A    
Cu4   O17   S    
C23   C28   S    
C20   H27   S    
C2    C15   S    
C24   O16   A    
C16   H11   S    
C21   H30   S    
C21   H28   S    
C4    C17   S    
C19   H22   S    
Cu3   N4    S    
C3    C8    D    
C1    O20   A    
Cu3   O19   S    
C2    C5    D    
C17   H17   S    
C14   H6    S    
Cu2   N1    S    
C11   H36   S    
C18   H18   S    
Cu3   O6    S    
Cu1   N2    S    
C10   H33   S    
C9    H12   S    
Cu3   O16   S    
C10   H32   S    
C17   H15   S    
C15   H10   S    
C16   H13   S    
C6    C10   S    
Cu3   O7    S    
Cu1   O3    S    
C26   O18   A    
C25   O17   A    
C26   O7    A    
C7    C25   S    
C1    C4    S    
C1    O1    A    
C13   H2    S    
C14   H5    S    
C6    C26   S    
C8    C24   S    
C22   O14   A    
Cu2   O12   S    
N1    N2    D    
N2    O10   S    
C15   H8    S    
Cu1   O15   S    
N1    O9    S    
C6    C28   D    
N3    N4    D    
C20   O11   S    
C14   C28   S    
C20   H25   S    
C20   H26   S    
C3    C16   S    
