data_mof_unit_48762.cif
_audit_creation_date              2012-10-26T20:20:45-0400
_audit_creation_method            fapswitch 2.2
_symmetry_space_group_name_H-M    P1
_symmetry_Int_Tables_number       1
_space_group_crystal_system       triclinic
_cell_length_a                    8.798745
_cell_length_b                    10.796907
_cell_length_c                    9.520489
_cell_angle_alpha                 89.927558
_cell_angle_beta                  97.75421
_cell_angle_gamma                 90.197458
_cell_volume                      896.163320773

loop_
_atom_site_label
_atom_site_type_symbol
_atom_type_description
_atom_site_fract_x
_atom_site_fract_y
_atom_site_fract_z
_atom_type_partial_charge
C1    C     C_R   0.504409 0.262346 0.500637 0.528840
C2    C     C_R   0.413905 0.066757 0.586716 -0.087857
C3    C     C_R   0.491914 0.871514 0.498063 -0.034472
C4    C     C_R   0.508086 0.128485 0.501937 -0.034470
C5    C     C_R   0.402170 0.424948 0.062281 0.032185
C6    C     C_R   0.597830 0.575051 0.937718 0.032185
C7    C     C_R   0.402265 0.424934 0.913482 0.041365
C8    C     C_R   0.597735 0.575066 0.086518 0.041365
C9    C     C_R   0.495591 0.737654 0.499363 0.528840
C10   C     C_R   0.204220 0.502942 0.464205 0.566966
C11   C     C_R   0.795780 0.497058 0.535795 0.566966
C12   C     C_2   0.039112 0.516973 0.446455 0.240692
C13   C     C_2   0.960888 0.483027 0.553545 0.240692
C14   C     C_R   0.597751 0.061261 0.416007 0.225100
C15   C     C_R   0.402248 0.938738 0.583992 0.225099
C16   C     C_R   0.586094 0.933243 0.413283 -0.087856
Cu1   Cu    Cu3+1 0.500000 0.500020 0.640660 0.986011
Cu2   Cu    Cu3+1 0.500000 0.499980 0.359340 0.986011
H1    H     H_    0.656194 0.881336 0.348830 0.166026
H2    H     H_    0.268249 0.802490 0.621998 0.341259
H3    H     H_    0.343805 0.118664 0.651170 0.166026
H4    H     H_    0.323925 0.364711 0.108652 0.130050
H5    H     H_    0.676075 0.635289 0.891348 0.130050
H6    H     H_    0.324249 0.364548 0.847757 0.152661
H7    H     H_    0.675751 0.635452 0.152243 0.152661
H8    H     H_    0.040570 0.599311 0.263015 0.334364
H9    H     H_    0.959430 0.400688 0.736985 0.334364
H10   H     H_    0.731748 0.197510 0.377998 0.341259
N1    N     N_R   0.500040 0.500030 0.852080 -0.232205
N2    N     N_R   0.499960 0.499970 0.147920 -0.232205
O1    O     O_R   0.499990 0.319660 0.618740 -0.511956
O2    O     O_3   0.035562 0.428802 0.675988 -0.729629
O3    O     O_3   0.700549 0.115649 0.337012 -0.672152
O4    O     O_3   0.299446 0.884352 0.662984 -0.672150
O5    O     O_R   0.500010 0.680340 0.381260 -0.511956
O6    O     O_R   0.499990 0.319630 0.381170 -0.491762
O7    O     O_R   0.500010 0.680370 0.618830 -0.491763
O8    O     O_R   0.274840 0.500010 0.591370 -0.457220
O9    O     O_R   0.725160 0.499990 0.408630 -0.457220
O10   O     O_R   0.274830 0.499980 0.353800 -0.528269
O11   O     O_R   0.725170 0.500020 0.646200 -0.528269
O12   O     O_3   0.964438 0.571198 0.324012 -0.729629

loop_
_geom_bond_atom_site_label_1
_geom_bond_atom_site_label_2
_ccdc_geom_bond_type
C2    C4    A    
Cu2   O9    S    
Cu2   N2    S    
Cu1   N1    S    
Cu2   O5    S    
C15   O4    S    
C10   O8    A    
C1    C4    S    
H2    O4    S    
C14   O3    S    
C9    O7    A    
Cu1   Cu2   S    
C8    N2    A    
Cu1   O7    S    
C11   O9    A    
C2    C15   A    
C11   C13   S    
C12   O12   S    
C10   C12   S    
C2    H3    S    
C16   H1    S    
C7    N1    A    
C6    H5    S    
C3    C9    S    
H10   O3    S    
C11   O11   A    
C14   C16   A    
Cu1   O8    S    
C4    C14   A    
Cu1   O1    S    
Cu1   O11   S    
C3    C16   A    
C8    H7    S    
C7    H6    S    
C1    O1    A    
C6    N1    A    
C3    C15   A    
C12   C13   D    
H8    O12   S    
C10   O10   A    
C5    N2    A    
C5    C7    A    
Cu2   O10   S    
C9    O5    A    
C6    C8    A    
C13   O2    S    
H9    O2    S    
Cu2   O6    S    
C5    H4    S    
C1    O6    A    
