data_mof_unit_24804.cif
_audit_creation_date              2012-12-10T19:09:28-0500
_audit_creation_method            fapswitch 2.2
_symmetry_space_group_name_H-M    P1
_symmetry_Int_Tables_number       1
_space_group_crystal_system       triclinic
_cell_length_a                    15.231865
_cell_length_b                    14.890343
_cell_length_c                    9.704766
_cell_angle_alpha                 90.000046
_cell_angle_beta                  90.000031
_cell_angle_gamma                 89.99995
_cell_volume                      2201.11560095

loop_
_atom_site_label
_atom_site_type_symbol
_atom_type_description
_atom_site_fract_x
_atom_site_fract_y
_atom_site_fract_z
_atom_type_partial_charge
C1    C     C_R   0.121576 0.379108 0.500000 0.827672
C2    C     C_R   0.121574 0.620893 0.500000 0.827671
C3    C     C_R   0.621575 0.879107 0.500000 0.827672
C4    C     C_R   0.621575 0.120892 0.500000 0.827670
C5    C     C_3   0.908045 0.500017 0.081195 -0.301093
C6    C     C_3   0.908045 0.500017 0.918805 -0.301094
C7    C     C_3   0.408045 0.999986 0.081195 -0.301094
C8    C     C_3   0.408045 0.999985 0.918805 -0.301093
C9    C     C_R   0.882292 0.375518 0.500000 0.857857
C10   C     C_R   0.882295 0.624486 0.500000 0.857841
C11   C     C_R   0.382292 0.875517 0.500000 0.857847
C12   C     C_R   0.382295 0.124486 0.500000 0.857849
C13   C     C_3   0.821643 0.247962 0.629941 -0.351403
C14   C     C_3   0.821642 0.247962 0.370058 -0.351403
C15   C     C_3   0.821644 0.752041 0.370058 -0.351436
C16   C     C_3   0.821644 0.752040 0.629942 -0.351436
C17   C     C_3   0.321643 0.747962 0.629941 -0.351429
C18   C     C_3   0.321642 0.747963 0.370057 -0.351430
C19   C     C_3   0.321645 0.252041 0.370059 -0.351409
C20   C     C_3   0.321645 0.252041 0.629942 -0.351409
C21   C     C_3   0.249281 0.677076 0.629088 -0.433000
C22   C     C_3   0.249280 0.677077 0.370911 -0.432999
C23   C     C_3   0.249283 0.322926 0.370912 -0.433014
C24   C     C_3   0.249283 0.322926 0.629088 -0.433013
C25   C     C_3   0.749282 0.177076 0.629088 -0.433016
C26   C     C_3   0.749282 0.177076 0.370912 -0.433015
C27   C     C_3   0.749282 0.822925 0.370912 -0.432997
C28   C     C_3   0.749282 0.822925 0.629088 -0.432997
C29   C     C_3   0.724354 0.356799 0.500001 -0.455989
C30   C     C_3   0.724357 0.643202 0.500000 -0.455978
C31   C     C_3   0.224354 0.856800 0.500001 -0.455986
C32   C     C_3   0.224357 0.143203 0.499999 -0.455981
C33   C     C_3   0.813880 0.308052 0.500000 0.094115
C34   C     C_3   0.813883 0.691950 0.500000 0.094145
C35   C     C_3   0.313880 0.808052 0.500000 0.094142
C36   C     C_3   0.313883 0.191950 0.500000 0.094117
C37   C     C_3   0.189718 0.689808 0.500000 0.104750
C38   C     C_3   0.189720 0.310194 0.500000 0.104752
C39   C     C_3   0.689719 0.189807 0.500000 0.104755
C40   C     C_3   0.689720 0.810193 0.500000 0.104748
C41   C     C_3   0.148605 0.787132 0.500001 0.012915
C42   C     C_3   0.148608 0.212870 0.499999 0.012930
C43   C     C_3   0.648605 0.287131 0.500000 0.012932
C44   C     C_3   0.648607 0.712869 0.500000 0.012912
C45   C     C_3   0.044212 0.419774 0.081341 0.433315
C46   C     C_3   0.044212 0.419774 0.918658 0.433315
C47   C     C_3   0.044241 0.580209 0.918659 0.433312
C48   C     C_3   0.044241 0.580208 0.081342 0.433313
C49   C     C_3   0.544239 0.919790 0.081341 0.433313
C50   C     C_3   0.544239 0.919790 0.918658 0.433314
C51   C     C_3   0.544214 0.080225 0.918659 0.433313
C52   C     C_3   0.544214 0.080225 0.081342 0.433316
H1    H     H_    0.815639 0.288846 0.725577 0.211748
H2    H     H_    0.815638 0.288847 0.274422 0.211747
H3    H     H_    0.815641 0.711156 0.274422 0.211722
H4    H     H_    0.815641 0.711156 0.725577 0.211722
H5    H     H_    0.315639 0.788846 0.725577 0.211723
H6    H     H_    0.315637 0.788848 0.274422 0.211722
H7    H     H_    0.315642 0.211156 0.274423 0.211748
H8    H     H_    0.315641 0.211155 0.725578 0.211747
H9    H     H_    0.886736 0.214335 0.631906 0.195623
H10   H     H_    0.886735 0.214336 0.368091 0.195624
H11   H     H_    0.886736 0.785669 0.368093 0.195615
H12   H     H_    0.886736 0.785668 0.631907 0.195615
H13   H     H_    0.386735 0.714334 0.631905 0.195617
H14   H     H_    0.386734 0.714336 0.368090 0.195619
H15   H     H_    0.386737 0.285669 0.368094 0.195621
H16   H     H_    0.386737 0.285668 0.631908 0.195621
H17   H     H_    0.279266 0.608836 0.628495 0.165730
H18   H     H_    0.279265 0.608837 0.371503 0.165730
H19   H     H_    0.279268 0.391167 0.371504 0.165734
H20   H     H_    0.279267 0.391166 0.628497 0.165734
H21   H     H_    0.779267 0.108836 0.628496 0.165734
H22   H     H_    0.779267 0.108836 0.371503 0.165734
H23   H     H_    0.779266 0.891166 0.371503 0.165730
H24   H     H_    0.779266 0.891166 0.628497 0.165730
H25   H     H_    0.210768 0.682984 0.726100 0.208450
H26   H     H_    0.210767 0.682984 0.273900 0.208451
H27   H     H_    0.210770 0.317019 0.273900 0.208428
H28   H     H_    0.210770 0.317018 0.726100 0.208428
H29   H     H_    0.710769 0.182983 0.726100 0.208431
H30   H     H_    0.710768 0.182983 0.273900 0.208431
H31   H     H_    0.710769 0.817017 0.273900 0.208448
H32   H     H_    0.710769 0.817017 0.726100 0.208448
H33   H     H_    0.720791 0.402105 0.591459 0.158417
H34   H     H_    0.720790 0.402106 0.408544 0.158416
H35   H     H_    0.720795 0.597895 0.408542 0.158416
H36   H     H_    0.720795 0.597895 0.591457 0.158416
H37   H     H_    0.220791 0.902106 0.591460 0.158416
H38   H     H_    0.220791 0.902107 0.408544 0.158415
H39   H     H_    0.220794 0.097897 0.408541 0.158417
H40   H     H_    0.220794 0.097896 0.591456 0.158417
H41   H     H_    0.113438 0.418989 0.117800 0.000546
H42   H     H_    0.113439 0.418990 0.882200 0.000544
H43   H     H_    0.113468 0.580967 0.882199 0.000533
H44   H     H_    0.113468 0.580966 0.117801 0.000531
H45   H     H_    0.613466 0.919030 0.117801 0.000532
H46   H     H_    0.613466 0.919030 0.882199 0.000532
H47   H     H_    0.613441 0.081007 0.882200 0.000545
H48   H     H_    0.613441 0.081007 0.117800 0.000544
H49   H     H_    0.871285 0.440501 0.119338 0.208446
H50   H     H_    0.871285 0.440500 0.880662 0.208447
H51   H     H_    0.871306 0.559548 0.880663 0.208452
H52   H     H_    0.871306 0.559548 0.119336 0.208452
H53   H     H_    0.371305 0.940456 0.119336 0.208451
H54   H     H_    0.371305 0.940456 0.880663 0.208451
H55   H     H_    0.371286 0.059503 0.880662 0.208447
H56   H     H_    0.371286 0.059503 0.119337 0.208447
N1    N     N_3   0.998760 0.500000 0.138610 -0.168924
N2    N     N_3   0.998760 0.500000 0.861390 -0.168924
N3    N     N_3   0.498760 0.000000 0.138610 -0.168925
N4    N     N_3   0.498760 1.000000 0.861390 -0.168925
O1    O     O_R   0.092530 0.407440 0.616040 -0.607340
O2    O     O_R   0.092530 0.407440 0.383960 -0.607341
O3    O     O_R   0.092530 0.592560 0.383960 -0.607315
O4    O     O_R   0.092530 0.592560 0.616040 -0.607316
O5    O     O_R   0.592530 0.907440 0.616040 -0.607315
O6    O     O_R   0.592530 0.907440 0.383960 -0.607315
O7    O     O_R   0.592530 0.092560 0.383960 -0.607341
O8    O     O_R   0.592530 0.092560 0.616040 -0.607341
O9    O     O_R   0.907330 0.407420 0.616040 -0.597615
O10   O     O_R   0.907330 0.407420 0.383960 -0.597615
O11   O     O_R   0.907330 0.592580 0.383960 -0.597641
O12   O     O_R   0.907330 0.592580 0.616040 -0.597641
O13   O     O_R   0.407330 0.907420 0.616040 -0.597638
O14   O     O_R   0.407330 0.907420 0.383960 -0.597638
O15   O     O_R   0.407330 0.092580 0.383960 -0.597617
O16   O     O_R   0.407330 0.092580 0.616040 -0.597617
Zn1   Zn    Zn3+2 0.999890 0.500000 0.654960 1.004547
Zn2   Zn    Zn3+2 0.999890 0.500000 0.345040 1.004547
Zn3   Zn    Zn3+2 0.499890 0.000000 0.654960 1.004547
Zn4   Zn    Zn3+2 0.499890 0.000000 0.345040 1.004547
C53   C     C_1   0.092811 0.802430 0.622455 0.134925
N5    N     N_1   0.049853 0.815390 0.718726 -0.121981
C54   C     C_1   0.092811 0.802431 0.377547 0.134926
N6    N     N_1   0.049853 0.815391 0.281277 -0.121983
C55   C     C_1   0.092813 0.197573 0.377545 0.134908
N7    N     N_1   0.049855 0.184614 0.281274 -0.121993
C56   C     C_1   0.092813 0.197572 0.622453 0.134908
N8    N     N_1   0.049855 0.184613 0.718724 -0.121994
C57   C     C_1   0.592811 0.302428 0.622455 0.134906
N9    N     N_1   0.549853 0.315387 0.718726 -0.121992
C58   C     C_1   0.592811 0.302429 0.377546 0.134907
N10   N     N_1   0.549853 0.315387 0.281275 -0.121993
C59   C     C_1   0.592813 0.697570 0.377546 0.134927
N11   N     N_1   0.549854 0.684610 0.281276 -0.121982
C60   C     C_1   0.592813 0.697570 0.622454 0.134927
N12   N     N_1   0.549855 0.684610 0.718724 -0.121982
F1    F     F_    0.005006 0.342304 0.130902 -0.593727
F2    F     F_    0.005006 0.342304 0.869097 -0.593727
F3    F     F_    0.005063 0.657693 0.869098 -0.593723
F4    F     F_    0.005063 0.657693 0.130902 -0.593723
F5    F     F_    0.505059 0.842306 0.130902 -0.593722
F6    F     F_    0.505059 0.842306 0.869098 -0.593722
F7    F     F_    0.505010 0.157696 0.869097 -0.593728
F8    F     F_    0.505010 0.157696 0.130903 -0.593728

loop_
_geom_bond_atom_site_label_1
_geom_bond_atom_site_label_2
_ccdc_geom_bond_type
C16   C28   S    
C9    C33   S    
O16   Zn3   S    
C51   N4    S    
C28   H32   S    
O8    Zn3   S    
C6    N2    S    
C43   C58   S    
C60   N12   T    
C45   H41   S    
C14   C33   S    
C41   C53   S    
C59   N11   T    
C7    C8    S    
C12   O15   A    
C45   C46   S    
C51   F7    S    
O1    Zn1   S    
C32   C36   S    
C49   F5    S    
C11   O13   A    
C38   C42   S    
C10   O12   A    
C19   C36   S    
C8    N4    S    
C5    C6    S    
C45   N1    S    
C26   C39   S    
C32   H39   S    
C28   C40   S    
C58   N10   T    
C14   H10   S    
C29   C33   S    
C44   C60   S    
N2    Zn1   S    
O15   Zn4   S    
C3    O5    A    
C16   C34   S    
C2    O4    A    
C18   H6    S    
O4    Zn1   S    
C20   C24   S    
C31   H37   S    
C9    O9    A    
C7    H53   S    
C4    O7    A    
C19   H15   S    
C12   C36   S    
C48   H44   S    
C18   C35   S    
C15   C34   S    
C29   H33   S    
C49   N3    S    
C48   N1    S    
C5    H52   S    
C26   H30   S    
C47   N2    S    
C29   C43   S    
C42   C55   S    
C25   H29   S    
O2    Zn2   S    
C30   C44   S    
C1    O1    A    
C27   H23   S    
C24   H28   S    
O7    Zn4   S    
C13   H1    S    
C51   H47   S    
C15   C27   S    
C5    H49   S    
C50   H46   S    
C30   C34   S    
C51   C52   S    
C23   H19   S    
C54   N6    T    
C11   O14   A    
C22   H26   S    
C45   F1    S    
C10   O11   A    
C39   C43   S    
C52   N3    S    
C19   H7    S    
C22   C37   S    
C52   H48   S    
C17   C21   S    
C21   H17   S    
C15   H3    S    
C19   C23   S    
C16   H4    S    
C13   C33   S    
C3    O6    A    
C2    O3    A    
O13   Zn3   S    
C24   C38   S    
C47   C48   S    
C46   H42   S    
C4    C39   S    
O14   Zn4   S    
C27   C40   S    
C31   H38   S    
C50   N4    S    
C44   C59   S    
C13   H9    S    
C10   C34   S    
C6    H51   S    
C14   C26   S    
C29   H34   S    
C1    C38   S    
C46   F2    S    
C47   F3    S    
C3    C40   S    
C48   F4    S    
O11   Zn2   S    
C53   N5    T    
C31   C35   S    
C43   C57   S    
C20   H8    S    
C1    O2    A    
C30   H36   S    
C28   H24   S    
C8    H55   S    
C41   C54   S    
C22   H18   S    
C24   H20   S    
C15   H11   S    
C31   C41   S    
C14   H2    S    
C42   C56   S    
C18   C22   S    
C20   H16   S    
O9    Zn1   S    
C13   C25   S    
C8    H54   S    
C56   N8    T    
C12   O16   A    
C18   H14   S    
C23   C38   S    
C17   C35   S    
C55   N7    T    
C17   H13   S    
C27   H31   S    
C46   N2    S    
C57   N9    T    
C25   C39   S    
C2    C37   S    
C32   H40   S    
C5    N1    S    
C50   F6    S    
C32   C42   S    
C11   C35   S    
C26   H22   S    
C7    N3    S    
O12   Zn1   S    
C25   H21   S    
C6    H50   S    
N4    Zn3   S    
C37   C41   S    
C52   F8    S    
O5    Zn3   S    
O6    Zn4   S    
C49   H45   S    
C20   C36   S    
N3    Zn4   S    
C40   C44   S    
C21   C37   S    
C49   C50   S    
C21   H25   S    
N1    Zn2   S    
C47   H43   S    
C7    H56   S    
C4    O8    A    
C16   H12   S    
C23   H27   S    
C30   H35   S    
O10   Zn2   S    
C17   H5    S    
O3    Zn2   S    
C9    O10   A    
