data_mof_unit_40427.cif
_audit_creation_date              2012-10-26T18:27:33-0400
_audit_creation_method            fapswitch 2.2
_symmetry_space_group_name_H-M    P1
_symmetry_Int_Tables_number       1
_space_group_crystal_system       triclinic
_cell_length_a                    10.841218
_cell_length_b                    10.891532
_cell_length_c                    9.788103
_cell_angle_alpha                 109.182769
_cell_angle_beta                  99.917011
_cell_angle_gamma                 90.95997
_cell_volume                      1071.92493394

loop_
_atom_site_label
_atom_site_type_symbol
_atom_type_description
_atom_site_fract_x
_atom_site_fract_y
_atom_site_fract_z
_atom_type_partial_charge
Br1   Br    Br    0.690187 0.676302 0.978302 -0.291659
Br2   Br    Br    0.824143 0.366839 0.785083 -0.374927
Br3   Br    Br    0.285798 0.809209 0.325655 -0.361923
C1    C     C_R   0.486296 0.253317 0.443126 0.599827
C2    C     C_2   0.414524 0.922542 0.478944 0.201343
C3    C     C_2   0.506756 0.517169 0.085337 0.048918
C4    C     C_R   0.261291 0.501621 0.499134 0.589083
C5    C     C_2   0.482979 0.500768 0.924008 0.100739
C6    C     C_R   0.502389 0.745713 0.556145 0.558788
C7    C     C_R   0.736526 0.485905 0.498902 0.567058
C8    C     C_R   0.152615 0.633234 0.762262 -0.087665
C9    C     C_R   0.115271 0.652590 0.896699 -0.107225
C10   C     C_R   0.009817 0.580805 0.901843 -0.020711
C11   C     C_R   0.933051 0.502171 0.771184 0.221160
C12   C     C_R   0.080400 0.546027 0.630218 -0.031291
C13   C     C_R   0.958871 0.502727 0.634061 0.026208
C14   C     C_R   0.125278 0.496837 0.495729 0.009597
C15   C     C_R   0.038369 0.428325 0.363278 0.248115
C16   C     C_R   0.911022 0.425750 0.367085 -0.088028
C17   C     C_R   0.869818 0.465714 0.500880 -0.028037
C18   C     C_2   0.475890 0.112422 0.416351 0.190634
C19   C     C_2   0.414872 0.060953 0.498290 0.227012
C20   C     C_2   0.491563 0.883616 0.577845 -0.048318
Cu1   Cu    Cu3+1 0.521920 0.521810 0.644910 1.147625
Cu2   Cu    Cu3+1 0.478080 0.478190 0.355090 1.117939
H1    H     H_    0.401383 0.439147 0.854518 0.179181
H2    H     H_    0.593616 0.120276 0.135214 0.375482
H3    H     H_    0.184860 0.102521 0.737530 0.381576
H4    H     H_    0.577461 0.590245 0.161856 0.209267
H5    H     H_    0.377901 0.376057 0.064023 0.266389
H6    H     H_    0.237078 0.687858 0.763059 0.170325
H7    H     H_    0.172579 0.716885 0.997428 0.198843
H8    H     H_    0.989120 0.584251 0.007264 0.206943
H9    H     H_    0.843135 0.388738 0.265151 0.208868
H10   H     H_    0.550162 0.954899 0.673303 0.133882
H11   H     H_    0.985479 0.204700 0.981507 0.389739
N1    N     N_2   0.445130 0.445430 0.137370 -0.341022
N2    N     N_2   0.554930 0.554500 0.862630 -0.096906
O1    O     O_R   0.511700 0.332330 0.577400 -0.460589
O2    O     O_2   0.177334 0.248063 0.213825 -0.234140
O3    O     O_3   0.953461 0.251898 0.071962 -0.481939
O4    O     O_2   0.627633 0.919190 0.328764 -0.234632
O5    O     O_2   0.451389 0.936168 0.144824 -0.250912
O6    O     O_3   0.644883 0.105384 0.221596 -0.463060
O7    O     O_2   0.422421 0.204451 0.777695 -0.330916
O8    O     O_2   0.267703 0.257862 0.593595 -0.281741
O9    O     O_3   0.221672 0.048821 0.653580 -0.472634
O10   O     O_R   0.474680 0.295500 0.332650 -0.471131
O11   O     O_R   0.338160 0.518420 0.622400 -0.528682
O12   O     O_R   0.301140 0.481590 0.377650 -0.416423
O13   O     O_R   0.525320 0.704500 0.667350 -0.471469
O14   O     O_R   0.488300 0.667670 0.422600 -0.470214
O15   O     O_R   0.698860 0.518410 0.622350 -0.453865
O16   O     O_R   0.661840 0.481580 0.377600 -0.519528
O17   O     O_2   0.131344 0.433069 0.127333 -0.291238
S1    S     S_3+6 0.079885 0.339781 0.191453 0.054114
S2    S     S_3+6 0.550044 0.012834 0.274652 0.062746
S3    S     S_3+6 0.331201 0.150026 0.634339 0.019425

loop_
_geom_bond_atom_site_label_1
_geom_bond_atom_site_label_2
_ccdc_geom_bond_type
C19   S3    S    
Cu1   N2    S    
C8    C9    A    
H3    O9    S    
C18   S2    S    
C5    H1    S    
C16   C17   A    
C6    O13   A    
C1    O1    A    
C15   S1    S    
O6    S2    S    
C13   C17   A    
Cu1   O1    S    
Cu1   O13   S    
C14   C15   A    
C3    N1    D    
C8    H6    S    
O3    S1    S    
O2    S1    D    
C18   C19   D    
C9    H7    S    
O9    S3    S    
C10   H8    S    
C1    C18   S    
C4    O12   A    
Cu2   O10   S    
H11   O3    S    
C6    O14   A    
C5    N2    D    
Br1   N2    S    
Br2   C11   S    
O4    S2    D    
Cu1   Cu2   S    
C20   H10   S    
C7    O16   A    
C11   C13   A    
O7    S3    D    
Cu2   O14   S    
O5    S2    D    
O17   S1    D    
C12   C13   A    
Br3   C2    S    
C3    H4    S    
Cu2   O16   S    
C4    O11   A    
C15   C16   A    
C1    O10   A    
Cu1   O11   S    
C12   C14   A    
C7    O15   A    
Cu2   O12   S    
C6    C20   S    
C3    C5    S    
Cu2   N1    S    
Cu1   O15   S    
C10   C11   A    
C9    C10   A    
C8    C12   A    
H2    O6    S    
O8    S3    D    
C2    C19   S    
H5    N1    S    
C7    C17   S    
C4    C14   S    
C16   H9    S    
C2    C20   D    
