data_mof_unit_51308.cif
_audit_creation_date              2013-03-05T16:46:54-0500
_audit_creation_method            fapswitch 2.2
_symmetry_space_group_name_H-M    P1
_symmetry_Int_Tables_number       1
_space_group_crystal_system       triclinic
_cell_length_a                    18.204169
_cell_length_b                    18.263451
_cell_length_c                    18.390928
_cell_angle_alpha                 120.128297
_cell_angle_beta                  89.956515
_cell_angle_gamma                 119.885816
_cell_volume                      4324.26565916

loop_
_atom_site_label
_atom_site_type_symbol
_atom_site_description
_atom_site_fract_x
_atom_site_fract_y
_atom_site_fract_z
_atom_type_partial_charge
Zn1   Zn    Zn3+2 0.456040 0.586770 0.543190 1.030082
Zn2   Zn    Zn3+2 0.456820 0.413240 0.543960 0.975949
Zn3   Zn    Zn3+2 0.631110 0.586750 0.543190 0.997872
Zn4   Zn    Zn3+2 0.456040 0.413240 0.369660 1.036383
O1    O     O_3   0.500000 0.500000 0.500000 -0.505605
O2    O     O_R   0.383400 0.268380 0.323710 -0.628320
O3    O     O_R   0.555060 0.731630 0.615290 -0.595749
O4    O     O_R   0.383950 0.439280 0.616600 -0.650758
O5    O     O_R   0.677590 0.560710 0.444390 -0.640996
O6    O     O_R   0.556370 0.439260 0.616600 -0.646393
O7    O     O_R   0.382640 0.439290 0.322940 -0.660691
O8    O     O_R   0.678360 0.560700 0.616060 -0.641102
O9    O     O_R   0.382640 0.560750 0.444390 -0.567045
O10   O     O_R   0.383400 0.560740 0.616060 -0.644152
O11   O     O_R   0.555060 0.439270 0.322940 -0.594302
O12   O     O_R   0.383950 0.268380 0.445700 -0.642036
O13   O     O_R   0.677590 0.731610 0.615290 -0.660231
C1    C     C_R   0.360892 0.220092 0.360997 0.809449
C2    C     C_R   0.640735 0.781000 0.639652 0.830538
C3    C     C_R   0.359337 0.500674 0.640795 0.790969
C4    C     C_R   0.640613 0.499474 0.359415 0.867687
C5    C     C_R   0.641920 0.500180 0.640042 0.825318
C6    C     C_R   0.357821 0.499885 0.359438 0.837219
C7    C     C_3   0.285771 0.427606 0.201792 -0.524050
H1    H     H_    0.254272 0.347535 0.182761 0.207809
H2    H     H_    0.349837 0.449709 0.187611 0.257511
C8    C     C_3   0.223266 0.424625 0.142426 -0.474699
H3    H     H_    0.256810 0.443527 0.097826 0.205694
H4    H     H_    0.160667 0.344693 0.099091 0.221472
H5    H     H_    0.169070 0.371415 0.276975 0.109245
H6    H     H_    0.082979 0.394611 0.215039 0.161321
C9    C     C_3   0.204458 0.456437 0.309996 0.224866
C10   C     C_3   0.347476 0.615973 0.329319 0.645076
C11   C     C_3   0.301055 0.501673 0.302521 -0.088081
C12   C     C_3   0.199922 0.502586 0.200623 -0.080047
C13   C     C_3   0.150024 0.469492 0.258599 -0.401225
C14   C     C_3   0.291347 0.612448 0.261051 0.137071
H7    H     H_    0.328181 0.622983 0.215081 0.179595
H8    H     H_    0.136944 0.526562 0.305673 0.203491
C15   C     C_3   0.637003 0.938474 0.717115 0.181807
H9    H     H_    0.590060 0.904634 0.747543 0.139796
C16   C     C_3   0.696319 0.058697 0.781835 0.247512
H10   H     H_    0.684111 0.089348 0.747516 0.167906
H11   H     H_    0.708600 0.912381 0.824758 0.204039
C17   C     C_3   0.754206 0.938243 0.789779 -0.486834
C18   C     C_3   0.762251 0.942698 0.655098 -0.336006
C19   C     C_3   0.697366 0.897533 0.698719 0.015724
H12   H     H_    0.809270 0.919185 0.646179 0.204639
H13   H     H_    0.723970 0.911281 0.587771 0.232080
C20   C     C_3   0.798461 0.102555 0.804372 -0.015657
C21   C     C_3   0.820137 0.058154 0.848332 0.286024
C22   C     C_3   0.816934 0.062517 0.714254 -0.577444
H14   H     H_    0.798739 0.088288 0.678232 0.198852
H15   H     H_    0.889641 0.095618 0.726084 0.201133
H16   H     H_    0.793082 0.904381 0.779107 0.218023
H17   H     H_    0.889495 0.078196 0.851457 0.159916
C23   C     C_3   0.684680 0.387209 0.247035 0.419435
C24   C     C_3   0.741076 0.387910 0.181297 0.178882
H18   H     H_    0.789384 0.371504 0.192139 0.176856
H19   H     H_    0.606217 0.468588 0.195920 0.236798
H20   H     H_    0.699720 0.480021 0.112092 0.184319
C25   C     C_3   0.677145 0.523295 0.239818 -0.413403
C26   C     C_3   0.799012 0.582101 0.359700 -0.419295
C27   C     C_3   0.697829 0.496058 0.301595 -0.047190
H21   H     H_    0.811462 0.659873 0.396782 0.202046
H22   H     H_    0.818900 0.573792 0.410693 0.237477
C28   C     C_3   0.799566 0.497897 0.200111 0.016471
C29   C     C_3   0.739665 0.529059 0.183551 -0.433409
C30   C     C_3   0.858470 0.577791 0.300530 -0.450985
H23   H     H_    0.900284 0.556238 0.316699 0.212148
H24   H     H_    0.905184 0.656434 0.315997 0.210364
H25   H     H_    0.687634 0.599958 0.281488 0.186412
H26   H     H_    0.783036 0.609660 0.202421 0.183480
H27   H     H_    0.450922 0.230155 0.685379 0.173485
C31   C     C_R   0.466137 0.185412 0.557291 -0.176578
H28   H     H_    0.536071 0.215898 0.580960 0.154945
C32   C     C_R   0.424945 0.138764 0.467916 -0.073425
H29   H     H_    0.463491 0.133665 0.422904 0.149812
C33   C     C_R   0.334437 0.099377 0.436933 0.084573
C34   C     C_R   0.285344 0.106463 0.496052 -0.219263
H30   H     H_    0.215487 0.075946 0.471581 0.171066
C35   C     C_R   0.326581 0.154149 0.586435 0.373213
C36   C     C_R   0.417480 0.193325 0.616339 -0.184296
C37   C     C_R   0.233997 0.944085 0.286930 -0.224117
H31   H     H_    0.222205 0.901118 0.315294 0.191155
C38   C     C_R   0.194664 0.892398 0.195752 -0.064457
C39   C     C_R   0.212751 0.949146 0.158813 0.004324
C40   C     C_R   0.268112 0.056067 0.214650 -0.216141
H32   H     H_    0.280389 0.098966 0.186125 0.188352
C41   C     C_R   0.306661 0.107734 0.305956 -0.055958
C42   C     C_R   0.291007 0.051017 0.342414 0.009716
C43   C     C_R   0.228786 0.886780 0.008022 -0.124914
H33   H     H_    0.295921 0.911863 0.035882 0.179742
C44   C     C_R   0.194166 0.838879 0.916819 -0.231830
H34   H     H_    0.235319 0.827926 0.875552 0.145374
C45   C     C_R   0.106767 0.805196 0.879338 0.520524
C46   C     C_R   0.055170 0.820358 0.934457 -0.102473
H35   H     H_    0.987932 0.794845 0.906428 0.149026
C47   C     C_R   0.089673 0.867900 0.025651 -0.229139
H36   H     H_    0.048646 0.878338 0.067205 0.141785
C48   C     C_R   0.176510 0.900901 0.062765 0.132697
H37   H     H_    0.985457 0.759900 0.578972 0.182342
C49   C     C_R   0.915909 0.614845 0.564908 0.462971
C50   C     C_R   0.863851 0.560996 0.599135 -0.072370
H38   H     H_    0.841466 0.481636 0.568154 0.173986
C51   C     C_R   0.841851 0.609344 0.673849 0.001215
C52   C     C_R   0.873038 0.712975 0.715266 -0.164981
H39   H     H_    0.857064 0.750267 0.773991 0.160965
C53   C     C_R   0.924459 0.768044 0.681120 0.367941
C54   C     C_R   0.945312 0.718166 0.605543 -0.330534
C55   C     C_R   0.841163 0.550865 0.767293 -0.250753
H40   H     H_    0.912788 0.589626 0.778769 0.205608
C56   C     C_R   0.799382 0.498147 0.805591 -0.059812
C57   C     C_R   0.705702 0.445779 0.788726 0.018048
C58   C     C_R   0.656759 0.449820 0.735462 -0.270506
H41   H     H_    0.585144 0.410993 0.723978 0.181033
C59   C     C_R   0.698468 0.502151 0.696811 -0.051031
C60   C     C_R   0.792043 0.553632 0.712933 0.027683
C61   C     C_R   0.622800 0.279543 0.775038 -0.271377
H42   H     H_    0.636884 0.245013 0.713985 0.124925
C62   C     C_R   0.571773 0.219407 0.805556 0.538606
C63   C     C_R   0.553778 0.265312 0.884253 -0.039651
H43   H     H_    0.514547 0.219886 0.908336 0.181098
C64   C     C_R   0.585360 0.369431 0.931693 -0.251233
H44   H     H_    0.570031 0.403832 0.991785 0.164721
C65   C     C_R   0.636048 0.428976 0.901385 -0.149320
H45   H     H_    0.659839 0.509457 0.938445 0.142096
C66   C     C_R   0.655311 0.384385 0.823139 0.110448
C67   C     C_R   0.390021 0.825922 0.753007 0.324811
C68   C     C_R   0.373151 0.753475 0.770714 0.416491
C69   C     C_R   0.302182 0.647330 0.708133 -0.076056
C70   C     C_R   0.250353 0.615778 0.628961 -0.257208
H46   H     H_    0.195405 0.535225 0.581231 0.185923
C71   C     C_R   0.266967 0.687767 0.611796 -0.100211
H47   H     H_    0.224568 0.662213 0.551312 0.221694
C72   C     C_R   0.334545 0.792909 0.673635 0.299334
C73   C     C_R   0.221537 0.566107 0.780595 -0.229341
H48   H     H_    0.201070 0.618358 0.803481 0.178117
C74   C     C_R   0.194644 0.497684 0.804909 -0.072614
C75   C     C_R   0.222755 0.430713 0.775346 -0.001179
C76   C     C_R   0.276022 0.433456 0.721568 -0.227339
H49   H     H_    0.296937 0.381660 0.699229 0.199948
C77   C     C_R   0.302781 0.501842 0.697029 -0.068778
C78   C     C_R   0.275534 0.569696 0.727607 0.028971
C79   C     C_R   0.260032 0.388658 0.873503 -0.144843
H50   H     H_    0.323288 0.464512 0.911608 0.148339
C80   C     C_R   0.238106 0.321497 0.898520 -0.231884
H51   H     H_    0.285133 0.346344 0.955443 0.135276
C81   C     C_R   0.155785 0.222885 0.850179 0.567861
C82   C     C_R   0.096743 0.192640 0.776382 -0.037563
H52   H     H_    0.033642 0.116784 0.738357 0.170879
C83   C     C_R   0.118652 0.259776 0.751289 -0.177037
H53   H     H_    0.071956 0.235389 0.694362 0.140775
C84   C     C_R   0.200141 0.358402 0.800189 0.153874
Zn5   Zn    Zn3+2 0.041710 0.413240 0.959030 0.957945
Zn6   Zn    Zn3+2 0.866640 0.413270 0.959030 1.018233
Zn7   Zn    Zn3+2 0.040930 0.586780 0.958260 0.969369
Zn8   Zn    Zn3+2 0.041710 0.586770 0.132560 0.983595
O14   O     O_3   0.997750 0.500010 0.002220 -0.492983
O15   O     O_R   0.942690 0.560750 0.179280 -0.662010
O16   O     O_R   0.114340 0.439270 0.886160 -0.646954
O17   O     O_R   0.820160 0.268410 0.886930 -0.580588
O18   O     O_R   0.113800 0.731630 0.056520 -0.637150
O19   O     O_R   0.819390 0.439310 0.886160 -0.642248
O20   O     O_R   0.115110 0.560720 0.179280 -0.623290
O21   O     O_R   0.941380 0.560750 0.885620 -0.652051
O22   O     O_R   0.115110 0.439270 0.057830 -0.655553
O23   O     O_R   0.942690 0.268390 0.886930 -0.674081
O24   O     O_R   0.114340 0.731630 0.178520 -0.637953
O25   O     O_R   0.820160 0.439310 0.057830 -0.597277
O26   O     O_R   0.113800 0.560730 0.885620 -0.642572
C85   C     C_R   0.857170 0.499742 0.142816 0.812022
C86   C     C_R   0.138419 0.499334 0.861460 0.805027
C87   C     C_R   0.856739 0.219080 0.862501 0.810548
C88   C     C_R   0.137856 0.779978 0.141159 0.804990
C89   C     C_R   0.855847 0.499749 0.862083 0.791936
C90   C     C_R   0.140725 0.500930 0.142800 0.860159
O27   O     O_3   0.282732 0.695715 0.303302 -0.711959
H54   H     H_    0.233929 0.679483 0.329020 0.352017
O28   O     O_3   0.205528 0.502490 0.398763 -0.771139
H55   H     H_    0.206730 0.461279 0.418370 0.329112
O29   O     O_3   0.586151 0.906244 0.636542 -0.705692
H56   H     H_    0.536409 0.914108 0.648339 0.368067
O30   O     O_3   0.672177 0.093941 0.859096 -0.668784
H57   H     H_    0.666496 0.053963 0.882925 0.398245
O31   O     O_3   0.815457 0.099035 0.935094 -0.735491
H58   H     H_    0.873877 0.167058 0.975747 0.334732
N1    N     N_R   0.588982 0.298576 0.195754 0.237499
O32   O     O_R   0.558180 0.214370 0.191131 -0.292726
O33   O     O_R   0.536727 0.297045 0.146013 -0.416046
N2    N     N_R   0.717837 0.375631 0.312020 0.187952
O34   O     O_R   0.788907 0.375117 0.316858 -0.371186
O35   O     O_R   0.675269 0.366251 0.367088 -0.390191
O36   O     O_3   0.687307 0.308301 0.090946 -0.664989
H59   H     H_    0.649744 0.324476 0.072272 0.372069
N3    N     N_R   0.276637 0.163061 0.647398 0.203447
O37   O     O_R   0.315298 0.209564 0.731451 -0.399030
O38   O     O_R   0.192059 0.124989 0.619476 -0.405497
O39   O     O_3   0.070224 0.757582 0.789728 -0.786409
H60   H     H_    0.114710 0.752335 0.760231 0.335392
O40   O     O_3   0.937802 0.565013 0.492587 -0.714771
H61   H     H_    0.975255 0.613409 0.476935 0.328690
N4    N     N_R   0.956606 0.874455 0.723749 0.219853
O41   O     O_R   0.995559 0.922108 0.686950 -0.374284
O42   O     O_R   0.948924 0.925360 0.800653 -0.405587
O43   O     O_3   0.537979 0.116019 0.759713 -0.767692
H62   H     H_    0.554871 0.094990 0.705016 0.332428
O44   O     O_3   0.342345 0.860332 0.655019 -0.722984
H63   H     H_    0.366666 0.928256 0.711886 0.367867
O45   O     O_3   0.461376 0.927601 0.814662 -0.686212
H64   H     H_    0.482931 0.962722 0.784551 0.367223
O46   O     O_3   0.428047 0.790027 0.849595 -0.699652
H65   H     H_    0.414641 0.731538 0.851408 0.331529
O47   O     O_3   0.352464 0.681082 0.417454 -0.649765
H66   H     H_    0.292090 0.663916 0.419404 0.364406
O48   O     O_3   0.131373 0.154811 0.873225 -0.698673
H67   H     H_    0.179688 0.187984 0.926851 0.329688
N5    N     N_R   0.440771 0.659955 0.327999 0.197739
O49   O     O_R   0.508046 0.733884 0.402436 -0.298933
O50   O     O_R   0.458132 0.628511 0.253565 -0.467976

loop_
_geom_bond_atom_site_label_1
_geom_bond_atom_site_label_2
_geom_bond_distance
_ccdc_geom_bond_type
C12   C90   1.493326 S    
C5    C59   1.441509 S    
C39   C40   1.382291 A    
C26   H21   1.113975 S    
C65   H45   1.083028 S    
C18   C22   1.550506 S    
C15   C19   1.563769 S    
O20   C90   1.277282 A    
O40   H61   0.991717 S    
C68   O46   1.383494 S    
C80   H51   1.082614 S    
C7    C8    1.539535 S    
H27   C36   1.082117 S    
N4    O41   1.301480 A    
O18   C88   1.276841 A    
C50   C51   1.400618 A    
C57   C58   1.377770 A    
N5    O49   1.302337 A    
C32   H29   1.083130 S    
O6    C5    1.281370 A    
O23   C87   1.285195 A    
C14   O27   1.411477 S    
N4    O42   1.301342 A    
C18   H13   1.112495 S    
O4    C3    1.286655 A    
C13   H8    1.110743 S    
C55   C60   1.377927 A    
Zn1   O1    1.944703 S    
C9    C13   1.547712 S    
N1    O33   1.300625 A    
C12   C14   1.570786 S    
C7    H2    1.107789 S    
C23   N2    1.489745 S    
C76   C77   1.400017 A    
C26   C30   1.535903 S    
C2    C19   1.505573 S    
C8    H4    1.113766 S    
C51   C52   1.402597 A    
C17   C21   1.552844 S    
C58   H41   1.084377 S    
O8    C5    1.270643 A    
N3    O37   1.301619 A    
C57   C66   1.478428 S    
O30   H57   0.990841 S    
O9    C6    1.279792 A    
H19   C25   1.106085 S    
C21   H17   1.117994 S    
O7    C6    1.277300 A    
C30   H24   1.113587 S    
O29   H56   0.992823 S    
C23   N1    1.484716 S    
C25   C27   1.560361 S    
Zn3   O8    1.952386 S    
C79   C80   1.397813 A    
C39   C48   1.480488 S    
C76   H49   1.084968 S    
C31   C36   1.397603 A    
C12   C13   1.557441 S    
Zn5   O22   1.953582 S    
O44   H63   0.989775 S    
C4    C27   1.488623 S    
C20   C22   1.556346 S    
C52   H39   1.083194 S    
C7    H1    1.113863 S    
O19   C89   1.270876 A    
C37   C42   1.383325 A    
Zn2   O12   1.931703 S    
Zn7   O18   1.931601 S    
C73   C74   1.397196 A    
C33   C42   1.480473 S    
C46   H35   1.082834 S    
C61   C66   1.403655 A    
C15   C16   1.555442 S    
O36   H59   0.988079 S    
C26   H22   1.109837 S    
Zn6   O17   1.929453 S    
O39   H60   0.991843 S    
Zn7   O14   1.956183 S    
C51   C60   1.479154 S    
Zn8   O15   1.940944 S    
C52   C53   1.406086 A    
C3    C77   1.458808 S    
Zn1   O10   1.944484 S    
C44   H34   1.083207 S    
C62   O43   1.378302 S    
C50   H38   1.083595 S    
C46   C47   1.399092 A    
C22   H15   1.111591 S    
C79   H50   1.083134 S    
C45   O39   1.378831 S    
C15   O29   1.408060 S    
H6    C13   1.113540 S    
C17   C19   1.553709 S    
O24   C88   1.291121 A    
O2    C1    1.289372 A    
C74   C75   1.417485 A    
C18   H12   1.113251 S    
C80   C81   1.408814 A    
C26   C27   1.561030 S    
Zn5   O14   1.944703 S    
C28   C29   1.548765 S    
C1    C41   1.451758 S    
O27   H54   0.989206 S    
C53   N4    1.439385 S    
C37   H31   1.084840 S    
Zn4   O2    1.932118 S    
C72   O44   1.379338 S    
O43   H62   0.991641 S    
C70   H46   1.083456 S    
C71   C72   1.396361 A    
C8    C12   1.557529 S    
C29   H26   1.113597 S    
C10   N5    1.479946 S    
C24   O36   1.411391 S    
C70   C71   1.392832 A    
C10   C14   1.574732 S    
N2    O34   1.301913 A    
N1    O32   1.302391 A    
C28   C30   1.558264 S    
C9    C11   1.568294 S    
C31   H28   1.082320 S    
N2    O35   1.302388 A    
C23   C24   1.586303 S    
C14   H7    1.111415 S    
Zn3   O5    1.942906 S    
O10   C3    1.274377 A    
C67   C72   1.423429 A    
O16   C86   1.273817 A    
N5    O50   1.301774 A    
C47   H36   1.083035 S    
O11   C4    1.280287 A    
Zn5   O23   1.932872 S    
C10   O47   1.416775 S    
C6    C11   1.494727 S    
C45   C46   1.400886 A    
C43   C44   1.398213 A    
C20   C21   1.563452 S    
O15   C85   1.279737 A    
C32   C33   1.402009 A    
C25   H25   1.113895 S    
C55   C56   1.397061 A    
O48   H67   0.991842 S    
Zn4   O7    1.948241 S    
C44   C45   1.409093 A    
C31   C32   1.396166 A    
Zn6   O19   1.952241 S    
C62   C63   1.399914 A    
C61   C62   1.409061 A    
C43   C48   1.402923 A    
C16   C20   1.566673 S    
C56   C89   1.441530 S    
C79   C84   1.402096 A    
C34   C35   1.407876 A    
C15   H9    1.116030 S    
O22   C90   1.280151 A    
C73   C78   1.385151 A    
C40   C41   1.397802 A    
O45   H64   0.988695 S    
O3    C2    1.280756 A    
C49   C54   1.408605 A    
Zn8   O14   1.955355 S    
C82   C83   1.398525 A    
C74   C86   1.458701 S    
Zn2   O1    1.956035 S    
Zn1   O9    1.953684 S    
C16   H10   1.113537 S    
C63   C64   1.397688 A    
C69   C70   1.400120 A    
Zn2   O6    1.950078 S    
C8    H3    1.112762 S    
C22   H14   1.113038 S    
C38   C39   1.417913 A    
C23   C27   1.593667 S    
C64   C65   1.397316 A    
C56   C57   1.413090 A    
C83   C84   1.402463 A    
C58   C59   1.397579 A    
C18   C19   1.552753 S    
C65   C66   1.401549 A    
C55   H40   1.084603 S    
C47   C48   1.402596 A    
Zn1   O3    1.932973 S    
C35   N3    1.439730 S    
Zn6   O14   1.951618 S    
Zn2   O4    1.938752 S    
H11   C17   1.113389 S    
C37   C38   1.398147 A    
C34   H30   1.083109 S    
Zn3   O1    1.951618 S    
Zn7   O21   1.949976 S    
C61   H42   1.083504 S    
Zn8   O24   1.932073 S    
C71   H47   1.082615 S    
O17   C87   1.283742 A    
C28   C85   1.486539 S    
O26   C86   1.286834 A    
C73   H48   1.085140 S    
O21   C89   1.281082 A    
C82   H52   1.081946 S    
C25   C29   1.537982 S    
C20   C87   1.505075 S    
C16   O30   1.410403 S    
Zn4   O11   1.940947 S    
C68   C69   1.420705 A    
C24   H18   1.107128 S    
C81   O48   1.378753 S    
C49   O40   1.378996 S    
C21   O31   1.406408 S    
C81   C82   1.400109 A    
C38   C88   1.452317 S    
H5    C9    1.118954 S    
H20   C29   1.108559 S    
O5    C4    1.281782 A    
C41   C42   1.416505 A    
O46   H65   0.988771 S    
O25   C85   1.282105 A    
C75   C76   1.385927 A    
O47   H66   0.987595 S    
Zn6   O25   1.942906 S    
C43   H33   1.083225 S    
O13   C2    1.288965 A    
C10   C11   1.588888 S    
Zn3   O13   1.929454 S    
C30   H23   1.113193 S    
C7    C11   1.564956 S    
O31   H58   0.992730 S    
N3    O38   1.301416 A    
H37   C54   1.082629 S    
C69   C78   1.482558 S    
Zn5   O16   1.944383 S    
C33   C34   1.403593 A    
C24   C28   1.568391 S    
Zn4   O1    1.955355 S    
C40   H32   1.084860 S    
C17   H16   1.111732 S    
O12   C1    1.278101 A    
C35   C36   1.406784 A    
C53   C54   1.406611 A    
C49   C50   1.397608 A    
C63   H43   1.082801 S    
C67   C68   1.406573 A    
C9    O28   1.406497 S    
C83   H53   1.083047 S    
C67   O45   1.380603 S    
C59   C60   1.413684 A    
Zn7   O26   1.938796 S    
O28   H55   0.992915 S    
C77   C78   1.417934 A    
Zn8   O20   1.948237 S    
C75   C84   1.478511 S    
C64   H44   1.082198 S    
