data_mof_unit_22962.cif
_audit_creation_date              2012-12-11T17:16:03-0500
_audit_creation_method            fapswitch 2.2
_symmetry_space_group_name_H-M    P1
_symmetry_Int_Tables_number       1
_space_group_crystal_system       triclinic
_cell_length_a                    14.678665
_cell_length_b                    7.226204
_cell_length_c                    13.455578
_cell_angle_alpha                 90.0
_cell_angle_beta                  99.710278
_cell_angle_gamma                 89.999952
_cell_volume                      1406.79914619

loop_
_atom_site_label
_atom_site_type_symbol
_atom_type_description
_atom_site_fract_x
_atom_site_fract_y
_atom_site_fract_z
_atom_type_partial_charge
O1    O     O_R   0.398210 0.494340 0.401550 -0.530963
O2    O     O_R   0.601790 0.994340 0.598450 -0.530963
O3    O     O_R   0.586310 0.821730 0.403360 -0.545726
O4    O     O_R   0.413690 0.321730 0.596640 -0.545726
C1    C     C_R   0.612805 0.654687 0.378795 0.724717
C2    C     C_R   0.387196 0.154687 0.621205 0.724713
O5    O     O_R   0.397970 0.823900 0.389580 -0.535389
O6    O     O_R   0.602030 0.323900 0.610420 -0.535389
O7    O     O_R   0.412100 0.996500 0.584560 -0.535632
O8    O     O_R   0.587900 0.496500 0.415440 -0.535632
C3    C     C_R   0.364566 0.655385 0.363613 0.708948
C4    C     C_R   0.635434 0.155385 0.636387 0.708947
O9    O     O_3   0.504860 0.661550 0.563990 -0.376094
O10   O     O_3   0.495140 0.161550 0.436010 -0.376093
V1    V     V_3+5 0.499100 0.935510 0.488130 1.384144
V2    V     V_3+5 0.500900 0.435510 0.511870 1.384143
C5    C     C_1   0.716419 0.144786 0.716358 -0.182311
C6    C     C_1   0.283581 0.644786 0.283642 -0.182310
C7    C     C_1   0.784190 0.134148 0.782890 -0.174683
C8    C     C_1   0.215810 0.634148 0.217110 -0.174682
C9    C     C_3   0.224118 0.333367 0.802923 0.438821
C10   C     C_3   0.775881 0.833365 0.197078 0.438812
H1    H     H_    0.261815 0.374696 0.878504 0.069698
H2    H     H_    0.738185 0.874692 0.121497 0.069698
C11   C     C_3   0.291231 0.341642 0.725599 -0.418312
C12   C     C_3   0.708770 0.841641 0.274402 -0.418313
H3    H     H_    0.354748 0.417470 0.760038 0.125366
H4    H     H_    0.645254 0.917472 0.239965 0.125370
H5    H     H_    0.258991 0.421923 0.658092 0.202604
H6    H     H_    0.741012 0.921919 0.341910 0.202603
H7    H     H_    0.101355 0.195139 0.662205 0.180554
H8    H     H_    0.898642 0.695149 0.337796 0.180555
H9    H     H_    0.205759 0.117123 0.560719 0.124592
H10   H     H_    0.794240 0.617110 0.439283 0.124587
C13   C     C_3   0.144089 0.076664 0.696554 -0.017406
C14   C     C_3   0.855912 0.576667 0.303446 -0.017383
C15   C     C_3   0.267597 0.005585 0.851565 0.415851
C16   C     C_3   0.732404 0.505584 0.148437 0.415861
C17   C     C_3   0.184295 0.133372 0.808774 -0.139343
C18   C     C_3   0.815705 0.633372 0.191226 -0.139340
H11   H     H_    0.291702 0.040135 0.932396 0.008200
H12   H     H_    0.708300 0.540129 0.067608 0.008200
C19   C     C_3   0.316410 0.143401 0.692750 -0.077814
C20   C     C_3   0.683590 0.643400 0.307250 -0.077818
C21   C     C_3   0.225684 0.053038 0.636521 -0.328807
C22   C     C_3   0.774316 0.553032 0.363478 -0.328808
C23   C     C_3   0.350718 0.032984 0.793694 -0.096030
C24   C     C_3   0.649282 0.532985 0.206306 -0.096028
H13   H     H_    0.400384 0.125063 0.842551 0.085816
H14   H     H_    0.599617 0.625065 0.157449 0.085817
H15   H     H_    0.238666 0.903935 0.624095 0.178457
H16   H     H_    0.761335 0.403925 0.375900 0.178463
O11   O     O_R   0.912140 0.786650 0.084610 -0.510884
O12   O     O_R   0.087860 0.286650 0.915390 -0.510885
O13   O     O_R   0.102040 0.454810 0.110430 -0.549922
O14   O     O_R   0.897960 0.954810 0.889570 -0.549922
C25   C     C_R   0.134905 0.623557 0.137040 0.717944
C26   C     C_R   0.865095 0.123557 0.862960 0.717944
O15   O     O_R   0.913690 0.457060 0.096650 -0.510256
O16   O     O_R   0.086310 0.957060 0.903350 -0.510255
O17   O     O_R   0.898200 0.284560 0.901540 -0.530361
O18   O     O_R   0.101800 0.784560 0.098460 -0.530360
C27   C     C_R   0.886926 0.625905 0.120239 0.681910
C28   C     C_R   0.113074 0.125905 0.879761 0.681910
O19   O     O_3   0.995160 0.617270 0.936040 -0.363031
O20   O     O_3   0.004840 0.117270 0.063960 -0.363031
V3    V     V_3+5 0.000900 0.343280 0.011870 1.550643
V4    V     V_3+5 0.999100 0.843280 0.988130 1.550644
F1    F     F_    0.153728 0.460426 0.774910 -0.659609
F2    F     F_    0.846270 0.960424 0.225088 -0.659609
C29   C     C_3   0.402978 0.847472 0.784260 -0.236024
C30   C     C_3   0.507836 0.873351 0.800081 -0.774809
H17   H     H_    0.526652 0.993859 0.757379 0.226034
H18   H     H_    0.534872 0.897797 0.881227 0.200802
H19   H     H_    0.541152 0.747133 0.775700 0.228173
H20   H     H_    0.391001 0.747874 0.843605 0.215968
H21   H     H_    0.377829 0.778121 0.711316 0.200435
C31   C     C_3   0.597021 0.347474 0.215739 -0.236024
C32   C     C_3   0.492163 0.373354 0.199915 -0.774833
H22   H     H_    0.473346 0.493857 0.242617 0.226039
H23   H     H_    0.465128 0.397803 0.118770 0.200807
H24   H     H_    0.458848 0.247137 0.224293 0.228175
H25   H     H_    0.609000 0.247875 0.156396 0.215969
H26   H     H_    0.622168 0.278123 0.288683 0.200437
C33   C     C_3   0.077858 0.907764 0.682831 -0.253672
C34   C     C_3   0.032408 0.878882 0.572966 -0.842580
H27   H     H_    0.994225 0.005117 0.543184 0.234878
H28   H     H_    0.084604 0.843844 0.525130 0.234161
H29   H     H_    0.982186 0.763082 0.568670 0.233703
H30   H     H_    0.114890 0.779535 0.710240 0.307175
H31   H     H_    0.020515 0.929709 0.725650 0.175099
C35   C     C_3   0.922150 0.407776 0.317171 -0.253675
C36   C     C_3   0.967604 0.378910 0.427034 -0.842610
H32   H     H_    0.005787 0.505148 0.456806 0.234883
H33   H     H_    0.915410 0.343885 0.474875 0.234170
H34   H     H_    0.017825 0.263110 0.431334 0.233705
H35   H     H_    0.885124 0.279536 0.289765 0.307165
H36   H     H_    0.979494 0.429726 0.274350 0.175096
F3    F     F_    0.238670 0.822660 0.848668 -0.665032
F4    F     F_    0.761331 0.322664 0.151338 -0.665030

loop_
_geom_bond_atom_site_label_1
_geom_bond_atom_site_label_2
_ccdc_geom_bond_type
C3    C6    S    
C36   H32   S    
H9    C21   S    
O1    C3    A    
C15   F3    S    
O2    C4    A    
C11   C19   S    
C2    O7    A    
C33   H31   S    
C12   C20   S    
C25   O18   A    
C23   H13   S    
C33   C34   S    
O5    C3    A    
C17   C28   S    
C18   C27   S    
H8    C14   S    
C10   H2    S    
C16   H12   S    
C29   H20   S    
C34   H28   S    
C21   H15   S    
C22   H16   S    
C24   C31   S    
O11   V4    S    
O15   V3    S    
C31   H25   S    
C4    C5    S    
C14   C22   S    
H10   C22   S    
C15   C23   S    
C16   C24   S    
C14   C35   S    
C26   O17   A    
O5    V1    S    
O20   V3    S    
C36   H33   S    
C30   H19   S    
C20   C22   S    
C35   H35   S    
C7    C26   S    
C11   H5    S    
C35   H36   S    
C14   C18   S    
C30   H18   S    
C32   H23   S    
C31   C32   S    
O12   V3    S    
O14   V4    S    
C9    F1    S    
O4    V2    S    
C13   C17   S    
O17   V3    S    
C9    C17   S    
O6    C4    A    
O19   V4    S    
C10   C18   S    
O1    V2    S    
O2    V1    S    
C19   C21   S    
C23   C29   S    
C16   F4    S    
C1    C20   S    
C12   H6    S    
C36   H34   S    
C2    C19   S    
O13   C25   A    
H7    C13   S    
O4    C2    A    
C13   C21   S    
C29   H21   S    
O3    V1    S    
C9    C11   S    
C13   C33   S    
C34   H27   S    
C12   H4    S    
C30   H17   S    
O3    C1    A    
C34   H29   S    
C32   H24   S    
O13   V3    S    
C33   H30   S    
C11   H3    S    
O15   C27   A    
O18   V4    S    
O16   C28   A    
C9    H1    S    
O7    V1    S    
C1    O8    A    
C15   C17   S    
O8    V2    S    
C16   C18   S    
O11   C27   A    
O12   C28   A    
C24   H14   S    
C35   C36   S    
C5    C7    T    
O14   C26   A    
C6    C8    T    
C15   H11   S    
C32   H22   S    
C31   H26   S    
C29   C30   S    
O16   V4    S    
O6    V2    S    
C10   C12   S    
O9    V2    S    
O10   V1    S    
C8    C25   S    
C19   C23   S    
C10   F2    S    
C20   C24   S    
