data_mof_unit_66518.cif
_audit_creation_date              2012-12-10T20:33:50-0500
_audit_creation_method            fapswitch 2.2
_symmetry_space_group_name_H-M    P1
_symmetry_Int_Tables_number       1
_space_group_crystal_system       triclinic
_cell_length_a                    28.245783
_cell_length_b                    28.245783
_cell_length_c                    27.642144
_cell_angle_alpha                 89.999982
_cell_angle_beta                  89.999982
_cell_angle_gamma                 90.000992
_cell_volume                      22053.5730032

loop_
_atom_site_label
_atom_site_type_symbol
_atom_type_description
_atom_site_fract_x
_atom_site_fract_y
_atom_site_fract_z
_atom_type_partial_charge
Br1   Br    Br    0.075305 0.679364 0.672440 -0.355200
Br2   Br    Br    0.924519 0.679185 0.672195 -0.355163
Br3   Br    Br    0.679364 0.075305 0.327559 -0.355200
Br4   Br    Br    0.320636 0.924695 0.672440 -0.355200
Br5   Br    Br    0.924519 0.679185 0.327805 -0.355162
Br6   Br    Br    0.075481 0.320815 0.672195 -0.355162
Br7   Br    Br    0.320636 0.924695 0.327559 -0.355200
Br8   Br    Br    0.679364 0.075305 0.672440 -0.355200
Br9   Br    Br    0.575305 0.179364 0.172440 -0.355200
Br10  Br    Br    0.424695 0.820636 0.827559 -0.355200
Br11  Br    Br    0.179185 0.424519 0.172195 -0.355163
Br12  Br    Br    0.924695 0.320636 0.327559 -0.355200
Br13  Br    Br    0.820815 0.575481 0.827805 -0.355163
Br14  Br    Br    0.424695 0.820636 0.172440 -0.355200
Br15  Br    Br    0.575305 0.179364 0.827559 -0.355200
Br16  Br    Br    0.820815 0.575481 0.172195 -0.355162
Br17  Br    Br    0.179185 0.424519 0.827805 -0.355162
Br18  Br    Br    0.575481 0.820815 0.827805 -0.355163
Br19  Br    Br    0.424519 0.179185 0.172195 -0.355163
Br20  Br    Br    0.179364 0.575305 0.827559 -0.355200
Br21  Br    Br    0.820636 0.424695 0.172440 -0.355200
Br22  Br    Br    0.424519 0.179185 0.827805 -0.355162
Br23  Br    Br    0.679185 0.924519 0.672195 -0.355163
Br24  Br    Br    0.575481 0.820815 0.172195 -0.355162
Br25  Br    Br    0.820636 0.424695 0.827559 -0.355200
Br26  Br    Br    0.179364 0.575305 0.172440 -0.355200
Br27  Br    Br    0.320815 0.075481 0.327805 -0.355163
Br28  Br    Br    0.924695 0.320636 0.672440 -0.355200
Br29  Br    Br    0.075305 0.679364 0.327559 -0.355200
Br30  Br    Br    0.320815 0.075481 0.672195 -0.355162
Br31  Br    Br    0.679185 0.924519 0.327805 -0.355162
Br32  Br    Br    0.075481 0.320815 0.327805 -0.355163
C1    C     C_R   0.199173 0.699173 0.750000 -0.028625
C2    C     C_R   0.800828 0.699172 0.750000 -0.028631
C3    C     C_R   0.797137 0.339182 0.218730 -0.080866
C4    C     C_R   0.339135 0.202816 0.781336 -0.080851
C5    C     C_R   0.660865 0.797184 0.218664 -0.080851
C6    C     C_R   0.797137 0.339182 0.781270 -0.080866
C7    C     C_R   0.202863 0.660818 0.218730 -0.080866
C8    C     C_R   0.125546 0.668269 0.718238 0.138295
C9    C     C_R   0.874454 0.331731 0.281762 0.138295
C10   C     C_R   0.668211 0.874397 0.718159 0.138329
C11   C     C_R   0.331789 0.125603 0.281841 0.138329
C12   C     C_R   0.874454 0.331731 0.718238 0.138295
C13   C     C_R   0.699173 0.199173 0.250000 -0.028625
C14   C     C_R   0.125546 0.668269 0.281762 0.138295
C15   C     C_R   0.331789 0.125603 0.718159 0.138329
C16   C     C_R   0.668211 0.874397 0.281841 0.138329
C17   C     C_R   0.125603 0.331789 0.281841 0.138329
C18   C     C_R   0.874397 0.668211 0.718159 0.138329
C19   C     C_R   0.668269 0.125546 0.281762 0.138295
C20   C     C_R   0.331731 0.874454 0.718238 0.138295
C21   C     C_R   0.874397 0.668211 0.281841 0.138329
C22   C     C_R   0.125603 0.331789 0.718159 0.138329
C23   C     C_R   0.331731 0.874454 0.281762 0.138295
C24   C     C_R   0.300827 0.800827 0.750000 -0.028625
C25   C     C_R   0.668269 0.125546 0.718238 0.138295
C26   C     C_R   0.625545 0.168269 0.218238 0.138295
C27   C     C_R   0.374454 0.831731 0.781762 0.138295
C28   C     C_R   0.168211 0.374397 0.218158 0.138329
C29   C     C_R   0.831789 0.625603 0.781841 0.138329
C30   C     C_R   0.374454 0.831731 0.218238 0.138295
C31   C     C_R   0.625545 0.168269 0.781762 0.138295
C32   C     C_R   0.831789 0.625603 0.218158 0.138329
C33   C     C_R   0.168211 0.374397 0.781841 0.138329
C34   C     C_R   0.625603 0.831789 0.781841 0.138329
C35   C     C_R   0.800828 0.699172 0.250000 -0.028631
C36   C     C_R   0.374397 0.168211 0.218158 0.138329
C37   C     C_R   0.168269 0.625545 0.781762 0.138295
C38   C     C_R   0.831731 0.374454 0.218238 0.138295
C39   C     C_R   0.374397 0.168211 0.781841 0.138329
C40   C     C_R   0.625603 0.831789 0.218158 0.138329
C41   C     C_R   0.831731 0.374454 0.781762 0.138295
C42   C     C_R   0.168269 0.625545 0.218238 0.138295
C43   C     C_R   0.128524 0.628524 0.750000 0.033488
C44   C     C_R   0.871475 0.371476 0.250000 0.033488
C45   C     C_R   0.628524 0.871476 0.750000 0.033500
C46   C     C_R   0.199172 0.300827 0.750000 -0.028631
C47   C     C_R   0.371476 0.128524 0.250000 0.033500
C48   C     C_R   0.871476 0.371476 0.750000 0.033488
C49   C     C_R   0.128524 0.628524 0.250000 0.033488
C50   C     C_R   0.371476 0.128524 0.750000 0.033500
C51   C     C_R   0.628524 0.871476 0.250000 0.033500
C52   C     C_R   0.128524 0.371476 0.250000 0.033500
C53   C     C_R   0.871476 0.628524 0.750000 0.033500
C54   C     C_R   0.628524 0.128524 0.250000 0.033488
C55   C     C_R   0.371476 0.871475 0.750000 0.033488
C56   C     C_R   0.871476 0.628524 0.250000 0.033500
C57   C     C_R   0.300827 0.800827 0.250000 -0.028625
C58   C     C_R   0.128524 0.371476 0.750000 0.033500
C59   C     C_R   0.371476 0.871475 0.250000 0.033488
C60   C     C_R   0.628524 0.128524 0.750000 0.033488
C61   C     C_R   0.699173 0.199173 0.750000 -0.028625
C62   C     C_1   0.234974 0.734974 0.750000 0.012161
C63   C     C_1   0.765026 0.265026 0.250000 0.012161
C64   C     C_1   0.734974 0.765026 0.750000 0.012179
C65   C     C_R   0.800827 0.300827 0.250000 -0.028625
C66   C     C_1   0.265026 0.234974 0.250000 0.012179
C67   C     C_1   0.765026 0.265026 0.750000 0.012161
C68   C     C_1   0.234974 0.734974 0.250000 0.012161
C69   C     C_1   0.265026 0.234974 0.750000 0.012179
C70   C     C_1   0.734974 0.765026 0.250000 0.012179
C71   C     C_1   0.234974 0.265026 0.250000 0.012179
C72   C     C_1   0.765026 0.734974 0.750000 0.012179
C73   C     C_1   0.734974 0.234974 0.250000 0.012161
C74   C     C_1   0.265026 0.765026 0.750000 0.012161
C75   C     C_1   0.765026 0.734974 0.250000 0.012179
C76   C     C_R   0.699172 0.800828 0.750000 -0.028631
C77   C     C_1   0.234974 0.265026 0.750000 0.012179
C78   C     C_1   0.265026 0.765026 0.250000 0.012161
C79   C     C_1   0.734974 0.234974 0.750000 0.012161
C80   C     C_1   0.500000 1.000000 0.930896 0.056451
C81   C     C_1   0.500000 0.000000 0.069104 0.056451
C82   C     C_1   1.000000 0.500000 0.930896 0.056451
C83   C     C_1   1.000000 0.500000 0.069104 0.056451
C84   C     C_1   0.000000 0.500000 0.430896 0.056451
C85   C     C_1   1.000000 0.500000 0.569104 0.056451
C86   C     C_1   0.500000 0.000000 0.430896 0.056451
C87   C     C_R   0.300827 0.199172 0.250000 -0.028631
C88   C     C_1   0.500000 0.000000 0.569104 0.056451
C89   C     C_1   0.500000 0.000000 0.974488 0.010215
C90   C     C_1   0.500000 0.000000 0.025512 0.010215
C91   C     C_1   0.000000 0.500000 0.974488 0.010215
C92   C     C_1   1.000000 0.500000 0.025512 0.010215
C93   C     C_1   0.000000 0.500000 0.474488 0.010215
C94   C     C_1   0.000000 0.500000 0.525512 0.010215
C95   C     C_1   0.500000 0.000000 0.474488 0.010215
C96   C     C_1   0.500000 0.000000 0.525512 0.010215
C97   C     C_R   0.500000 0.000000 0.620954 0.508515
C98   C     C_R   0.800827 0.300827 0.750000 -0.028625
C99   C     C_R   0.500000 0.000000 0.379046 0.508515
C100  C     C_R   0.000000 0.500000 0.620954 0.508515
C101  C     C_R   0.000000 0.500000 0.379046 0.508515
C102  C     C_R   0.000000 0.500000 0.120954 0.508515
C103  C     C_R   1.000000 0.500000 0.879046 0.508515
C104  C     C_R   0.500000 0.000000 0.120954 0.508515
C105  C     C_R   0.500000 1.000000 0.879046 0.508515
C106  C     C_R   0.591193 0.908807 0.750000 0.538048
C107  C     C_R   0.408807 0.091192 0.250000 0.538048
C108  C     C_R   0.908807 0.408807 0.750000 0.538010
C109  C     C_R   0.199173 0.699173 0.250000 -0.028625
C110  C     C_R   0.091192 0.591193 0.250000 0.538010
C111  C     C_R   0.408807 0.091193 0.750000 0.538048
C112  C     C_R   0.591193 0.908807 0.250000 0.538048
C113  C     C_R   0.091193 0.591193 0.750000 0.538010
C114  C     C_R   0.908807 0.408807 0.250000 0.538010
C115  C     C_R   0.591193 0.091193 0.250000 0.538010
C116  C     C_R   0.408807 0.908807 0.750000 0.538010
C117  C     C_R   0.908807 0.591193 0.250000 0.538048
C118  C     C_R   0.091192 0.408807 0.750000 0.538048
C119  C     C_R   0.408807 0.908807 0.250000 0.538010
C120  C     C_R   0.300828 0.199172 0.750000 -0.028631
C121  C     C_R   0.591193 0.091193 0.750000 0.538010
C122  C     C_R   0.091192 0.408807 0.250000 0.538048
C123  C     C_R   0.908807 0.591193 0.750000 0.538048
C124  C     C_R   0.160818 0.702863 0.718730 -0.080866
C125  C     C_R   0.839182 0.297137 0.281270 -0.080866
C126  C     C_R   0.702816 0.839135 0.718664 -0.080851
C127  C     C_R   0.297184 0.160865 0.281336 -0.080851
C128  C     C_R   0.839182 0.297137 0.718730 -0.080866
C129  C     C_R   0.160818 0.702863 0.281270 -0.080866
C130  C     C_R   0.297184 0.160865 0.718664 -0.080851
C131  C     C_R   0.699172 0.800828 0.250000 -0.028631
C132  C     C_R   0.702816 0.839135 0.281336 -0.080851
C133  C     C_R   0.160865 0.297184 0.281336 -0.080851
C134  C     C_R   0.839135 0.702816 0.718664 -0.080851
C135  C     C_R   0.702863 0.160818 0.281270 -0.080865
C136  C     C_R   0.297137 0.839182 0.718730 -0.080866
C137  C     C_R   0.839135 0.702816 0.281336 -0.080851
C138  C     C_R   0.160865 0.297184 0.718664 -0.080851
C139  C     C_R   0.297137 0.839182 0.281270 -0.080866
C140  C     C_R   0.702863 0.160818 0.718730 -0.080866
C141  C     C_R   0.660818 0.202863 0.218730 -0.080866
C142  C     C_R   0.199172 0.300828 0.250000 -0.028631
C143  C     C_R   0.339182 0.797137 0.781270 -0.080866
C144  C     C_R   0.202816 0.339135 0.218664 -0.080851
C145  C     C_R   0.797184 0.660865 0.781336 -0.080851
C146  C     C_R   0.339182 0.797137 0.218730 -0.080866
C147  C     C_R   0.660818 0.202863 0.781270 -0.080866
C148  C     C_R   0.797184 0.660865 0.218664 -0.080851
C149  C     C_R   0.202816 0.339135 0.781336 -0.080851
C150  C     C_R   0.660865 0.797184 0.781336 -0.080851
C151  C     C_R   0.339135 0.202816 0.218664 -0.080851
C152  C     C_R   0.202863 0.660818 0.781270 -0.080866
H1    H     H_    0.158291 0.732916 0.694467 0.167759
H2    H     H_    0.841628 0.732832 0.694352 0.167768
H3    H     H_    0.732916 0.158291 0.305533 0.167759
H4    H     H_    0.267084 0.841709 0.694467 0.167759
H5    H     H_    0.841628 0.732832 0.305648 0.167768
H6    H     H_    0.158372 0.267168 0.694352 0.167768
H7    H     H_    0.267084 0.841709 0.305533 0.167759
H8    H     H_    0.732916 0.158291 0.694467 0.167759
H9    H     H_    0.658291 0.232916 0.194467 0.167759
H10   H     H_    0.341709 0.767084 0.805533 0.167759
H11   H     H_    0.232832 0.341628 0.194352 0.167768
H12   H     H_    0.841709 0.267084 0.305533 0.167759
H13   H     H_    0.767168 0.658372 0.805648 0.167768
H14   H     H_    0.341709 0.767084 0.194467 0.167759
H15   H     H_    0.658291 0.232916 0.805533 0.167759
H16   H     H_    0.767168 0.658372 0.194352 0.167768
H17   H     H_    0.232832 0.341628 0.805648 0.167768
H18   H     H_    0.658372 0.767168 0.805648 0.167768
H19   H     H_    0.341628 0.232832 0.194352 0.167768
H20   H     H_    0.232916 0.658291 0.805533 0.167759
H21   H     H_    0.767084 0.341709 0.194467 0.167759
H22   H     H_    0.341628 0.232832 0.805648 0.167768
H23   H     H_    0.732832 0.841628 0.694352 0.167768
H24   H     H_    0.658372 0.767168 0.194352 0.167768
H25   H     H_    0.767084 0.341709 0.805533 0.167759
H26   H     H_    0.232916 0.658291 0.194467 0.167759
H27   H     H_    0.267168 0.158372 0.305648 0.167768
H28   H     H_    0.841709 0.267084 0.694467 0.167759
H29   H     H_    0.158291 0.732916 0.305533 0.167759
H30   H     H_    0.267168 0.158372 0.694352 0.167768
H31   H     H_    0.732832 0.841628 0.305648 0.167768
H32   H     H_    0.158372 0.267168 0.305648 0.167768
O1    O     O_3   0.500000 0.000000 0.750000 -0.492517
O2    O     O_R   0.460660 0.000000 0.356100 -0.511626
O3    O     O_R   1.000000 0.460660 0.643900 -0.511626
O4    O     O_R   1.000000 0.539340 0.356100 -0.511626
O5    O     O_R   0.960660 0.500000 0.143900 -0.511626
O6    O     O_R   0.039340 0.500000 0.856100 -0.511626
O7    O     O_R   0.500000 0.039340 0.143900 -0.511627
O8    O     O_R   0.500000 0.960660 0.856100 -0.511626
O9    O     O_R   0.039340 0.500000 0.143900 -0.511627
O10   O     O_R   0.960660 0.500000 0.856100 -0.511626
O11   O     O_R   0.500000 0.960660 0.143900 -0.511626
O12   O     O_3   0.500000 0.000000 0.250000 -0.492517
O13   O     O_R   0.500000 0.039340 0.856100 -0.511626
O14   O     O_R   0.594350 0.944820 0.722300 -0.490308
O15   O     O_R   0.405650 0.055180 0.277700 -0.490308
O16   O     O_R   0.944820 0.405650 0.722300 -0.490346
O17   O     O_R   0.055180 0.594350 0.277700 -0.490346
O18   O     O_R   0.405650 0.055180 0.722300 -0.490308
O19   O     O_R   0.594350 0.944820 0.277700 -0.490308
O20   O     O_R   0.055180 0.594350 0.722300 -0.490346
O21   O     O_R   0.944820 0.405650 0.277700 -0.490346
O22   O     O_R   0.594350 0.055180 0.277700 -0.490346
O23   O     O_3   1.000000 0.500000 0.750000 -0.492517
O24   O     O_R   0.405650 0.944820 0.722300 -0.490346
O25   O     O_R   0.944820 0.594350 0.277700 -0.490308
O26   O     O_R   0.055180 0.405650 0.722300 -0.490308
O27   O     O_R   0.405650 0.944820 0.277700 -0.490346
O28   O     O_R   0.594350 0.055180 0.722300 -0.490346
O29   O     O_R   0.055180 0.405650 0.277700 -0.490308
O30   O     O_R   0.944820 0.594350 0.722300 -0.490308
O31   O     O_R   0.094350 0.444820 0.222300 -0.490308
O32   O     O_R   0.905650 0.555180 0.777700 -0.490308
O33   O     O_R   0.444820 0.905650 0.222300 -0.490346
O34   O     O_3   1.000000 0.500000 0.250000 -0.492517
O35   O     O_R   0.555180 0.094350 0.777700 -0.490346
O36   O     O_R   0.905650 0.555180 0.222300 -0.490308
O37   O     O_R   0.094350 0.444820 0.777700 -0.490308
O38   O     O_R   0.555180 0.094350 0.222300 -0.490346
O39   O     O_R   0.444820 0.905650 0.777700 -0.490346
O40   O     O_R   0.094350 0.555180 0.777700 -0.490346
O41   O     O_R   0.905650 0.444820 0.222300 -0.490346
O42   O     O_R   0.444820 0.094350 0.777700 -0.490308
O43   O     O_R   0.555180 0.905650 0.222300 -0.490308
O44   O     O_R   0.905650 0.444820 0.777700 -0.490346
O45   O     O_R   0.460660 0.000000 0.643900 -0.511626
O46   O     O_R   0.094350 0.555180 0.222300 -0.490346
O47   O     O_R   0.555180 0.905650 0.777700 -0.490308
O48   O     O_R   0.444820 0.094350 0.222300 -0.490308
O49   O     O_R   0.539340 0.000000 0.356100 -0.511626
O50   O     O_R   1.000000 0.539340 0.643900 -0.511627
O51   O     O_R   1.000000 0.460660 0.356100 -0.511626
O52   O     O_R   0.539340 0.000000 0.643900 -0.511627
Zn1   Zn    Zn3+2 0.500000 0.943960 0.789960 1.032682
Zn2   Zn    Zn3+2 0.000000 0.556040 0.710040 1.032682
Zn3   Zn    Zn3+2 0.443960 0.000000 0.289960 1.032682
Zn4   Zn    Zn3+2 0.556040 0.000000 0.710040 1.032682
Zn5   Zn    Zn3+2 0.000000 0.556040 0.289960 1.032682
Zn6   Zn    Zn3+2 0.000000 0.443960 0.710040 1.032682
Zn7   Zn    Zn3+2 0.556040 0.000000 0.289960 1.032682
Zn8   Zn    Zn3+2 0.443960 0.000000 0.710040 1.032682
Zn9   Zn    Zn3+2 0.500000 0.056040 0.210040 1.032682
Zn10  Zn    Zn3+2 0.943960 0.500000 0.789960 1.032682
Zn11  Zn    Zn3+2 0.056040 0.500000 0.210040 1.032682
Zn12  Zn    Zn3+2 0.500000 0.056040 0.789960 1.032682
Zn13  Zn    Zn3+2 0.500000 0.943960 0.210040 1.032682
Zn14  Zn    Zn3+2 0.056040 0.500000 0.789960 1.032682
Zn15  Zn    Zn3+2 0.943960 0.500000 0.210040 1.032682
Zn16  Zn    Zn3+2 0.000000 0.443960 0.289960 1.032682

loop_
_geom_bond_atom_site_label_1
_geom_bond_atom_site_label_2
_ccdc_geom_bond_type
O12   Zn13  S    
O1    Zn8   S    
C47   C107  S    
C36   C151  A    
C68   C78   T    
C136  H4    S    
C25   C60   A    
C125  H12   S    
O19   Zn7   S    
C56   C117  S    
C22   C138  A    
C19   C135  A    
C131  C132  A    
Br7   C23   S    
C84   C93   T    
O6    Zn14  S    
C1    C62   S    
C61   C147  A    
C1    C124  A    
O18   Zn8   S    
C91   C92   S    
C61   C140  A    
O45   Zn8   S    
C33   C149  A    
C124  H1    S    
C43   C113  S    
C29   C145  A    
C121  O35   A    
C105  O8    A    
Br24  C40   S    
C2    C134  A    
Br23  C10   S    
O33   Zn13  S    
Br4   C20   S    
C99   O2    A    
C152  H20   S    
C126  H23   S    
C6    C98   A    
C17   C52   A    
Br5   C21   S    
C103  O10   A    
C22   C58   A    
C27   C143  A    
C35   C148  A    
O39   Zn1   S    
C51   C112  S    
C32   C148  A    
O38   Zn9   S    
O34   Zn5   S    
C76   C126  A    
C117  O25   A    
O12   Zn7   S    
C11   C47   A    
C66   C71   T    
Br14  C30   S    
O23   Zn10  S    
O11   Zn13  S    
C46   C138  A    
C31   C147  A    
C98   C128  A    
Br9   C26   S    
O10   Zn10  S    
C7    C42   A    
O25   Zn5   S    
C112  O43   A    
O21   Zn16  S    
C10   C45   A    
O35   Zn12  S    
C23   C59   A    
C86   C99   S    
Br2   C18   S    
C18   C53   A    
O8    Zn1   S    
C15   C130  A    
C52   C122  S    
C3    H21   S    
C110  O17   A    
C81   C90   T    
C7    C109  A    
C3    C38   A    
C70   C131  S    
C32   C56   A    
C14   C129  A    
O15   Zn3   S    
C31   C60   A    
C18   C134  A    
Br29  C14   S    
Br17  C33   S    
C82   C103  S    
C114  O21   A    
C113  O40   A    
C37   C43   A    
C60   C121  S    
C137  H5    S    
C21   C56   A    
C63   C73   T    
C85   C94   T    
C143  H10   S    
O32   Zn10  S    
O23   Zn2   S    
C4    C39   A    
C21   C137  A    
C5    C131  A    
C39   C50   A    
C117  O36   A    
C64   C76   S    
C44   C114  S    
C6    H25   S    
C116  O24   A    
C107  O48   A    
C54   C115  S    
O31   Zn11  S    
C3    C65   A    
C10   C126  A    
C111  O42   A    
Br6   C22   S    
C97   O45   A    
C26   C54   A    
C19   C54   A    
C23   C139  A    
C13   C73   S    
C101  O51   A    
O27   Zn3   S    
O1    Zn12  S    
C132  H31   S    
C33   C58   A    
C128  H28   S    
O23   Zn14  S    
C59   C119  S    
C101  O4    A    
C55   C116  S    
C24   C143  A    
C88   C97   S    
C40   C51   A    
C102  O9    A    
O52   Zn4   S    
Br30  C15   S    
C12   C48   A    
O5    Zn15  S    
C45   C106  S    
O26   Zn6   S    
O13   Zn12  S    
C105  O13   A    
O50   Zn2   S    
O36   Zn15  S    
Br1   C8    S    
Br3   C19   S    
C135  H3    S    
C4    C120  A    
C118  O37   A    
C4    H22   S    
C84   C101  S    
C133  C142  A    
C48   C108  S    
C100  O50   A    
C57   C78   S    
C81   C104  S    
C71   C142  S    
C140  H8    S    
O24   Zn8   S    
C7    H26   S    
C65   C125  A    
C114  O41   A    
C8    C43   A    
C17   C133  A    
Br12  C9    S    
C148  H16   S    
O16   Zn6   S    
Br8   C25   S    
C115  O22   A    
C14   C49   A    
O44   Zn10  S    
C133  H32   S    
O28   Zn4   S    
C122  O29   A    
C106  O14   A    
C102  O5    A    
C67   C79   T    
C30   C59   A    
C24   C136  A    
O29   Zn16  S    
O20   Zn2   S    
O48   Zn9   S    
O9    Zn11  S    
C1    C152  A    
C139  H7    S    
C70   C75   T    
C142  C144  A    
C87   C151  A    
C57   C146  A    
C122  O31   A    
C134  H2    S    
C100  O3    A    
O17   Zn5   S    
C13   C135  A    
C24   C74   S    
C89   C90   S    
C97   O52   A    
C29   C53   A    
C61   C79   S    
C9    C125  A    
C82   C91   T    
C87   C127  A    
C49   C110  S    
C83   C102  S    
C104  O11   A    
C110  O46   A    
C108  O16   A    
Br31  C16   S    
C64   C72   T    
O42   Zn12  S    
C93   C94   S    
C12   C128  A    
C5    H24   S    
Br20  C37   S    
C2    C72   S    
C26   C141  A    
C86   C95   T    
C38   C44   A    
O22   Zn7   S    
C108  O44   A    
Br22  C39   S    
O37   Zn14  S    
C111  O18   A    
C130  H30   S    
C123  O30   A    
C34   C45   A    
C129  H29   S    
C62   C74   T    
Br19  C36   S    
Br15  C31   S    
C83   C92   T    
C69   C120  S    
C67   C98   S    
C57   C139  A    
C150  H18   S    
O34   Zn16  S    
C80   C105  S    
C15   C50   A    
C20   C55   A    
C149  H17   S    
O43   Zn13  S    
C50   C111  S    
O30   Zn2   S    
O12   Zn3   S    
C30   C146  A    
C107  O15   A    
C58   C118  S    
C63   C65   S    
C16   C132  A    
C5    C40   A    
C76   C150  A    
O12   Zn9   S    
Br18  C34   S    
O1    Zn4   S    
C85   C100  S    
C138  H6    S    
C115  O38   A    
C11   C127  A    
O2    Zn3   S    
C147  H15   S    
C16   C51   A    
O40   Zn14  S    
Br21  C38   S    
C146  H14   S    
C46   C149  A    
C151  H19   S    
O34   Zn11  S    
C25   C140  A    
O7    Zn9   S    
C80   C89   T    
C127  H27   S    
C123  O32   A    
C20   C136  A    
C9    C44   A    
C141  H9    S    
C28   C52   A    
C35   C75   S    
C88   C96   T    
C104  O7    A    
O14   Zn4   S    
O51   Zn16  S    
C112  O19   A    
O34   Zn15  S    
O1    Zn1   S    
O46   Zn11  S    
C119  O33   A    
Br26  C42   S    
C41   C48   A    
Br28  C12   S    
Br10  C27   S    
C46   C77   S    
Br25  C41   S    
Br11  C28   S    
O3    Zn6   S    
C144  H11   S    
C34   C150  A    
C109  C129  A    
C27   C55   A    
Br32  C17   S    
O47   Zn1   S    
C68   C109  S    
C35   C137  A    
C37   C152  A    
C119  O27   A    
Br27  C11   S    
C13   C141  A    
C118  O26   A    
Br13  C29   S    
C106  O47   A    
C28   C144  A    
C116  O39   A    
O49   Zn7   S    
C36   C47   A    
C113  O20   A    
O41   Zn15  S    
C121  O28   A    
C66   C87   S    
C8    C124  A    
C2    C145  A    
C145  H13   S    
C42   C49   A    
Br16  C32   S    
C53   C123  S    
O4    Zn5   S    
C99   O49   A    
C69   C77   T    
C103  O6    A    
C120  C130  A    
C95   C96   S    
C6    C41   A    
O23   Zn6   S    
