data_mof_unit_7637.cif
_audit_creation_date              2012-12-10T17:49:38-0500
_audit_creation_method            fapswitch 2.2
_symmetry_space_group_name_H-M    P1
_symmetry_Int_Tables_number       1
_space_group_crystal_system       triclinic
_cell_length_a                    10.499684
_cell_length_b                    10.711183
_cell_length_c                    9.933858
_cell_angle_alpha                 89.21672
_cell_angle_beta                  90.569206
_cell_angle_gamma                 94.590039
_cell_volume                      1113.47082625

loop_
_atom_site_label
_atom_site_type_symbol
_atom_type_description
_atom_site_fract_x
_atom_site_fract_y
_atom_site_fract_z
_atom_type_partial_charge
C1    C     C_R   0.498819 0.260653 0.501221 0.807907
C2    C     C_R   0.610014 0.077132 0.570346 0.053778
C3    C     C_R   0.506797 0.129482 0.504799 -0.048125
C4    C     C_R   0.257367 0.493419 0.499467 0.832081
C5    C     C_R   0.413006 0.057170 0.434726 -0.201081
C6    C     C_R   0.417128 0.929669 0.432732 -0.212068
C7    C     C_R   0.518541 0.874623 0.494834 -0.089076
C8    C     C_R   0.326796 0.334095 0.140582 -0.135127
C9    C     C_R   0.241453 0.252030 0.070568 -0.196044
C10   C     C_R   0.242235 0.251255 0.930986 -0.184762
C11   C     C_R   0.328195 0.332742 0.860410 -0.119973
C12   C     C_3   0.963392 0.567196 0.406442 -0.080642
C13   C     C_R   0.414975 0.417863 0.927939 0.088606
C14   C     C_R   0.414678 0.418205 0.072471 0.154433
C15   C     C_R   0.582014 0.577855 0.071849 -0.166298
C16   C     C_R   0.507737 0.740373 0.498947 0.967470
C17   C     C_R   0.582335 0.577947 0.929176 0.418485
C18   C     C_R   0.741464 0.490058 0.500539 0.944914
C19   C     C_3   0.036419 0.402320 0.592340 -0.205203
C20   C     C_3   0.947615 0.369365 0.470557 -0.232926
C21   C     C_3   0.876963 0.484981 0.500773 0.021518
C22   C     C_3   0.962854 0.517685 0.622552 -0.079503
C23   C     C_3   0.036643 0.451997 0.376619 -0.175841
C24   C     C_3   0.050902 0.600434 0.528417 -0.120767
C25   C     C_3   0.121934 0.485655 0.498460 0.010725
C26   C     C_R   0.705872 0.150989 0.641891 -0.199542
C27   C     C_R   0.811640 0.098050 0.696174 -0.236290
C28   C     C_R   0.829487 0.974018 0.670839 -0.107950
C29   C     C_R   0.738566 0.901191 0.596483 0.428090
C30   C     C_R   0.621459 0.948141 0.556447 0.018086
Cl1   Cl    Cl    0.793703 0.770589 0.523248 -0.698421
Cl2   Cl    Cl    0.693753 0.681614 0.846780 -0.602908
H1    H     H_    0.900924 0.275462 0.446951 0.155878
H2    H     H_    0.929356 0.544465 0.722994 0.191370
H3    H     H_    0.097181 0.694657 0.551626 0.146163
H4    H     H_    0.930732 0.633563 0.329052 0.178606
H5    H     H_    0.070999 0.425143 0.276533 0.154397
H6    H     H_    0.334575 0.099524 0.384667 0.136469
H7    H     H_    0.703099 0.250335 0.655031 0.175524
H8    H     H_    0.884077 0.155551 0.750271 0.156104
H9    H     H_    0.918353 0.936760 0.701549 0.168378
H10   H     H_    0.339988 0.873342 0.383945 0.150897
H11   H     H_    0.648960 0.641296 0.126006 0.188264
H12   H     H_    0.321654 0.329133 0.247760 0.189094
H13   H     H_    0.174622 0.188330 0.125118 0.147590
H14   H     H_    0.176060 0.186883 0.876925 0.139807
H15   H     H_    0.324652 0.326382 0.753308 0.191295
H16   H     H_    0.071083 0.335073 0.667627 0.133884
N1    N     N_R   0.498800 0.498800 0.142780 -0.145733
N2    N     N_R   0.498760 0.498720 0.857170 -0.154917
O1    O     O_R   0.500000 0.316780 0.614690 -0.656123
O2    O     O_R   0.499990 0.316750 0.385360 -0.632110
O3    O     O_R   0.313960 0.499980 0.614650 -0.639394
O4    O     O_R   0.313940 0.499960 0.385310 -0.644127
O5    O     O_R   0.500010 0.683250 0.614640 -0.554650
O6    O     O_R   0.500000 0.683220 0.385310 -0.602958
O7    O     O_R   0.686060 0.500040 0.614690 -0.568209
O8    O     O_R   0.686040 0.500020 0.385350 -0.609069
Zn1   Zn    Zn3+2 0.500010 0.500020 0.653130 0.992816
Zn2   Zn    Zn3+2 0.499990 0.499980 0.346870 0.957209

loop_
_geom_bond_atom_site_label_1
_geom_bond_atom_site_label_2
_ccdc_geom_bond_type
C17   N2    A    
C10   H14   S    
C16   O6    A    
C9    H13   S    
C6    C7    A    
C23   H5    S    
C4    O3    A    
C12   H4    S    
C18   C21   S    
C11   C13   A    
C9    C10   A    
C12   C24   S    
C18   O7    A    
C11   H15   S    
C19   C20   S    
C20   C23   S    
C27   H8    S    
C2    C30   A    
C3    C5    A    
C15   N1    A    
C2    C3    A    
O3    Zn1   S    
C16   O5    A    
C15   H11   S    
C29   Cl1   S    
C7    C30   A    
O4    Zn2   S    
C13   C14   A    
C24   C25   S    
C1    O1    A    
C12   C23   S    
C26   C27   A    
C29   C30   A    
N1    Zn2   S    
C19   C25   S    
N2    Zn1   S    
C28   C29   A    
C4    C25   S    
O5    Zn1   S    
C23   C25   S    
C5    C6    A    
C22   H2    S    
C1    O2    A    
C22   C24   S    
C26   H7    S    
O7    Zn1   S    
C14   N1    A    
O1    Zn1   S    
C10   C11   A    
C20   H1    S    
O8    Zn2   S    
C13   N2    A    
C24   H3    S    
O6    Zn2   S    
C28   H9    S    
C19   C22   S    
C5    H6    S    
C20   C21   S    
C2    C26   A    
C6    H10   S    
C27   C28   A    
C15   C17   A    
C17   Cl2   S    
C19   H16   S    
C7    C16   S    
C8    C14   A    
O2    Zn2   S    
C4    O4    A    
C21   C22   S    
C12   C21   S    
C18   O8    A    
C8    H12   S    
C8    C9    A    
C1    C3    S    
