data_mof_unit_58352.cif
_audit_creation_date              2013-03-05T15:48:51-0500
_audit_creation_method            fapswitch 2.2
_symmetry_space_group_name_H-M    P1
_symmetry_Int_Tables_number       1
_space_group_crystal_system       triclinic
_cell_length_a                    18.049287
_cell_length_b                    24.867093
_cell_length_c                    15.300236
_cell_angle_alpha                 89.755784
_cell_angle_beta                  125.858466
_cell_angle_gamma                 90.065978
_cell_volume                      5565.6221593

loop_
_atom_site_label
_atom_site_type_symbol
_atom_site_description
_atom_site_fract_x
_atom_site_fract_y
_atom_site_fract_z
_atom_type_partial_charge
C1    C     C_R   0.912550 0.868212 0.094199 0.324832
C2    C     C_R   0.942448 0.151280 0.089332 0.229385
C3    C     C_R   0.444780 0.347913 0.089662 0.257013
C4    C     C_R   0.412567 0.631281 0.094079 0.324724
N1    N     N_R   0.950530 0.896220 0.057200 -0.160097
N2    N     N_R   0.950530 0.103780 0.057200 -0.134686
N3    N     N_R   0.450530 0.396220 0.057200 -0.136971
N4    N     N_R   0.450530 0.603780 0.057200 -0.157719
C5    C     C_R   0.844375 0.148596 0.909991 0.863877
C6    C     C_R   0.819427 0.867344 0.912530 0.847043
C7    C     C_R   0.321231 0.634176 0.913741 0.862578
C8    C     C_R   0.347013 0.350730 0.911428 0.864637
N5    N     N_R   0.893330 0.103780 0.942800 -0.158913
N6    N     N_R   0.893330 0.896220 0.942800 -0.171189
N7    N     N_R   0.393330 0.603780 0.942800 -0.175504
N8    N     N_R   0.393330 0.396220 0.942800 -0.163010
C9    C     C_R   0.756018 0.955640 0.692418 0.058470
C10   C     C_R   0.760569 0.043421 0.689883 0.012891
C11   C     C_R   0.255201 0.455592 0.692957 0.066227
C12   C     C_R   0.257686 0.543979 0.691579 0.032350
H1    H     H_    0.745155 0.913690 0.674503 0.229869
H2    H     H_    0.758771 0.084129 0.665197 0.234305
H3    H     H_    0.258514 0.415857 0.668607 0.200515
H4    H     H_    0.254117 0.585022 0.667628 0.236161
N9    N     N_R   0.818150 0.971400 0.792440 -0.081796
N10   N     N_R   0.818150 0.028600 0.792440 -0.069392
N11   N     N_R   0.318150 0.471400 0.792440 -0.066263
N12   N     N_R   0.318150 0.528600 0.792440 -0.079035
C13   C     C_R   0.043050 0.045029 0.299460 0.058153
C14   C     C_R   0.058117 0.956612 0.307048 -0.000407
C15   C     C_R   0.567157 0.540852 0.311362 0.019171
C16   C     C_R   0.553715 0.453483 0.303765 0.021748
H5    H     H_    0.042781 0.086243 0.318904 0.192672
H6    H     H_    0.090680 0.918723 0.340072 0.230549
H7    H     H_    0.590969 0.580354 0.342051 0.243711
H8    H     H_    0.552930 0.412214 0.321854 0.193407
N13   N     N_R   0.025710 0.028600 0.207560 -0.067030
N14   N     N_R   0.025710 0.971400 0.207560 -0.081310
N15   N     N_R   0.525710 0.528600 0.207560 -0.073527
N16   N     N_R   0.525710 0.471400 0.207560 -0.065106
C17   C     C_R   0.826340 0.848801 0.005104 -0.095353
C18   C     C_R   0.866995 0.176880 0.000517 -0.093842
C19   C     C_R   0.369664 0.322730 0.002762 -0.110408
C20   C     C_R   0.328269 0.651565 0.007400 -0.095399
C21   C     C_R   0.712282 0.999815 0.624331 0.114742
C22   C     C_R   0.210985 0.499998 0.626669 0.036258
C23   C     C_R   0.063780 0.000640 0.364185 0.093668
C24   C     C_R   0.580177 0.495769 0.372916 0.128340
C25   C     C_R   0.265097 0.954574 0.284608 0.273213
C26   C     C_R   0.263422 0.045549 0.291237 0.385890
C27   C     C_R   0.767437 0.455286 0.276530 0.295790
C28   C     C_R   0.765129 0.546808 0.275059 0.361939
N17   N     N_R   0.181850 0.971400 0.207560 -0.137972
N18   N     N_R   0.181850 0.028600 0.207560 -0.144126
N19   N     N_R   0.681850 0.471400 0.207560 -0.130832
N20   N     N_R   0.681850 0.528600 0.207560 -0.140649
C29   C     C_R   0.980058 0.045730 0.715458 0.781110
C30   C     C_R   0.982483 0.955176 0.717185 0.817890
C31   C     C_R   0.500036 0.544440 0.731548 0.830309
C32   C     C_R   0.481078 0.454742 0.716493 0.785145
N21   N     N_R   0.974290 0.028600 0.792440 -0.177538
N22   N     N_R   0.974290 0.971400 0.792440 -0.181676
N23   N     N_R   0.474290 0.528600 0.792440 -0.184598
N24   N     N_R   0.474290 0.471400 0.792440 -0.177664
C33   C     C_R   0.054637 0.848090 0.910161 0.710294
C34   C     C_R   0.067385 0.149036 0.912390 0.717426
C35   C     C_R   0.564660 0.350118 0.912223 0.727735
C36   C     C_R   0.549597 0.653093 0.909688 0.754065
N25   N     N_R   0.049470 0.896220 0.942800 -0.181956
N26   N     N_R   0.049470 0.103780 0.942800 -0.184843
N27   N     N_R   0.549470 0.396220 0.942800 -0.182132
N28   N     N_R   0.549470 0.603780 0.942800 -0.168171
C37   C     C_R   0.153294 0.148142 0.091649 0.836301
C38   C     C_R   0.134591 0.846716 0.088045 0.881789
C39   C     C_R   0.631112 0.653971 0.087247 0.822307
C40   C     C_R   0.649924 0.350278 0.090976 0.837902
N29   N     N_R   0.106670 0.103780 0.057200 -0.209054
N30   N     N_R   0.106670 0.896220 0.057200 -0.195988
N31   N     N_R   0.606670 0.603780 0.057200 -0.193979
N32   N     N_R   0.606670 0.396220 0.057200 -0.205105
Ni1   Ni    Ni4+2 0.065600 0.934400 0.131190 0.334860
Ni2   Ni    Ni4+2 0.065600 0.065600 0.131190 0.331321
Ni3   Ni    Ni4+2 0.565600 0.434400 0.131190 0.335286
Ni4   Ni    Ni4+2 0.565600 0.565600 0.131190 0.347647
Ni5   Ni    Ni4+2 0.934400 0.065600 0.868810 0.338335
Ni6   Ni    Ni4+2 0.934400 0.934400 0.868810 0.342571
Ni7   Ni    Ni4+2 0.434400 0.565600 0.868810 0.340309
Ni8   Ni    Ni4+2 0.434400 0.434400 0.868810 0.338494
C41   C     C_R   0.321036 0.000130 0.338022 -0.097976
C42   C     C_R   0.824148 0.502070 0.319663 -0.084556
C43   C     C_R   0.992258 0.000829 0.671639 -0.335663
C44   C     C_R   0.504940 0.498852 0.681555 -0.355555
C45   C     C_R   0.108239 0.815924 0.999535 -0.159646
C46   C     C_R   0.134935 0.176471 0.004711 -0.219693
C47   C     C_R   0.630058 0.321231 0.003789 -0.170493
C48   C     C_R   0.601970 0.685601 0.998473 -0.158137
C49   C     C_3   0.052315 0.058465 0.487350 -0.501412
C50   C     C_3   0.961860 0.972598 0.410016 -0.467598
C51   C     C_3   0.501349 0.539110 0.439305 -0.438915
C52   C     C_3   0.530391 0.440609 0.467100 -0.561946
H9    H     H_    0.109440 0.084417 0.504932 0.284936
H10   H     H_    0.963916 0.929096 0.401402 0.301780
H11   H     H_    0.529838 0.579334 0.446710 0.288846
H12   H     H_    0.571560 0.405716 0.473511 0.265060
H13   H     H_    0.989995 0.078215 0.416829 0.208097
H14   H     H_    0.908572 0.987863 0.327115 0.229485
H15   H     H_    0.441208 0.535083 0.353501 0.241194
H16   H     H_    0.461773 0.435574 0.388918 0.230173
C53   C     C_3   0.042772 0.059709 0.579867 0.147982
C54   C     C_3   0.931582 0.986416 0.481666 0.191752
C55   C     C_3   0.464745 0.532236 0.506160 0.137721
C56   C     C_3   0.519485 0.438296 0.559037 0.184572
H17   H     H_    0.981837 0.085608 0.548694 0.204158
H18   H     H_    0.889406 0.023552 0.444599 0.136468
H19   H     H_    0.401025 0.507962 0.454809 0.130651
H20   H     H_    0.446551 0.427231 0.519223 0.179819
C57   C     C_3   0.139435 0.967973 0.561707 0.261355
C58   C     C_3   0.667923 0.501714 0.586063 0.274546
C59   C     C_3   0.056982 0.998826 0.456018 -0.045462
C60   C     C_3   0.573695 0.495324 0.467005 -0.059704
C61   C     C_3   0.019859 0.000820 0.597881 -0.197271
C62   C     C_3   0.535026 0.497050 0.609426 -0.195749
C63   C     C_3   0.108001 0.961369 0.641542 0.252674
C64   C     C_3   0.640202 0.516795 0.667267 0.284293
C65   C     C_3   0.693820 0.193722 0.921413 0.424596
C66   C     C_3   0.653308 0.821511 0.920935 0.416135
C67   C     C_3   0.158119 0.683972 0.912274 0.433092
C68   C     C_3   0.203656 0.308963 0.942240 0.429775
C69   C     C_3   0.101778 0.726169 0.926510 -0.547012
C70   C     C_3   0.142143 0.266254 0.946951 -0.488433
C71   C     C_3   0.637045 0.231986 0.942338 -0.540642
C72   C     C_3   0.597226 0.771949 0.915606 -0.454304
H21   H     H_    0.613128 0.212018 0.986621 0.294025
H22   H     H_    0.539679 0.782956 0.919581 0.298775
H23   H     H_    0.064580 0.707843 0.956741 0.291160
H24   H     H_    0.106654 0.281622 0.981163 0.294898
H25   H     H_    0.046194 0.742853 0.847003 0.306390
H26   H     H_    0.082483 0.254501 0.866135 0.292058
H27   H     H_    0.572667 0.243904 0.864578 0.302311
H28   H     H_    0.561641 0.752481 0.835554 0.284544
H29   H     H_    0.179151 0.797543 0.883196 0.238749
H30   H     H_    0.182465 0.185202 0.871899 0.262389
H31   H     H_    0.681260 0.309103 0.867028 0.245410
H32   H     H_    0.676437 0.689580 0.890068 0.252101
C73   C     C_3   0.300282 0.750602 0.994617 0.794327
C74   C     C_3   0.305643 0.230448 0.952504 0.846274
C75   C     C_3   0.814327 0.271855 0.970654 0.816896
C76   C     C_3   0.781645 0.749443 0.967351 0.845423
C77   C     C_3   0.823620 0.212584 0.126228 0.078871
C78   C     C_3   0.783217 0.799910 0.124734 0.036390
C79   C     C_3   0.271839 0.694094 0.123172 0.068319
C80   C     C_3   0.342111 0.274743 0.135559 0.060687
C81   C     C_3   0.803164 0.213138 0.005606 -0.536850
C82   C     C_3   0.764549 0.806157 0.005279 -0.480191
C83   C     C_3   0.268410 0.693789 0.011333 -0.513956
C84   C     C_3   0.308374 0.285099 0.009962 -0.536666
C85   C     C_3   0.164091 0.771167 0.004402 -0.404188
C86   C     C_3   0.198342 0.216228 0.011082 -0.383204
C87   C     C_3   0.693140 0.281613 0.008103 -0.382517
C88   C     C_3   0.659262 0.729837 0.001954 -0.422312
C89   C     C_3   0.227378 0.793118 0.971745 -0.070932
C90   C     C_3   0.241659 0.190393 0.957382 -0.133255
C91   C     C_3   0.737224 0.308248 0.954345 -0.068720
C92   C     C_3   0.723131 0.705306 0.973904 -0.180674
C93   C     C_3   0.220227 0.745589 0.117583 1.286561
C94   C     C_3   0.271148 0.235835 0.129018 1.330738
C95   C     C_3   0.768453 0.261295 0.125624 1.302397
C96   C     C_3   0.711113 0.759477 0.111722 1.317338
C97   C     C_3   0.465293 0.945434 0.416424 0.514684
C98   C     C_3   0.465514 0.043361 0.376699 0.524675
C99   C     C_3   0.967100 0.446174 0.418970 0.511506
C100  C     C_3   0.973083 0.538545 0.361070 0.544425
H33   H     H_    0.430547 0.932268 0.331428 0.105390
H34   H     H_    0.448199 0.026870 0.299130 0.075247
H35   H     H_    0.937582 0.428389 0.338279 0.115352
H36   H     H_    0.961367 0.515749 0.291353 0.076108
C101  C     C_3   0.567949 0.949909 0.465729 0.021559
C102  C     C_3   0.572411 0.048025 0.454504 0.018311
C103  C     C_3   0.070206 0.446871 0.476293 -0.019521
C104  C     C_3   0.079229 0.542920 0.446593 0.004770
H37   H     H_    0.566665 0.957799 0.393179 0.084199
H38   H     H_    0.595425 0.036927 0.403384 0.134754
H39   H     H_    0.078210 0.448364 0.409463 0.088091
H40   H     H_    0.107604 0.526594 0.404048 0.124586
C105  C     C_3   0.459468 0.012234 0.539807 0.342008
C106  C     C_3   0.953121 0.524291 0.519445 0.331659
C107  C     C_3   0.425329 0.001222 0.418364 -0.453863
C108  C     C_3   0.926697 0.504104 0.404782 -0.452228
C109  C     C_3   0.609288 0.002102 0.544004 -0.362797
C110  C     C_3   0.109174 0.501997 0.543093 -0.348507
C111  C     C_3   0.568901 0.007779 0.615732 0.249954
C112  C     C_3   0.061508 0.515025 0.604703 0.268093
N33   N     N_R   0.967407 0.850774 0.203552 0.254137
O1    O     O_R   0.953761 0.870418 0.271306 -0.352270
O2    O     O_R   0.045196 0.827407 0.241656 -0.171552
N34   N     N_R   0.023537 0.179842 0.169195 0.268058
O3    O     O_R   0.045831 0.223666 0.143722 -0.218688
O4    O     O_R   0.082711 0.158632 0.262977 -0.258907
N35   N     N_R   0.525600 0.319040 0.170327 0.263213
O5    O     O_R   0.585642 0.340438 0.263083 -0.265796
O6    O     O_R   0.545080 0.273137 0.147955 -0.215964
N36   N     N_R   0.461823 0.642378 0.204914 0.244846
O7    O     O_R   0.539736 0.667321 0.253617 -0.186130
O8    O     O_R   0.443689 0.614207 0.261534 -0.408908
N37   N     N_R   0.119504 0.087983 0.674720 0.294975
O9    O     O_R   0.203376 0.080004 0.707891 -0.223476
O10   O     O_R   0.102099 0.132011 0.705060 -0.220758
N38   N     N_R   0.866114 0.948386 0.475777 0.313968
O11   O     O_R   0.844022 0.904065 0.421289 -0.149498
O12   O     O_R   0.810977 0.966133 0.497852 -0.342742
N39   N     N_R   0.431607 0.583020 0.521118 0.309835
O13   O     O_R   0.461061 0.629563 0.514675 -0.137600
O14   O     O_R   0.355991 0.582049 0.513526 -0.279618
N40   N     N_R   0.572558 0.392747 0.631733 0.316872
O15   O     O_R   0.621167 0.396736 0.735789 -0.275189
O16   O     O_R   0.556671 0.344689 0.590964 -0.175771
N41   N     N_R   0.223764 0.001281 0.608540 0.278347
O17   O     O_R   0.300298 0.988366 0.699206 -0.148467
O18   O     O_R   0.231905 0.031467 0.545246 -0.282014
N42   N     N_R   0.161005 0.914356 0.538111 0.238552
O19   O     O_R   0.099318 0.877868 0.481901 -0.260450
O20   O     O_R   0.245378 0.900838 0.580565 -0.159856
N43   N     N_R   0.730597 0.543477 0.595266 0.281331
O21   O     O_R   0.706472 0.578450 0.520045 -0.283414
O22   O     O_R   0.811373 0.548528 0.685552 -0.162646
N44   N     N_R   0.718375 0.449720 0.611175 0.257634
O23   O     O_R   0.736292 0.432159 0.545622 -0.236910
O24   O     O_R   0.742378 0.418852 0.692473 -0.213191
N45   N     N_R   0.185194 0.974541 0.754962 0.271875
O25   O     O_R   0.173592 0.004662 0.815274 -0.346766
O26   O     O_R   0.257800 0.944195 0.805268 -0.167211
N46   N     N_R   0.083802 0.904113 0.643887 0.281880
O27   O     O_R   0.013506 0.880761 0.560674 -0.195952
O28   O     O_R   0.130255 0.875887 0.732531 -0.229920
N47   N     N_R   0.647379 0.575974 0.687828 0.277838
O29   O     O_R   0.632536 0.611571 0.616955 -0.242781
O30   O     O_R   0.686880 0.593348 0.785804 -0.197744
N48   N     N_R   0.705120 0.492126 0.775804 0.297287
O31   O     O_R   0.792413 0.497429 0.821799 -0.170939
O32   O     O_R   0.681834 0.487048 0.841434 -0.318714
N49   N     N_R   0.648066 0.196052 0.802601 0.301727
O33   O     O_R   0.652613 0.237415 0.754162 -0.166419
O34   O     O_R   0.573206 0.168270 0.743114 -0.173733
N50   N     N_R   0.612272 0.833900 0.805785 0.302563
O35   O     O_R   0.613966 0.799605 0.743124 -0.123384
O36   O     O_R   0.539590 0.864278 0.757288 -0.178974
N51   N     N_R   0.125484 0.690299 0.797727 0.305991
O37   O     O_R   0.149824 0.729994 0.764598 -0.162622
O38   O     O_R   0.045259 0.670668 0.724326 -0.171597
N52   N     N_R   0.163038 0.319051 0.826365 0.301087
O39   O     O_R   0.112888 0.283669 0.751295 -0.165839
O40   O     O_R   0.162483 0.367402 0.794496 -0.232523
N53   N     N_R   0.680623 0.137301 0.942909 0.281682
O41   O     O_R   0.605302 0.123389 0.930488 -0.188369
O42   O     O_R   0.730889 0.098661 0.946765 -0.318281
N54   N     N_R   0.633494 0.869684 0.961224 0.270664
O43   O     O_R   0.656729 0.916799 0.947394 -0.210709
O44   O     O_R   0.578473 0.868259 0.990101 -0.207625
N55   N     N_R   0.129672 0.629143 0.920103 0.283544
O45   O     O_R   0.045212 0.619665 0.884218 -0.185555
O46   O     O_R   0.182365 0.587864 0.942329 -0.276410
N56   N     N_R   0.201122 0.360885 0.988980 0.278987
O47   O     O_R   0.239089 0.403743 0.982146 -0.273283
O48   O     O_R   0.157063 0.366454 0.031931 -0.223986
F1    F     F_    0.301023 0.749464 0.904767 -0.565276
F2    F     F_    0.262958 0.240396 0.843874 -0.549649
F3    F     F_    0.800599 0.268148 0.871919 -0.546312
F4    F     F_    0.749053 0.753420 0.860951 -0.564400
F5    F     F_    0.791966 0.165486 0.806141 -0.571661
F6    F     F_    0.757329 0.852977 0.809189 -0.589188
F7    F     F_    0.261700 0.650888 0.811336 -0.581247
F8    F     F_    0.305857 0.330667 0.810791 -0.556936
N57   N     N_R   0.920033 0.218480 0.223866 0.277857
O49   O     O_R   0.970342 0.259870 0.240680 -0.179167
O50   O     O_R   0.949833 0.187573 0.307397 -0.250395
N58   N     N_R   0.873756 0.777891 0.215431 0.289297
O51   O     O_R   0.897903 0.782082 0.313924 -0.089556
O52   O     O_R   0.925717 0.748536 0.202527 -0.228741
N59   N     N_R   0.359224 0.698335 0.232468 0.297174
O53   O     O_R   0.422801 0.732576 0.256581 -0.186550
O54   O     O_R   0.359663 0.681060 0.313358 -0.144643
N60   N     N_R   0.433722 0.248907 0.206295 0.277961
O55   O     O_R   0.492970 0.267125 0.303406 -0.164136
O56   O     O_R   0.449271 0.201204 0.186520 -0.214437
N61   N     N_R   0.792768 0.159813 0.142832 0.274396
O57   O     O_R   0.840647 0.116573 0.161259 -0.340896
O58   O     O_R   0.723670 0.154752 0.148143 -0.208987
N62   N     N_R   0.771332 0.851789 0.164162 0.294100
O59   O     O_R   0.759126 0.851262 0.239973 -0.133377
O60   O     O_R   0.789904 0.898096 0.141472 -0.313794
N63   N     N_R   0.228398 0.643624 0.126733 0.283182
O61   O     O_R   0.272443 0.598319 0.151430 -0.251368
O62   O     O_R   0.149907 0.642480 0.112632 -0.205918
N64   N     N_R   0.345272 0.323998 0.194403 0.284172
O63   O     O_R   0.355932 0.317910 0.285899 -0.176393
O64   O     O_R   0.362301 0.371762 0.176060 -0.366194
F9    F     F_    0.731411 0.247020 0.179784 -0.524362
F10   F     F_    0.645617 0.784013 0.118731 -0.545931
F11   F     F_    0.165661 0.734867 0.151968 -0.526118
F12   F     F_    0.223191 0.261332 0.162619 -0.549129
F13   F     F_    0.282297 0.783937 0.187318 -0.571607
F14   F     F_    0.317446 0.193747 0.200948 -0.539895
F15   F     F_    0.825986 0.303879 0.181767 -0.585915
F16   F     F_    0.755828 0.724379 0.197483 -0.553747
N65   N     N_R   0.396372 0.764119 0.082312 0.275048
O65   O     O_R   0.460962 0.740991 0.082191 -0.238297
O66   O     O_R   0.419165 0.806612 0.142260 -0.174998
N66   N     N_R   0.396492 0.209943 0.987099 0.286379
O67   O     O_R   0.437988 0.235899 0.953213 -0.281279
O68   O     O_R   0.421395 0.160179 0.015684 -0.188892
N67   N     N_R   0.906781 0.296184 0.041091 0.274931
O69   O     O_R   0.956720 0.297186 0.005022 -0.200135
O70   O     O_R   0.926294 0.332274 0.112970 -0.211221
N68   N     N_R   0.877346 0.732148 0.017684 0.293339
O71   O     O_R   0.938195 0.767101 0.035215 -0.331423
O72   O     O_R   0.892102 0.682986 0.002420 -0.178528
N69   N     N_R   0.264760 0.847993 0.005250 0.266369
O73   O     O_R   0.294879 0.871433 0.955706 -0.183255
O74   O     O_R   0.283215 0.870145 0.092678 -0.333656
N70   N     N_R   0.277174 0.135406 0.995233 0.263945
O75   O     O_R   0.255269 0.098104 0.924775 -0.224796
O76   O     O_R   0.326663 0.122008 0.096579 -0.246572
N71   N     N_R   0.764763 0.365358 0.978893 0.284177
O77   O     O_R   0.789938 0.389893 0.925003 -0.163385
O78   O     O_R   0.776869 0.389959 0.061175 -0.341820
N72   N     N_R   0.774212 0.657828 0.040794 0.259300
O79   O     O_R   0.753673 0.610336 0.997273 -0.282194
O80   O     O_R   0.837948 0.661524 0.143300 -0.182244
F17   F     F_    0.450407 0.906773 0.469343 -0.518875
F18   F     F_    0.423634 0.092671 0.345673 -0.527321
F19   F     F_    0.947712 0.413652 0.475807 -0.531860
F20   F     F_    0.932335 0.586740 0.313973 -0.533849
N73   N     N_R   0.618196 0.898322 0.500473 0.289816
O81   O     O_R   0.581196 0.854226 0.504292 -0.095050
O82   O     O_R   0.685735 0.893077 0.492305 -0.239820
N74   N     N_R   0.610447 0.103000 0.487009 0.311277
O83   O     O_R   0.561819 0.143340 0.480850 -0.070771
O84   O     O_R   0.680369 0.114708 0.486039 -0.266697
N75   N     N_R   0.112690 0.394426 0.525819 0.288839
O85   O     O_R   0.100532 0.369722 0.591275 -0.125490
O86   O     O_R   0.153106 0.368056 0.491227 -0.237018
N76   N     N_R   0.118964 0.597633 0.472596 0.311264
O87   O     O_R   0.068561 0.640548 0.443339 -0.071273
O88   O     O_R   0.197705 0.603655 0.488741 -0.266388
N77   N     N_R   0.420108 0.973186 0.576428 0.317777
O89   O     O_R   0.334966 0.959441 0.511002 -0.264313
O90   O     O_R   0.454825 0.970221 0.678715 -0.161288
N78   N     N_R   0.429644 0.066298 0.549053 0.257746
O91   O     O_R   0.390000 0.071997 0.597222 -0.159255
O92   O     O_R   0.457516 0.109781 0.529927 -0.177887
N79   N     N_R   0.900905 0.495250 0.552281 0.313205
O93   O     O_R   0.813366 0.489818 0.482086 -0.321994
O94   O     O_R   0.928605 0.499010 0.652154 -0.171258
N80   N     N_R   0.929435 0.581989 0.516807 0.259040
O95   O     O_R   0.890979 0.597283 0.562887 -0.153014
O96   O     O_R   0.956455 0.619725 0.483208 -0.169653
N81   N     N_R   0.601038 0.959927 0.688186 0.257508
O97   O     O_R   0.585826 0.911615 0.650759 -0.221327
O98   O     O_R   0.657808 0.965144 0.792390 -0.285591
N82   N     N_R   0.603451 0.054958 0.689132 0.252428
O99   O     O_R   0.585615 0.057464 0.760093 -0.180167
O100  O     O_R   0.630211 0.098928 0.670020 -0.293949
N83   N     N_R   0.086185 0.470222 0.683165 0.277705
O101  O     O_R   0.032743 0.429895 0.663130 -0.144660
O102  O     O_R   0.157429 0.475403 0.782812 -0.272246
N84   N     N_R   0.097009 0.563899 0.671667 0.241822
O103  O     O_R   0.079109 0.569116 0.741776 -0.213880
O104  O     O_R   0.117217 0.607218 0.642368 -0.267763
N85   N     N_R   0.280744 0.900959 0.325406 0.316244
O105  O     O_R   0.318578 0.866350 0.299599 -0.155227
O106  O     O_R   0.237372 0.883421 0.364013 -0.197290
N86   N     N_R   0.268854 0.090706 0.352416 0.286907
O107  O     O_R   0.223348 0.089741 0.393651 -0.293957
O108  O     O_R   0.307855 0.135320 0.355954 -0.056652
N87   N     N_R   0.786271 0.403875 0.327307 0.315000
O109  O     O_R   0.829229 0.367158 0.312825 -0.152874
O110  O     O_R   0.751598 0.391414 0.378942 -0.164597
N88   N     N_R   0.778401 0.598590 0.321110 0.278507
O111  O     O_R   0.733085 0.611064 0.359879 -0.245638
O112  O     O_R   0.808641 0.637362 0.293486 -0.114869
F21   F     F_    0.949911 0.094860 0.669806 -0.590243
F22   F     F_    0.958884 0.905149 0.676025 -0.540408
F23   F     F_    0.517900 0.596167 0.723183 -0.577505
F24   F     F_    0.448368 0.406382 0.668649 -0.597751
F25   F     F_    0.997772 0.830943 0.807200 -0.564243
F26   F     F_    0.017857 0.167921 0.809980 -0.562816
F27   F     F_    0.516434 0.332767 0.809109 -0.564376
F28   F     F_    0.484144 0.671166 0.808935 -0.573012
F29   F     F_    0.181710 0.169493 0.186609 -0.527327
F30   F     F_    0.152095 0.827534 0.180932 -0.522864
F31   F     F_    0.633985 0.673172 0.171812 -0.525278
F32   F     F_    0.679914 0.330190 0.187540 -0.529251

loop_
_geom_bond_atom_site_label_1
_geom_bond_atom_site_label_2
_geom_bond_distance
_ccdc_geom_bond_type
C51   H11   1.099684 S    
N81   O97   1.291312 A    
N83   O102  1.303473 A    
N43   O21   1.294502 A    
C104  N76   1.480492 S    
C11   C22   1.388918 A    
C24   C60   1.511096 S    
N73   O81   1.302025 A    
N60   O55   1.303683 A    
C98   C102  1.569388 S    
C78   N58   1.494916 S    
N28   N31   1.418615 A    
C57   C59   1.609640 S    
N52   O40   1.293363 A    
C13   H5    1.069210 S    
C52   H12   1.109066 S    
N50   O35   1.299521 A    
C14   N14   1.321754 A    
N75   O86   1.303320 A    
C5    N5    1.323852 A    
N82   O99   1.302475 A    
C7    N7    1.335675 A    
N63   O61   1.300196 A    
N66   O68   1.300408 A    
C77   C95   1.565479 S    
C98   C107  1.601506 S    
C57   N41   1.496851 S    
N72   O79   1.300795 A    
C79   C83   1.675698 S    
C30   C43   1.393689 A    
N44   O24   1.298231 A    
C49   H13   1.116030 S    
N37   O10   1.299551 A    
N35   O5    1.294188 A    
C95   F9    1.380469 S    
H32   C92   1.116043 S    
C6    C17   1.421937 A    
C38   C45   1.378333 A    
N32   Ni3   1.930395 S    
H31   C91   1.106512 S    
N48   O32   1.301600 A    
N36   O7    1.300714 A    
N71   O77   1.300989 A    
C97   C107  1.572730 S    
C100  F20   1.367562 S    
C102  C109  1.594647 S    
N76   O87   1.299209 A    
N74   O83   1.299930 A    
C12   N12   1.319686 A    
N68   O71   1.299359 A    
C50   H10   1.093606 S    
C9    H1    1.068086 S    
C11   H3    1.071474 S    
N45   O25   1.299640 A    
C36   N28   1.325318 A    
C78   C96   1.561872 S    
N46   O28   1.302343 A    
C40   F32   1.335211 S    
C58   C64   1.633192 S    
C102  H38   1.115003 S    
N21   Ni5   1.930437 S    
C66   C82   1.674650 S    
C1    C17   1.425231 A    
C92   N72   1.475829 S    
C15   C24   1.389705 A    
N14   Ni1   1.930439 S    
C99   F19   1.372108 S    
N19   Ni3   1.935665 S    
C19   C84   1.500366 S    
C70   H26   1.102870 S    
C10   C21   1.387207 A    
C98   H34   1.115215 S    
C101  N73   1.477436 S    
N34   O3    1.296347 A    
N55   O46   1.301628 A    
N87   O109  1.299449 A    
C29   N21   1.311051 A    
C31   N23   1.320130 A    
C50   H14   1.116009 S    
C91   N71   1.479610 S    
C32   N24   1.306849 A    
C9    N9    1.321612 A    
N41   O17   1.299194 A    
N61   O58   1.302380 A    
C53   C61   1.587506 S    
C34   N26   1.326078 A    
C73   C89   1.559588 S    
N29   Ni2   1.924799 S    
C25   N17   1.320790 A    
N78   O91   1.301621 A    
C87   C95   1.570501 S    
C27   N19   1.322299 A    
C88   C96   1.551527 S    
C75   C81   1.605427 S    
C58   C60   1.615018 S    
C61   C63   1.640905 S    
C68   C84   1.643499 S    
C76   N68   1.483960 S    
N27   Ni8   1.933231 S    
C103  N75   1.475169 S    
C69   H25   1.106931 S    
C72   H22   1.110086 S    
N33   O1    1.295257 A    
N5    Ni5   1.930395 S    
C96   F16   1.373339 S    
C37   N29   1.298497 A    
C66   N54   1.486074 S    
N88   O111  1.299101 A    
C97   F17   1.378284 S    
C104  H40   1.115398 S    
N62   O60   1.300373 A    
N3    Ni3   1.935620 S    
N79   O93   1.296472 A    
N17   N18   1.422398 A    
C58   N44   1.495695 S    
N22   Ni6   1.924892 S    
C13   C23   1.377196 A    
C47   C87   1.478284 S    
C16   H8    1.064007 S    
N63   O62   1.302413 A    
C9    C21   1.394247 A    
N15   Ni4   1.924893 S    
C27   C42   1.431477 A    
N53   O41   1.304131 A    
N40   O16   1.302101 A    
C94   F14   1.385504 S    
C49   C53   1.523278 S    
C89   N69   1.476070 S    
N49   O33   1.295577 A    
C109  C111  1.641509 S    
C77   C81   1.656519 S    
C69   H23   1.110726 S    
C35   F27   1.352380 S    
C63   N46   1.495227 S    
N65   O66   1.300863 A    
N54   O44   1.302505 A    
C33   F25   1.351793 S    
C105  N78   1.486525 S    
C56   N40   1.476891 S    
C54   H18   1.115924 S    
C79   N63   1.496692 S    
C106  N80   1.491202 S    
C33   C45   1.374116 A    
C55   C62   1.585490 S    
C35   C47   1.388537 A    
C99   C103  1.523356 S    
C78   N62   1.494348 S    
C97   C101  1.541832 S    
N42   O19   1.298101 A    
C80   N60   1.489342 S    
C26   N86   1.431054 S    
C32   C44   1.392140 A    
C39   F31   1.353274 S    
C52   H16   1.116110 S    
C14   H6    1.066646 S    
C76   C92   1.565431 S    
C8    N8    1.319550 A    
N6    Ni6   1.924802 S    
C6    N6    1.336505 A    
C85   C93   1.538313 S    
N15   N16   1.422398 A    
N9    N10   1.422398 A    
C79   C93   1.556718 S    
N71   O78   1.300333 A    
N70   O76   1.298793 A    
C49   C59   1.577958 S    
C71   C87   1.540992 S    
C67   C69   1.564121 S    
C44   C62   1.489088 S    
C64   N48   1.490073 S    
C65   C71   1.564334 S    
C66   C72   1.565741 S    
N59   O53   1.297057 A    
C51   C55   1.517253 S    
N12   Ni7   1.935666 S    
C96   F10   1.389965 S    
C7    C20   1.431262 A    
C53   N37   1.473193 S    
C95   F15   1.377574 S    
N67   O70   1.301086 A    
C38   N30   1.307657 A    
C67   N55   1.485263 S    
C62   C64   1.631362 S    
C56   H20   1.113932 S    
N28   Ni7   1.935619 S    
N8    Ni8   1.924802 S    
C73   N65   1.482386 S    
C5    F5    1.352851 S    
N39   O14   1.300403 A    
C10   H2    1.072791 S    
C7    F7    1.343594 S    
C40   N32   1.306161 A    
C93   F11   1.386766 S    
C80   C94   1.560269 S    
C106  N79   1.487368 S    
N43   O22   1.300438 A    
C94   F12   1.393180 S    
N56   O47   1.302948 A    
C54   C61   1.585441 S    
N60   O56   1.296452 A    
C90   N70   1.475223 S    
C75   C91   1.553088 S    
C39   N31   1.315200 A    
C2    C18   1.390326 A    
N10   Ni5   1.935666 S    
C101  H37   1.113195 S    
N57   O50   1.304078 A    
N50   O36   1.303574 A    
C2    N34   1.431592 S    
N21   N22   1.422398 A    
C71   H27   1.109798 S    
N23   N24   1.422398 A    
C32   F24   1.352847 S    
N58   O51   1.305190 A    
C46   C86   1.471129 S    
N44   O23   1.298189 A    
C43   C61   1.476605 S    
C75   N67   1.486072 S    
C97   H33   1.113261 S    
N72   O80   1.295690 A    
N26   Ni5   1.935619 S    
C12   C22   1.385402 A    
C100  H36   1.115576 S    
N85   O106  1.300276 A    
C102  N74   1.480253 S    
C30   N22   1.309197 A    
N19   N20   1.422398 A    
C50   C54   1.524490 S    
C41   C107  1.531163 S    
C28   C42   1.408089 A    
C10   N10   1.327979 A    
N47   O29   1.297385 A    
C74   C90   1.558568 S    
C26   N18   1.333893 A    
N36   O8    1.294151 A    
C99   C108  1.571104 S    
C1    N1    1.313651 A    
C88   C92   1.571219 S    
C37   F29   1.337458 S    
C17   C82   1.539193 S    
C3    N3    1.324954 A    
N64   O63   1.304747 A    
N76   O88   1.300695 A    
N68   O72   1.302335 A    
N17   Ni1   1.935665 S    
N69   O74   1.299074 A    
N84   O103  1.295824 A    
N38   O11   1.298485 A    
N83   O101  1.297700 A    
N20   Ni4   1.933226 S    
C68   N56   1.492278 S    
N77   O90   1.302898 A    
C111  N81   1.489400 S    
C100  C104  1.567880 S    
N73   O82   1.302951 A    
C74   N66   1.487185 S    
N81   O98   1.302393 A    
C16   C24   1.367324 A    
C105  N77   1.490511 S    
C37   C46   1.360726 A    
N82   O100  1.294545 A    
C39   C48   1.376612 A    
C105  C111  1.604470 S    
N51   O38   1.301589 A    
N34   O4    1.295066 A    
C67   C83   1.669369 S    
C4    C20   1.400097 A    
N52   O39   1.304409 A    
C68   N52   1.489125 S    
C34   F26   1.352226 S    
C77   N57   1.495680 S    
C25   N85   1.426255 S    
N61   O57   1.302526 A    
N1    Ni1   1.935620 S    
C26   C41   1.411797 A    
C4    N36   1.406904 S    
N75   O85   1.296328 A    
N78   O92   1.294778 A    
C72   C88   1.534147 S    
N1    N6    1.418615 A    
N74   O84   1.303371 A    
N3    N8    1.418615 A    
C52   C56   1.531152 S    
N4    N7    1.418615 A    
C15   H7    1.066140 S    
N13   Ni2   1.924893 S    
C98   F18   1.370053 S    
C67   N51   1.493902 S    
C31   F23   1.349406 S    
C85   C89   1.586607 S    
N18   Ni2   1.933226 S    
C86   C94   1.564791 S    
C76   C82   1.624405 S    
N48   O31   1.302450 A    
C110  C112  1.639223 S    
C29   C43   1.387303 A    
C58   N43   1.479861 S    
N4    Ni4   1.933230 S    
C8    F8    1.355454 S    
C68   C70   1.567234 S    
H30   C90   1.110310 S    
C27   N87   1.427131 S    
N79   O94   1.303763 A    
C72   H28   1.108947 S    
C51   H15   1.114970 S    
N86   O107  1.296227 A    
C36   C48   1.376795 A    
C69   C85   1.541249 S    
C70   C86   1.538061 S    
C76   F4    1.372178 S    
N45   O26   1.301870 A    
C104  C110  1.600378 S    
N62   O59   1.301291 A    
N59   O54   1.303980 A    
N30   Ni1   1.930395 S    
N31   Ni4   1.924799 S    
C33   N25   1.323055 A    
N46   O27   1.296183 A    
C35   N27   1.328105 A    
C31   C44   1.401801 A    
C55   N39   1.472900 S    
C105  C107  1.603052 S    
N65   O65   1.301521 A    
C6    F6    1.345942 S    
C13   N13   1.315666 A    
N35   O6    1.299626 A    
C54   N38   1.473814 S    
N24   Ni8   1.924892 S    
N64   O64   1.296682 A    
N67   O69   1.303935 A    
H29   C89   1.105744 S    
N2    Ni2   1.933230 S    
C1    N33   1.421860 S    
C4    N4    1.308781 A    
N42   O20   1.301726 A    
C50   C59   1.566539 S    
N37   O9    1.299358 A    
C3    C19   1.375265 A    
C5    C18   1.387421 A    
N13   N14   1.422398 A    
N69   O73   1.299303 A    
C80   C84   1.659863 S    
C30   F22   1.347889 S    
C8    C19   1.388451 A    
C40   C47   1.370066 A    
C57   N42   1.493167 S    
C74   F2    1.383456 S    
C79   N59   1.485360 S    
C51   C60   1.556038 S    
C64   N47   1.495692 S    
N39   O13   1.300346 A    
N86   O108  1.297433 A    
N33   O2    1.299554 A    
C3    N35   1.432565 S    
C65   N49   1.493442 S    
C52   C60   1.568760 S    
C11   N11   1.319175 A    
C53   H17   1.111911 S    
C34   C46   1.391343 A    
C28   N88   1.421674 S    
C23   C59   1.480804 S    
C106  C108  1.607464 S    
N47   O30   1.301859 A    
N16   Ni3   1.930439 S    
N25   N30   1.418615 A    
C2    N2    1.321956 A    
C22   C110  1.503726 S    
C38   F30   1.347465 S    
N27   N32   1.418615 A    
C65   C81   1.676951 S    
C103  H39   1.113784 S    
N87   O110  1.299416 A    
C101  C109  1.624693 S    
C12   H4    1.072095 S    
C14   C23   1.369875 A    
C18   C81   1.501469 S    
C75   F3    1.383707 S    
N53   O42   1.299503 A    
N40   O15   1.295756 A    
N56   O48   1.302596 A    
C99   H35   1.112274 S    
N49   O34   1.301449 A    
C80   N64   1.504347 S    
C56   C62   1.600929 S    
C63   N45   1.493686 S    
N54   O43   1.301567 A    
N57   O49   1.294797 A    
C45   C85   1.474609 S    
C21   C109  1.514079 S    
C48   C88   1.488467 S    
N58   O52   1.292754 A    
N80   O95   1.303742 A    
N80   O96   1.292759 A    
C29   F21   1.351137 S    
C87   C91   1.584039 S    
N55   O45   1.304070 A    
N66   O67   1.302841 A    
N7    Ni7   1.930395 S    
N85   O105  1.297307 A    
C36   F28   1.354894 S    
N23   Ni7   1.930437 S    
C20   C83   1.533867 S    
C77   N61   1.502606 S    
C70   H24   1.107018 S    
C25   C41   1.417459 A    
C71   H21   1.109643 S    
C73   F1    1.383006 S    
N51   O37   1.296117 A    
C65   N53   1.490142 S    
N41   O18   1.297347 A    
C112  N84   1.475494 S    
N70   O75   1.298927 A    
C57   C63   1.628178 S    
N2    N5    1.418615 A    
C66   N50   1.488142 S    
C103  C110  1.608111 S    
C42   C108  1.516854 S    
C100  C108  1.591014 S    
N9    Ni6   1.933227 S    
C15   N15   1.336587 A    
C16   N16   1.320571 A    
C106  C112  1.609520 S    
N11   Ni8   1.933227 S    
N84   O104  1.296498 A    
C86   C90   1.567589 S    
C93   F13   1.381545 S    
C73   C83   1.599886 S    
C74   C84   1.606689 S    
C112  N83   1.498047 S    
N38   O12   1.302048 A    
C78   C82   1.659617 S    
N11   N12   1.422398 A    
C55   H19   1.117219 S    
N77   O89   1.296131 A    
N88   O112  1.292952 A    
C49   H9    1.107675 S    
N25   Ni6   1.933231 S    
C28   N20   1.309464 A    
C111  N82   1.488489 S    
N26   N29   1.418615 A    
