data_mof_unit_40754.cif
_audit_creation_date              2012-12-11T15:39:37-0500
_audit_creation_method            fapswitch 2.2
_symmetry_space_group_name_H-M    P1
_symmetry_Int_Tables_number       1
_space_group_crystal_system       triclinic
_cell_length_a                    17.384649
_cell_length_b                    24.250095
_cell_length_c                    14.921453
_cell_angle_alpha                 90.07971
_cell_angle_beta                  125.106693
_cell_angle_gamma                 89.681937
_cell_volume                      5146.1194997

loop_
_atom_site_label
_atom_site_type_symbol
_atom_type_description
_atom_site_fract_x
_atom_site_fract_y
_atom_site_fract_z
_atom_type_partial_charge
C1    C     C_R   0.316473 0.368922 0.910820 -0.119148
C2    C     C_R   0.689114 0.374820 0.092802 -0.104347
C3    C     C_R   0.819031 0.866115 0.908877 -0.124730
C4    C     C_R   0.189744 0.876084 0.091233 -0.106912
C5    C     C_R   0.381087 0.684003 0.000300 0.047519
C6    C     C_R   0.615763 0.683877 0.999624 0.051871
C7    C     C_R   0.884025 0.184476 0.001414 0.052567
C8    C     C_R   0.120439 0.183019 0.001093 0.046894
C9    C     C_R   0.577356 0.499974 0.371821 0.081457
C10   C     C_R   0.506856 0.498681 0.679085 0.062173
C11   C     C_R   0.987983 0.999181 0.316527 0.062058
C12   C     C_R   0.922290 0.001398 0.628105 0.087007
C13   C     C_R   0.175327 0.503329 0.714239 0.076223
C14   C     C_R   0.802927 0.502554 0.363264 0.115170
C15   C     C_R   0.675398 0.003508 0.714742 0.060676
C16   C     C_R   0.302783 0.002882 0.363187 0.106614
C17   C     C_R   0.026664 0.556733 0.602638 0.093737
C18   C     C_R   0.934464 0.556334 0.515629 0.072444
C19   C     C_R   0.528823 0.057428 0.597517 0.094614
C20   C     C_R   0.436810 0.057021 0.509938 0.089381
C21   C     C_R   0.074327 0.507138 0.652281 0.098895
C22   C     C_R   0.886015 0.506323 0.474241 0.103471
C23   C     C_R   0.574424 0.008011 0.651190 0.095083
C24   C     C_R   0.386329 0.007423 0.473490 0.092728
C25   C     C_R   0.021177 0.459008 0.627702 -0.196833
C26   C     C_R   0.927454 0.458413 0.537824 -0.119900
C27   C     C_R   0.519636 0.961007 0.630530 -0.170913
C28   C     C_R   0.425324 0.960702 0.541434 -0.169671
C29   C     C_3   0.940745 0.611299 0.471248 -0.399050
C30   C     C_3   0.046452 0.611440 0.570306 -0.401155
C31   C     C_3   0.446263 0.108304 0.458293 -0.404937
C32   C     C_3   0.551739 0.108317 0.557748 -0.421360
C33   C     C_R   0.289367 0.767833 0.899943 -0.158623
C34   C     C_R   0.708923 0.765839 0.098423 -0.108049
C35   C     C_R   0.795950 0.269512 0.904162 -0.147869
C36   C     C_R   0.215411 0.264616 0.103009 -0.125666
C37   C     C_R   0.746603 0.314262 0.904698 -0.142300
C38   C     C_R   0.265668 0.308622 0.103700 -0.126934
C39   C     C_R   0.241990 0.813932 0.899579 -0.137643
C40   C     C_R   0.763925 0.806436 0.098369 -0.121255
C41   C     C_R   0.761469 0.331043 0.003304 0.112663
C42   C     C_R   0.246155 0.328182 0.004382 0.122945
C43   C     C_R   0.261034 0.833667 0.998703 0.122699
C44   C     C_R   0.748817 0.822561 0.999484 0.106317
C45   C     C_R   0.441516 0.651690 0.091465 -0.113380
C46   C     C_R   0.556062 0.651975 0.908527 -0.131373
C47   C     C_R   0.943430 0.151896 0.091896 -0.128103
C48   C     C_R   0.058760 0.151637 0.909167 -0.118644
C49   C     C_R   0.840770 0.311736 0.102722 -0.139939
C50   C     C_R   0.163262 0.312147 0.905446 -0.153096
C51   C     C_R   0.341622 0.814987 0.097835 -0.143559
C52   C     C_R   0.665943 0.807096 0.900103 -0.152993
C53   C     C_R   0.389031 0.768799 0.098301 -0.151712
C54   C     C_R   0.611192 0.766069 0.899958 -0.151914
C55   C     C_R   0.890584 0.267214 0.102461 -0.153100
C56   C     C_R   0.113344 0.267758 0.904634 -0.151620
C57   C     C_R   0.356553 0.741807 0.999526 0.115401
C58   C     C_R   0.640008 0.740930 0.999241 0.100420
C59   C     C_R   0.861018 0.242214 0.002781 0.110543
C60   C     C_R   0.145963 0.240254 0.002978 0.114316
C61   C     C_R   0.580203 0.546965 0.600864 -0.146026
C62   C     C_R   0.611119 0.548631 0.534012 -0.142618
C63   C     C_R   0.889731 0.051503 0.467419 -0.156767
C64   C     C_R   0.918107 0.049099 0.398094 -0.136234
C65   C     C_R   0.616996 0.499720 0.489078 0.116854
C66   C     C_R   0.549593 0.496901 0.617575 0.063794
C67   C     C_R   0.944956 0.998289 0.377977 0.060949
C68   C     C_R   0.881698 0.002686 0.510637 0.128737
C69   C     C_R   0.620097 0.449445 0.537354 -0.198451
C70   C     C_R   0.569453 0.446702 0.584082 -0.144749
C71   C     C_R   0.922813 0.948639 0.410154 -0.138926
C72   C     C_R   0.873836 0.952817 0.458931 -0.196520
C73   C     C_R   0.553489 0.454355 0.305146 -0.099432
C74   C     C_R   0.485758 0.453717 0.718423 -0.121787
C75   C     C_R   0.010218 0.953887 0.278463 -0.127077
C76   C     C_R   0.945652 0.955111 0.693838 -0.092108
C77   C     C_R   0.234346 0.547589 0.752880 -0.078149
C78   C     C_R   0.752180 0.547027 0.300354 -0.105646
C79   C     C_R   0.734556 0.047671 0.753153 -0.103262
C80   C     C_R   0.252149 0.047207 0.299985 -0.112463
C81   C     C_R   0.555236 0.545731 0.305974 -0.124060
C82   C     C_R   0.494752 0.545583 0.724925 -0.100658
C83   C     C_R   0.002271 0.045841 0.272425 -0.101649
C84   C     C_R   0.944995 0.046512 0.694790 -0.117184
C85   C     C_R   0.229268 0.456118 0.735799 -0.104423
C86   C     C_R   0.756490 0.455474 0.303405 -0.101591
C87   C     C_R   0.729116 0.956153 0.736769 -0.063633
C88   C     C_R   0.256516 0.955635 0.303793 -0.116361
C89   C     C_R   0.352374 0.652294 0.909229 -0.123884
C90   C     C_R   0.647672 0.651731 0.091198 -0.088737
C91   C     C_R   0.853637 0.152732 0.909793 -0.123787
C92   C     C_R   0.150135 0.150938 0.092024 -0.084672
C93   C     C_R   0.404950 0.373813 0.093764 -0.105401
C94   C     C_R   0.597165 0.371789 0.909855 -0.126049
C95   C     C_R   0.908376 0.867446 0.091597 -0.120269
C96   C     C_R   0.098175 0.876176 0.907607 -0.114350
C97   C     C_R   0.318318 0.357406 0.003084 0.047243
C98   C     C_R   0.686963 0.359987 0.001860 0.044343
C99   C     C_R   0.822184 0.851178 0.000097 0.054676
C100  C     C_R   0.187833 0.863381 0.999079 0.040776
H1    H     H_    0.265223 0.355223 0.828671 0.090580
H2    H     H_    0.746431 0.370533 0.177928 0.093009
H3    H     H_    0.768855 0.853152 0.825886 0.089280
H4    H     H_    0.247373 0.871071 0.176101 0.098038
H5    H     H_    0.266185 0.750131 0.821795 0.151260
H6    H     H_    0.728416 0.750141 0.176671 0.153856
H7    H     H_    0.775778 0.253547 0.825832 0.159113
H8    H     H_    0.238441 0.246760 0.181017 0.138571
H9    H     H_    0.691024 0.331616 0.827225 0.186094
H10   H     H_    0.325250 0.322842 0.181984 0.137042
H11   H     H_    0.184287 0.829818 0.821323 0.140438
H12   H     H_    0.822873 0.820866 0.176066 0.189526
H13   H     H_    0.858881 0.326533 0.180921 0.112502
H14   H     H_    0.141840 0.329851 0.827778 0.106045
H15   H     H_    0.362536 0.831861 0.175830 0.116606
H16   H     H_    0.647457 0.822559 0.822104 0.105197
H17   H     H_    0.444707 0.751795 0.176573 0.113354
H18   H     H_    0.553565 0.750433 0.821762 0.111620
H19   H     H_    0.944897 0.249413 0.180535 0.111332
H20   H     H_    0.055638 0.252256 0.826324 0.114713
H21   H     H_    0.572652 0.585880 0.630296 0.116819
H22   H     H_    0.619039 0.588433 0.507659 0.129241
H23   H     H_    0.885404 0.091457 0.496599 0.113190
H24   H     H_    0.927528 0.087841 0.370201 0.116134
H25   H     H_    0.486292 0.664951 0.175755 0.089115
H26   H     H_    0.509900 0.665588 0.824494 0.090687
H27   H     H_    0.989697 0.165104 0.176021 0.089314
H28   H     H_    0.013936 0.165501 0.825137 0.094009
H29   H     H_    0.567832 0.411639 0.329367 0.107498
H30   H     H_    0.473662 0.411805 0.691963 0.115156
H31   H     H_    0.020296 0.911913 0.304294 0.113967
H32   H     H_    0.930481 0.912656 0.668026 0.101887
H33   H     H_    0.217750 0.590131 0.752669 0.095849
H34   H     H_    0.756645 0.589040 0.325637 0.086410
H35   H     H_    0.718086 0.090284 0.752285 0.109501
H36   H     H_    0.257074 0.089326 0.324769 0.094539
H37   H     H_    0.574263 0.587970 0.332584 0.101606
H38   H     H_    0.500392 0.588443 0.710247 0.089614
H39   H     H_    0.995970 0.088767 0.286375 0.093638
H40   H     H_    0.926147 0.089005 0.669326 0.090959
H41   H     H_    0.203369 0.415284 0.705543 0.090996
H42   H     H_    0.769523 0.413560 0.333399 0.096994
H43   H     H_    0.702683 0.915328 0.707199 0.086856
H44   H     H_    0.270224 0.913757 0.334191 0.088396
H45   H     H_    0.316338 0.666433 0.825619 0.108591
H46   H     H_    0.686454 0.664808 0.175627 0.103577
H47   H     H_    0.817136 0.167017 0.826200 0.113281
H48   H     H_    0.188925 0.163763 0.176577 0.096319
H49   H     H_    0.432013 0.369925 0.179081 0.106764
H50   H     H_    0.569494 0.360961 0.826855 0.126681
H51   H     H_    0.937993 0.856643 0.175131 0.122090
H52   H     H_    0.071195 0.871490 0.822422 0.106917
H53   H     H_    0.053962 0.420482 0.669337 0.118646
H54   H     H_    0.892079 0.419203 0.512308 0.131467
H55   H     H_    0.551368 0.923053 0.675569 0.117094
H56   H     H_    0.386697 0.922511 0.520180 0.123479
N1    N     N_R   0.394180 0.396910 0.943210 -0.042901
N2    N     N_R   0.605820 0.396910 0.056790 -0.043860
N3    N     N_R   0.894180 0.896910 0.943210 -0.043058
N4    N     N_R   0.105820 0.896910 0.056790 -0.044433
N5    N     N_R   0.450950 0.603070 0.056740 -0.041480
N6    N     N_R   0.549050 0.603070 0.943260 -0.043267
N7    N     N_R   0.950950 0.103070 0.056740 -0.041767
N8    N     N_R   0.049050 0.103070 0.943260 -0.042957
N9    N     N_R   0.525650 0.471570 0.206150 -0.049440
N10   N     N_R   0.474350 0.471570 0.793850 -0.045482
N11   N     N_R   0.025650 0.971570 0.206150 -0.046612
N12   N     N_R   0.974350 0.971570 0.793850 -0.050355
N13   N     N_R   0.319480 0.528420 0.793810 -0.047169
N14   N     N_R   0.680520 0.528420 0.206190 -0.046891
N15   N     N_R   0.819480 0.028420 0.793810 -0.045233
N16   N     N_R   0.180520 0.028420 0.206190 -0.044901
N17   N     N_R   0.525640 0.528390 0.206120 -0.044096
N18   N     N_R   0.474360 0.528390 0.793880 -0.043275
N19   N     N_R   0.025640 0.028390 0.206120 -0.044780
N20   N     N_R   0.974360 0.028390 0.793880 -0.044063
N21   N     N_R   0.319490 0.471590 0.793840 -0.044055
N22   N     N_R   0.680510 0.471590 0.206160 -0.047745
N23   N     N_R   0.819490 0.971590 0.793840 -0.042661
N24   N     N_R   0.180510 0.971590 0.206160 -0.045052
N25   N     N_R   0.394130 0.603080 0.943110 -0.043874
N26   N     N_R   0.605870 0.603080 0.056890 -0.046396
N27   N     N_R   0.894130 0.103080 0.943110 -0.043554
N28   N     N_R   0.105870 0.103080 0.056890 -0.046594
N29   N     N_R   0.450990 0.396900 0.056840 -0.045265
N30   N     N_R   0.549010 0.396900 0.943160 -0.043995
N31   N     N_R   0.950990 0.896900 0.056840 -0.044283
N32   N     N_R   0.049010 0.896900 0.943160 -0.044778
Ni1   Ni    Ni4+2 0.434860 0.434850 0.869700 0.235968
Ni2   Ni    Ni4+2 0.565140 0.434850 0.130300 0.229260
Ni3   Ni    Ni4+2 0.934860 0.934850 0.869700 0.236590
Ni4   Ni    Ni4+2 0.065140 0.934850 0.130300 0.225155
Ni5   Ni    Ni4+2 0.565130 0.565140 0.130240 0.216705
Ni6   Ni    Ni4+2 0.434870 0.565140 0.869760 0.225899
Ni7   Ni    Ni4+2 0.065130 0.065140 0.130240 0.219764
Ni8   Ni    Ni4+2 0.934870 0.065140 0.869760 0.226420
C101  C     C_2   0.924931 0.607864 0.359468 1.023100
O1    O     O_2   0.905269 0.649454 0.303774 -0.604317
O2    O     O_R   0.935725 0.557564 0.321639 -0.766153
H57   H     H_    0.923638 0.560854 0.246805 0.333064
C102  C     C_2   0.072786 0.656090 0.655320 1.022555
O3    O     O_2   0.080548 0.703925 0.635814 -0.575289
O4    O     O_R   0.087635 0.642754 0.755413 -0.803052
H58   H     H_    0.105586 0.675994 0.804875 0.325816
C103  C     C_2   0.430341 0.098658 0.347532 1.033646
O5    O     O_2   0.416728 0.137861 0.288481 -0.600684
O6    O     O_R   0.434700 0.045336 0.314624 -0.761304
H59   H     H_    0.423466 0.044647 0.240020 0.333974
C104  C     C_2   0.579374 0.157157 0.635067 1.034393
O7    O     O_2   0.592318 0.202369 0.609773 -0.535505
O8    O     O_R   0.588394 0.150810 0.733940 -0.804003
H60   H     H_    0.607430 0.186235 0.777790 0.327144
C105  C     C_2   0.880596 0.655949 0.475485 1.008914
O9    O     O_2   0.829600 0.644836 0.504795 -0.659141
O10   O     O_R   0.884687 0.710188 0.446750 -0.701418
H61   H     H_    0.841983 0.736154 0.452812 0.346212
C106  C     C_2   0.115780 0.607663 0.538542 1.015774
O11   O     O_2   0.125532 0.564479 0.503436 -0.603358
O12   O     O_R   0.167927 0.653905 0.548599 -0.772546
H62   H     H_    0.211506 0.646207 0.525431 0.320997
C107  C     C_2   0.388877 0.156935 0.456157 1.009122
O13   O     O_2   0.340346 0.151817 0.490847 -0.649565
O14   O     O_R   0.393806 0.208167 0.416803 -0.727673
H63   H     H_    0.353385 0.237290 0.420001 0.314794
C108  C     C_2   0.622207 0.097447 0.529245 1.026307
O15   O     O_2   0.624136 0.052745 0.492349 -0.585722
O16   O     O_R   0.685798 0.138374 0.546534 -0.772858
H64   H     H_    0.729521 0.125872 0.526015 0.316031
C109  C     C_2   0.674253 0.401848 0.535497 0.996392
O17   O     O_2   0.666002 0.355251 0.559821 -0.578597
O18   O     O_R   0.737552 0.411059 0.507994 -0.826612
H65   H     H_    0.768967 0.375743 0.507854 0.311097
C110  C     C_2   0.520036 0.394774 0.570851 1.029299
O19   O     O_2   0.561422 0.356428 0.634426 -0.623751
O20   O     O_R   0.424852 0.390165 0.485265 -0.795618
H66   H     H_    0.398097 0.352915 0.484105 0.328104
C111  C     C_2   0.970525 0.895810 0.422799 1.024895
O21   O     O_2   0.927349 0.857531 0.360690 -0.619471
O22   O     O_R   0.066195 0.890173 0.506455 -0.800008
H67   H     H_    0.091717 0.852317 0.507424 0.341311
C112  C     C_2   0.816146 0.907406 0.459313 0.995972
O23   O     O_2   0.818769 0.860731 0.430291 -0.613502
O24   O     O_R   0.755430 0.919138 0.490102 -0.778357
H68   H     H_    0.719493 0.885563 0.487035 0.323034

loop_
_geom_bond_atom_site_label_1
_geom_bond_atom_site_label_2
_ccdc_geom_bond_type
C49   H13   S    
O4    H58   S    
C88   H44   S    
C83   N19   A    
C36   H8    S    
C56   H20   S    
C102  O3    D    
C96   N32   A    
C93   H49   S    
O22   H67   S    
C86   N22   A    
C43   C51   A    
C83   H39   S    
C95   N31   A    
N29   Ni2   S    
C40   H12   S    
C82   N18   A    
C55   H19   S    
C103  O5    D    
C89   H45   S    
N11   Ni4   S    
C12   C68   S    
C33   C39   A    
N12   Ni3   S    
N3    N31   A    
N14   N22   A    
N32   Ni3   S    
C34   C40   A    
C71   C111  S    
C61   H21   S    
C35   C37   A    
N1    N29   A    
C31   C103  S    
C55   C59   A    
N2    Ni2   S    
N22   Ni2   S    
C44   C99   S    
C53   H17   S    
C92   H48   S    
C94   C98   A    
C95   C99   A    
C79   N15   A    
O24   H68   S    
C96   H52   S    
C96   C100  A    
C78   N14   A    
C12   C84   A    
C35   C59   A    
C112  O23   D    
N13   N21   A    
C90   N26   A    
C101  O2    S    
C45   N5    A    
C104  O8    S    
C31   C107  S    
C16   C80   A    
C61   C66   A    
C41   C49   A    
C15   C79   A    
O16   H64   S    
C45   H25   S    
C8    C60   S    
O20   H66   S    
C8    C92   A    
C23   C27   A    
C38   H10   S    
C29   C30   S    
C50   C56   A    
C110  O19   D    
C37   H9    S    
C61   C62   A    
C2    N2    A    
C47   N7    A    
C44   C52   A    
C15   C23   S    
O2    H57   S    
C16   C24   S    
C111  O21   D    
C84   H40   S    
C3    N3    A    
C17   C30   S    
C102  O4    S    
N15   N23   A    
C69   C70   A    
C9    C73   A    
C7    C59   S    
C19   C32   S    
N2    N30   A    
N19   Ni7   S    
C94   N30   A    
C75   H31   S    
C88   N24   A    
C13   C77   A    
C52   H16   S    
C27   H55   S    
C73   H29   S    
N10   N18   A    
N21   Ni1   S    
C25   H53   S    
O6    H59   S    
C34   H6    S    
C64   C67   A    
N3    Ni3   S    
C10   C74   A    
C33   H5    S    
C43   C100  S    
C14   C86   A    
O14   H63   S    
C104  O7    D    
N24   Ni4   S    
C42   C97   S    
C1    C97   A    
O12   H62   S    
C18   C29   S    
C53   C57   A    
C20   C31   S    
C39   C43   A    
N1    Ni1   S    
C11   C83   A    
C25   C26   A    
C105  O9    D    
N7    N27   A    
C10   C82   A    
C51   H15   S    
C91   H47   S    
C56   C60   A    
C50   H14   S    
C70   C110  S    
C7    C47   A    
C19   C23   A    
O10   H61   S    
C8    C48   A    
C109  O17   D    
N8    N28   A    
C69   C109  S    
C48   H28   S    
C107  O13   D    
C110  O20   S    
C29   C105  S    
O8    H60   S    
C85   N21   A    
N7    Ni7   S    
C77   H33   S    
C68   C72   A    
C7    C91   A    
C6    C90   A    
N6    Ni6   S    
C9    C65   S    
C17   C18   A    
C13   C21   S    
C39   H11   S    
N26   Ni5   S    
N20   Ni8   S    
C34   C58   A    
N25   Ni6   S    
C78   H34   S    
N4    Ni4   S    
N31   Ni4   S    
C42   C50   A    
C30   C106  S    
C73   N9    A    
N18   Ni6   S    
C1    H1    S    
C29   C101  S    
C111  O22   S    
C12   C76   A    
C92   N28   A    
C109  O18   S    
C26   H54   S    
C80   N16   A    
C95   H51   S    
C11   C67   S    
C85   H41   S    
N27   Ni8   S    
C54   H18   S    
C93   C97   A    
C62   H22   S    
C86   H42   S    
C16   C88   A    
C54   C58   A    
C3    H3    S    
N12   N20   A    
C30   C102  S    
C21   C25   A    
C63   C68   A    
C33   C57   A    
C6    C46   A    
C62   C65   A    
C108  O15   D    
C91   N27   A    
C18   C22   A    
C72   C112  S    
C46   H26   S    
C31   C32   S    
C89   N25   A    
C24   C28   A    
N15   Ni8   S    
C36   C60   A    
C49   C55   A    
C35   H7    S    
C4    N4    A    
N14   Ni5   S    
C63   H23   S    
N8    Ni8   S    
C47   H27   S    
N13   Ni6   S    
C48   N8    A    
C106  O12   S    
N28   Ni7   S    
C79   H35   S    
N9    N17   A    
C80   H36   S    
N6    N26   A    
C5    C57   S    
C107  O14   S    
N10   Ni1   S    
C87   H43   S    
C14   C22   S    
C19   C20   A    
C4    C100  A    
C106  O11   D    
C105  O10   S    
C10   C66   S    
C71   C72   A    
C90   H46   S    
C64   H24   S    
C82   H38   S    
C36   C38   A    
N17   Ni5   S    
C32   C104  S    
C76   H32   S    
N16   N24   A    
C66   C70   A    
C5    C45   A    
N30   Ni1   S    
C65   C69   A    
C81   H37   S    
C4    H4    S    
C1    N1    A    
C75   N11   A    
C108  O16   S    
C74   H30   S    
C52   C54   A    
C76   N12   A    
N11   N19   A    
C67   C71   A    
C6    C58   S    
C14   C78   A    
C37   C41   A    
C101  O1    D    
C17   C21   A    
N9    Ni2   S    
N5    Ni5   S    
C51   C53   A    
C87   N23   A    
C63   C64   A    
C38   C42   A    
C3    C99   A    
C94   H50   S    
C40   C44   A    
C74   N10   A    
N23   Ni3   S    
C32   C108  S    
C2    C98   A    
C77   N13   A    
C22   C26   A    
C15   C87   A    
C13   C85   A    
O18   H65   S    
C28   H56   S    
C2    H2    S    
C41   C98   S    
C9    C81   A    
N16   Ni7   S    
C11   C75   A    
C112  O24   S    
C84   N20   A    
C103  O6    S    
C46   N6    A    
C20   C24   A    
N5    N25   A    
C5    C89   A    
C81   N17   A    
C27   C28   A    
N4    N32   A    
C93   N29   A    
