data_mof_unit_14938.cif
_audit_creation_date              2012-12-10T17:44:25-0500
_audit_creation_method            fapswitch 2.2
_symmetry_space_group_name_H-M    P1
_symmetry_Int_Tables_number       1
_space_group_crystal_system       triclinic
_cell_length_a                    13.693531
_cell_length_b                    15.050487
_cell_length_c                    17.136237
_cell_angle_alpha                 90.112007
_cell_angle_beta                  85.512859
_cell_angle_gamma                 90.643248
_cell_volume                      3520.63211492

loop_
_atom_site_label
_atom_site_type_symbol
_atom_type_description
_atom_site_fract_x
_atom_site_fract_y
_atom_site_fract_z
_atom_type_partial_charge
C1    C     C_R   0.500364 0.671591 0.501149 0.873001
C2    C     C_R   0.499418 0.328760 0.499364 0.848390
C3    C     C_R   0.542675 0.188064 0.558420 -0.331004
C4    C     C_R   0.432972 0.812892 0.460457 -0.316088
C5    C     C_R   0.496661 0.232283 0.500417 -0.150703
C6    C     C_R   0.499553 0.768679 0.504011 -0.150691
C7    C     C_R   0.445935 0.185155 0.444968 0.410805
C8    C     C_R   0.561249 0.816890 0.551287 0.405104
C9    C     C_R   0.432401 0.092026 0.453326 -0.053626
C10   C     C_R   0.545685 0.909344 0.562430 -0.061400
C11   C     C_R   0.485696 0.047329 0.508952 0.016900
C12   C     C_R   0.486773 0.953940 0.510840 0.020816
C13   C     C_R   0.539319 0.095812 0.562084 0.116317
C14   C     C_R   0.429757 0.905215 0.460510 0.112364
C15   C     C_R   0.368409 0.041806 0.408515 -0.042939
C16   C     C_R   0.587021 0.959002 0.622316 -0.040368
C17   C     C_R   0.368498 0.949164 0.412099 -0.241871
C18   C     C_R   0.585677 0.051624 0.620313 -0.243185
C19   C     C_R   0.212735 0.542470 0.441484 0.002118
C20   C     C_R   0.787141 0.458079 0.558848 -0.002375
C21   C     C_R   0.200384 0.457501 0.558550 0.024191
C22   C     C_R   0.799828 0.538034 0.439153 -0.017523
C23   C     C_R   0.486890 0.498695 0.650383 0.848410
C24   C     C_R   0.513200 0.499613 0.349159 0.802871
C25   C     C_R   0.097158 0.456596 0.560042 -0.002728
C26   C     C_R   0.902999 0.538717 0.437566 0.000306
C27   C     C_R   0.051817 0.498679 0.499337 0.085641
C28   C     C_R   0.948255 0.498029 0.498995 0.090644
C29   C     C_R   0.109967 0.541674 0.439121 -0.008546
C30   C     C_R   0.890002 0.456605 0.560031 -0.012346
C31   C     C_R   0.038447 0.414731 0.620491 -0.190377
C32   C     C_R   0.961673 0.580335 0.376970 -0.213693
C33   C     C_R   0.935780 0.415002 0.620627 -0.212218
C34   C     C_R   0.064170 0.582668 0.378227 -0.210348
C35   C     C_R   0.478836 0.483271 0.734645 -0.101849
C36   C     C_R   0.522716 0.490912 0.263258 -0.116862
C37   C     C_R   0.537408 0.530857 0.784333 0.419403
C38   C     C_R   0.440231 0.491286 0.218895 0.443227
C39   C     C_R   0.530869 0.510215 0.864082 -0.248851
C40   C     C_R   0.452530 0.477476 0.138127 -0.262791
C41   C     C_R   0.476738 0.435657 0.892993 0.045984
C42   C     C_R   0.544053 0.453433 0.101724 0.032490
C43   C     C_R   0.417821 0.389467 0.842982 -0.140543
C44   C     C_R   0.625985 0.455819 0.145780 -0.139036
C45   C     C_R   0.417819 0.413933 0.764654 -0.296311
C46   C     C_R   0.615694 0.475412 0.225277 -0.283795
C47   C     C_2   0.478373 0.407824 0.975924 0.315497
C48   C     C_2   0.556843 0.429948 0.017236 0.310865
Cu1   Cu    Cu3+1 0.402580 0.500010 0.500000 0.967107
Cu2   Cu    Cu3+1 0.597420 0.499990 0.500000 0.944859
H1    H     H_    0.258146 0.576570 0.396231 0.163357
H2    H     H_    0.741618 0.425182 0.604737 0.117878
H3    H     H_    0.236267 0.424246 0.604207 0.125181
H4    H     H_    0.764153 0.569554 0.392500 0.125893
H5    H     H_    0.071887 0.382101 0.667825 0.137824
H6    H     H_    0.928233 0.612419 0.329363 0.143414
H7    H     H_    0.892206 0.382786 0.668164 0.132461
H8    H     H_    0.107589 0.616536 0.331571 0.145559
H9    H     H_    0.680575 0.474647 0.257580 0.174847
H10   H     H_    0.373342 0.376084 0.726557 0.155604
H11   H     H_    0.372760 0.333673 0.863999 0.168220
H12   H     H_    0.698301 0.441161 0.119276 0.175361
H13   H     H_    0.389296 0.484826 0.104920 0.192537
H14   H     H_    0.569488 0.552434 0.902853 0.187145
H15   H     H_    0.581354 0.225866 0.600594 0.155467
H16   H     H_    0.386540 0.775172 0.423635 0.166218
H17   H     H_    0.320994 0.911049 0.376430 0.145422
H18   H     H_    0.620142 0.089454 0.664860 0.140958
N1    N     N_R   0.256180 0.500070 0.500030 -0.189226
N2    N     N_R   0.743820 0.499930 0.499970 -0.181413
O1    O     O_R   0.417720 0.629750 0.499980 -0.588550
O2    O     O_R   0.582280 0.370250 0.500020 -0.595761
O3    O     O_R   0.582260 0.629730 0.499990 -0.550962
O4    O     O_R   0.417740 0.370270 0.500010 -0.558694
O5    O     O_R   0.408190 0.500030 0.613590 -0.594143
O6    O     O_R   0.591810 0.499970 0.386410 -0.608525
O7    O     O_R   0.572730 0.500000 0.613600 -0.582664
O8    O     O_R   0.427270 0.500000 0.386400 -0.552111
O9    O     O_3   0.594018 0.602501 0.756525 -0.587080
C49   C     C_3   0.694374 0.581122 0.757004 0.057694
H19   H     H_    0.714868 0.535679 0.707450 0.152583
H20   H     H_    0.712390 0.548555 0.812397 0.131315
C50   C     C_3   0.755765 0.666276 0.747698 -0.287241
H21   H     H_    0.732317 0.705061 0.697785 0.270609
H22   H     H_    0.743405 0.707400 0.801424 0.229624
C51   C     C_3   0.864758 0.646342 0.733519 -0.942022
H23   H     H_    0.890139 0.607847 0.783183 0.262834
H24   H     H_    0.907062 0.709671 0.727979 0.263993
H25   H     H_    0.879030 0.607842 0.678540 0.265029
O10   O     O_3   0.347437 0.507114 0.253609 -0.622262
C52   C     C_3   0.292223 0.426685 0.259169 0.084218
H26   H     H_    0.271461 0.413614 0.322086 0.195185
H27   H     H_    0.332314 0.366696 0.235932 0.119712
C53   C     C_3   0.199143 0.436736 0.216399 -0.370979
H28   H     H_    0.159624 0.497181 0.237668 0.229198
H29   H     H_    0.219046 0.444399 0.152650 0.227572
C54   C     C_3   0.131343 0.356131 0.229656 -0.870067
H30   H     H_    0.169043 0.294835 0.208011 0.259909
H31   H     H_    0.064933 0.365095 0.197383 0.252584
H32   H     H_    0.108362 0.348660 0.292961 0.265038
O11   O     O_3   0.650119 0.443024 0.979868 -0.639604
C55   C     C_3   0.685331 0.363861 0.942933 0.031124
H33   H     H_    0.749558 0.382316 0.902342 0.164929
H34   H     H_    0.631438 0.332334 0.905936 0.125323
C56   C     C_3   0.718811 0.296903 0.002548 -0.369367
H35   H     H_    0.778341 0.327090 0.034648 0.221020
H36   H     H_    0.656742 0.279177 0.045445 0.208545
C57   C     C_3   0.756141 0.211982 0.962311 -0.898319
H37   H     H_    0.696865 0.179475 0.931477 0.256550
H38   H     H_    0.780291 0.165198 0.006792 0.259433
H39   H     H_    0.819295 0.227133 0.919548 0.252995
O12   O     O_3   0.392964 0.368808 0.010864 -0.637422
C58   C     C_3   0.412474 0.287116 0.047553 0.034208
H40   H     H_    0.347250 0.269807 0.087523 0.171941
H41   H     H_    0.474782 0.291505 0.085169 0.119511
C59   C     C_3   0.428912 0.211923 0.987584 -0.369426
H42   H     H_    0.362074 0.202700 0.955506 0.222088
H43   H     H_    0.491204 0.229062 0.944643 0.205498
C60   C     C_3   0.451715 0.124916 0.027576 -0.896489
H44   H     H_    0.519795 0.132206 0.058419 0.254975
H45   H     H_    0.462561 0.071590 0.982978 0.262039
H46   H     H_    0.390154 0.105296 0.070370 0.256682
O13   O     O_3   0.414207 0.231476 0.381867 -0.611206
C61   C     C_3   0.474077 0.211386 0.312684 0.028490
H47   H     H_    0.437527 0.238869 0.262534 0.162149
H48   H     H_    0.480291 0.138667 0.301987 0.141588
C62   C     C_3   0.576980 0.252978 0.312673 -0.360532
H49   H     H_    0.570936 0.324579 0.326655 0.228678
H50   H     H_    0.618403 0.220852 0.357948 0.212949
C63   C     C_3   0.634135 0.241438 0.233317 -0.913891
H51   H     H_    0.644828 0.169771 0.220087 0.256255
H52   H     H_    0.707007 0.274388 0.234096 0.260036
H53   H     H_    0.594087 0.271954 0.186542 0.246740
O14   O     O_3   0.636307 0.772809 0.584522 -0.594599
C64   C     C_3   0.729228 0.808890 0.557006 0.039031
H54   H     H_    0.763330 0.839767 0.607204 0.167412
H55   H     H_    0.726597 0.860882 0.510743 0.121717
C65   C     C_3   0.796193 0.735190 0.524287 -0.308269
H56   H     H_    0.790169 0.676701 0.563832 0.244276
H57   H     H_    0.772880 0.715096 0.466179 0.211181
C66   C     C_3   0.902897 0.766777 0.515278 -0.925720
H58   H     H_    0.911425 0.823337 0.473675 0.257439
H59   H     H_    0.950562 0.712010 0.492721 0.274158
H60   H     H_    0.927493 0.787782 0.572820 0.259015
C67   C     C_1   0.297857 0.082538 0.361625 0.291505
N3    N     N_1   0.241284 0.114997 0.324105 -0.295746
C68   C     C_1   0.621618 0.917667 0.690892 0.279671
N4    N     N_1   0.648997 0.884839 0.746054 -0.292551

loop_
_geom_bond_atom_site_label_1
_geom_bond_atom_site_label_2
_ccdc_geom_bond_type
C25   C31   A    
C64   C65   S    
C38   C40   A    
C45   H10   S    
C26   C32   A    
O11   C55   S    
C46   H9    S    
C27   C29   A    
C57   H37   S    
C15   C67   S    
C68   N4    T    
C67   N3    T    
C64   H54   S    
C39   C41   A    
C20   C30   A    
Cu1   O8    S    
C39   H14   S    
C56   H36   S    
C1    O1    A    
C40   H13   S    
C13   C18   A    
C16   C68   S    
C35   C37   A    
C66   H59   S    
C51   H24   S    
C18   H18   S    
C47   O12   S    
C59   H42   S    
C55   C56   S    
C64   H55   S    
Cu2   O2    S    
C50   H21   S    
C59   H43   S    
Cu1   O5    S    
C36   C46   A    
C3    C13   A    
C53   H29   S    
C58   C59   S    
C40   C42   A    
Cu1   N1    S    
C4    C14   A    
C41   C43   A    
C14   C17   A    
C20   N2    A    
C3    H15   S    
C42   C44   A    
C49   C50   S    
C2    O2    A    
O12   C58   S    
C54   H31   S    
C44   C46   A    
C54   H30   S    
C60   H45   S    
C37   C39   A    
C56   C57   S    
C17   H17   S    
C8    O14   S    
C1    C6    S    
O13   C61   S    
C4    C6    A    
C66   H60   S    
C23   O5    A    
C52   H26   S    
C5    C7    A    
C51   H23   S    
C24   O6    A    
C6    C8    A    
C53   C54   S    
C44   H12   S    
C29   C34   A    
C65   C66   S    
C21   N1    A    
C32   C34   A    
C63   H52   S    
C62   H50   S    
Cu2   O6    S    
C52   H27   S    
C37   O9    S    
C47   C48   D    
C11   C12   A    
C31   C33   A    
C41   C47   S    
C53   H28   S    
C16   C18   A    
C42   C48   S    
C23   O7    A    
C55   H34   S    
C43   C45   A    
C10   C12   A    
C61   C62   S    
C24   O8    A    
C50   H22   S    
C12   C14   A    
C23   C35   S    
C22   H4    S    
C9    C11   A    
C22   C26   A    
Cu2   O3    S    
C63   H53   S    
C62   H49   S    
C19   C29   A    
Cu2   O7    S    
C54   H32   S    
C22   N2    A    
C43   H11   S    
C61   H48   S    
C58   H40   S    
C60   H46   S    
C7    C9    A    
C21   C25   A    
C33   H7    S    
C30   C33   A    
C7    O13   S    
C49   H19   S    
C3    C5    A    
C51   H25   S    
C2    O4    A    
C60   H44   S    
C57   H39   S    
C15   C17   A    
O14   C64   S    
C65   H57   S    
C25   C27   A    
C56   H35   S    
C38   O10   S    
C26   C28   A    
C24   C36   S    
C59   C60   S    
C1    O3    A    
C28   C30   A    
C63   H51   S    
C9    C15   A    
C62   C63   S    
C20   H2    S    
C10   C16   A    
C66   H58   S    
C52   C53   S    
C21   H3    S    
C11   C13   A    
O10   C52   S    
C48   O11   S    
C36   C38   A    
C49   H20   S    
C57   H38   S    
Cu2   N2    S    
C55   H33   S    
C19   N1    A    
C65   H56   S    
O9    C49   S    
C2    C5    S    
C19   H1    S    
C50   C51   S    
C4    H16   S    
C8    C10   A    
Cu1   Cu2   S    
Cu1   O1    S    
C27   C28   A    
C34   H8    S    
Cu1   O4    S    
C31   H5    S    
C32   H6    S    
C61   H47   S    
C58   H41   S    
C35   C45   A    
