data_mof_unit_22472.cif
_audit_creation_date              2012-12-11T14:49:49-0500
_audit_creation_method            fapswitch 2.2
_symmetry_space_group_name_H-M    P1
_symmetry_Int_Tables_number       1
_space_group_crystal_system       triclinic
_cell_length_a                    16.882491
_cell_length_b                    16.80291
_cell_length_c                    19.350456
_cell_angle_alpha                 117.246168
_cell_angle_beta                  62.357357
_cell_angle_gamma                 100.359046
_cell_volume                      4319.4609873

loop_
_atom_site_label
_atom_site_type_symbol
_atom_type_description
_atom_site_fract_x
_atom_site_fract_y
_atom_site_fract_z
_atom_type_partial_charge
C1    C     C_R   0.036790 0.759449 0.014055 -0.123083
C2    C     C_R   0.251721 0.520664 0.827057 -0.129066
C3    C     C_R   0.183124 0.489272 0.087937 -0.147548
C4    C     C_R   0.766691 0.415706 0.163535 -0.226660
C5    C     C_R   0.983917 0.344413 0.761501 -0.148173
C6    C     C_R   0.257255 0.539287 0.065300 0.069947
C7    C     C_R   0.931174 0.271957 0.763836 0.082818
C8    C     C_R   0.258022 0.459814 0.745549 0.073443
C9    C     C_R   0.023703 0.224030 0.009396 0.008401
C10   C     C_R   0.843620 0.143330 0.713781 -0.254481
C11   C     C_R   0.890506 0.218132 0.704969 0.105283
C12   C     C_R   0.774344 0.426989 0.235892 -0.007477
C13   C     C_R   0.910756 0.231950 0.632204 -0.246309
C14   C     C_R   0.903003 0.162135 0.559855 0.081855
C15   C     C_R   0.873031 0.079516 0.563809 -0.021448
C16   C     C_R   0.804592 0.561132 0.962236 -0.127126
C17   C     C_R   0.838324 0.072085 0.642514 0.166495
C18   C     C_R   0.933969 0.168853 0.480896 0.292197
C19   C     C_R   0.944331 0.090814 0.405572 -0.240898
C20   C     C_R   0.926617 0.007217 0.407867 0.073451
C21   C     C_R   0.887586 0.002045 0.487696 0.038943
C22   C     C_R   0.872137 0.918311 0.490700 0.139275
C23   C     C_R   0.723238 0.549481 0.023449 0.055519
C24   C     C_R   0.829750 0.912531 0.569725 -0.208552
C25   C     C_R   0.811061 0.989717 0.645868 -0.202788
C26   C     C_R   0.952035 0.928237 0.331444 -0.219053
C27   C     C_R   0.944425 0.845374 0.334759 0.121455
C28   C     C_R   0.954048 0.675847 0.248571 0.532465
C29   C     C_R   0.905422 0.841545 0.414706 -0.270038
C30   C     C_R   0.423160 0.432107 0.670630 -0.256411
C31   C     C_R   0.340262 0.414996 0.667258 0.115180
C32   C     C_R   0.337540 0.363099 0.587088 -0.255475
C33   C     C_R   0.416146 0.341440 0.510432 0.139152
C34   C     C_R   0.976900 0.762011 0.255670 -0.093631
C35   C     C_R   0.498167 0.370208 0.514520 0.025833
C36   C     C_R   0.502105 0.411897 0.594798 0.141076
C37   C     C_R   0.413090 0.299537 0.430203 -0.200825
C38   C     C_R   0.489288 0.294080 0.355436 -0.208424
C39   C     C_R   0.568854 0.331160 0.360495 0.137955
C40   C     C_R   0.738511 0.483922 0.040863 -0.131384
C41   C     C_R   0.574346 0.365653 0.439591 0.033804
C42   C     C_R   0.653135 0.404389 0.445894 0.145131
C43   C     C_R   0.658888 0.437885 0.524377 -0.206267
C44   C     C_R   0.583708 0.441088 0.598526 -0.203147
C45   C     C_R   0.250109 0.568463 0.012100 -0.134729
C46   C     C_R   0.639768 0.342155 0.290280 -0.247581
C47   C     C_R   0.713765 0.391627 0.299766 0.135180
C48   C     C_R   0.721416 0.417848 0.376610 -0.291083
C49   C     C_R   0.636353 0.593306 0.059389 0.131969
C50   C     C_R   0.323935 0.566402 0.099679 0.127446
C51   C     C_R   0.403326 0.535787 0.162303 -0.220758
C52   C     C_R   0.036358 0.752773 0.173537 -0.222077
C53   C     C_R   0.327963 0.526934 0.148253 -0.172004
C54   C     C_R   0.390504 0.624503 0.075570 -0.280583
C55   C     C_R   0.468490 0.628651 0.084110 0.189999
C56   C     C_R   0.916597 0.265955 0.837809 -0.130026
C57   C     C_R   0.476301 0.580653 0.124484 0.187002
C58   C     C_R   0.559844 0.567694 0.115848 -0.278996
C59   C     C_R   0.627018 0.650948 0.028954 -0.170107
C60   C     C_R   0.542699 0.670033 0.042826 -0.226453
C61   C     C_R   0.821265 0.182138 0.166073 0.118910
C62   C     C_R   0.952651 0.863393 0.000994 0.070359
C63   C     C_R   0.831992 0.943157 0.019557 -0.176963
C64   C     C_R   0.851186 0.475282 0.233393 0.404842
C65   C     C_R   0.877269 0.863740 0.988142 -0.222831
C66   C     C_R   0.985141 0.947275 0.043081 0.249710
C67   C     C_R   0.171974 0.451359 0.751382 -0.130846
C68   C     C_R   0.930745 0.027300 0.086978 -0.023280
C69   C     C_R   0.855811 0.024330 0.071107 0.085271
C70   C     C_R   0.803880 0.102246 0.108428 -0.269893
C71   C     C_R   0.891004 0.185793 0.186477 -0.344995
C72   C     C_R   0.947591 0.109712 0.146956 0.537563
C73   C     C_R   0.962322 0.690427 0.934683 -0.142455
C74   C     C_R   0.987260 0.774945 0.980056 0.068840
C75   C     C_3   0.960439 0.256701 0.474397 -1.028961
C76   C     C_3   0.800761 0.682639 0.322456 0.153671
C77   C     C_3   0.724176 0.671539 0.400271 -0.266157
C78   C     C_R   0.048802 0.308365 0.054892 -0.114439
C79   C     C_3   0.633462 0.692718 0.411847 -0.995434
C80   C     C_3   0.065347 0.183746 0.177382 0.164908
C81   C     C_3   0.146778 0.166498 0.184073 -0.252562
C82   C     C_3   0.209322 0.244649 0.187456 -1.042601
C83   C     C_3   0.081376 0.953311 0.029387 -0.977715
C84   C     C_3   0.912831 0.469061 0.267539 -1.009171
C85   C     C_R   0.969760 0.239762 0.979539 -0.084379
H1    H     H_    0.072907 0.807567 0.047055 0.107628
H2    H     H_    0.940955 0.293030 0.628556 0.135949
H3    H     H_    0.724094 0.369699 0.136624 0.114788
H4    H     H_    0.971855 0.094500 0.344162 0.166843
H5    H     H_    0.981279 0.931708 0.269882 0.132285
H6    H     H_    0.903218 0.779360 0.419099 0.177122
H7    H     H_    0.815301 0.848145 0.572278 0.127018
H8    H     H_    0.783221 0.983851 0.706251 0.126017
H9    H     H_    0.426767 0.468049 0.731819 0.119216
H10   H     H_    0.274427 0.345699 0.583205 0.119170
H11   H     H_    0.350677 0.275853 0.426004 0.131536
H12   H     H_    0.868511 0.225752 0.867221 0.084792
H13   H     H_    0.484336 0.266207 0.294869 0.128456
H14   H     H_    0.632879 0.318751 0.231268 0.113982
H15   H     H_    0.815711 0.603662 0.931074 0.085992
H16   H     H_    0.775259 0.456860 0.388010 0.143778
H17   H     H_    0.719906 0.466446 0.529499 0.130040
H18   H     H_    0.587883 0.472063 0.659629 0.130019
H19   H     H_    0.565125 0.527950 0.144508 0.117484
H20   H     H_    0.684560 0.675987 0.989198 0.112217
H21   H     H_    0.408086 0.499821 0.194680 0.129694
H22   H     H_    0.537105 0.708955 0.013375 0.125091
H23   H     H_    0.150984 0.408897 0.701504 0.097981
H24   H     H_    0.276385 0.484093 0.170239 0.120251
H25   H     H_    0.387171 0.658828 0.041438 0.116037
H26   H     H_    0.747938 0.100951 0.095064 0.129192
H27   H     H_    0.898453 0.247860 0.235594 0.132573
H28   H     H_    0.774477 0.940282 0.007783 0.126230
H29   H     H_    0.850816 0.802097 0.955454 0.124838
H30   H     H_    0.691408 0.456257 0.084329 0.098057
H31   H     H_    0.071758 0.805538 0.155905 0.125646
H32   H     H_    0.933513 0.675059 0.890790 0.087281
H33   H     H_    0.288317 0.618894 0.991638 0.086776
H34   H     H_    0.088244 0.322235 0.089674 0.090608
H35   H     H_    0.019921 0.281179 0.487410 0.245573
H36   H     H_    0.977718 0.249925 0.409048 0.256353
H37   H     H_    0.903989 0.307007 0.521837 0.253838
H38   H     H_    0.788508 0.642305 0.264318 0.114300
H39   H     H_    0.799703 0.754103 0.335333 0.111459
H40   H     H_    0.725497 0.601785 0.391747 0.208185
H41   H     H_    0.732865 0.717183 0.459552 0.194005
H42   H     H_    0.629768 0.762827 0.421959 0.269024
H43   H     H_    0.579548 0.684603 0.469116 0.271152
H44   H     H_    0.622587 0.646182 0.354035 0.267574
H45   H     H_    0.935581 0.189912 0.944281 0.095323
H46   H     H_    0.029977 0.246430 0.234524 0.107454
H47   H     H_    0.089289 0.192043 0.116903 0.093310
H48   H     H_    0.124224 0.156756 0.243466 0.202493
H49   H     H_    0.183995 0.104472 0.127259 0.200409
H50   H     H_    0.233452 0.255071 0.128255 0.267983
H51   H     H_    0.268003 0.229909 0.191726 0.272781
H52   H     H_    0.174094 0.307016 0.245050 0.268398
H53   H     H_    0.123138 0.894789 0.971148 0.232346
H54   H     H_    0.111472 0.012434 0.016611 0.253505
H55   H     H_    0.085565 0.958712 0.086934 0.266216
H56   H     H_    0.305104 0.542716 0.846650 0.095534
H57   H     H_    0.895530 0.522403 0.333854 0.267070
H58   H     H_    0.910806 0.402082 0.266170 0.224037
H59   H     H_    0.983008 0.478430 0.226873 0.246202
H60   H     H_    0.159954 0.466903 0.138152 0.087672
H61   H     H_    0.998117 0.376705 0.720109 0.088354
H62   H     H_    0.822443 0.134200 0.771566 0.113612
N1    N     N_R   0.036080 0.671900 0.995420 -0.038803
N2    N     N_R   0.867430 0.509300 0.948100 -0.039086
N3    N     N_R   0.003360 0.617250 0.167070 -0.091604
N4    N     N_R   0.825450 0.461270 0.995400 -0.038848
N5    N     N_R   0.045340 0.665280 0.119770 -0.063160
N6    N     N_R   0.883740 0.497640 0.167070 -0.062809
N7    N     N_R   0.987050 0.628910 0.948110 -0.039137
N8    N     N_R   0.174550 0.538730 0.004600 -0.036574
N9    N     N_R   0.954660 0.334720 0.880230 -0.039340
N10   N     N_R   0.116260 0.502360 0.832930 -0.041369
N11   N     N_R   0.012950 0.371090 0.051890 -0.039686
N12   N     N_R   0.963920 0.328100 0.004580 -0.041649
N13   N     N_R   0.165290 0.545350 0.880240 -0.040388
N14   N     N_R   0.132570 0.490700 0.051900 -0.040783
N15   N     N_R   0.996640 0.382750 0.832930 -0.038668
N16   N     N_R   0.834710 0.454650 0.119760 -0.061292
Ni1   Ni    Ni4+2 0.104370 0.604370 0.000010 0.204290
Ni2   Ni    Ni4+2 0.895630 0.395630 0.999990 0.200888
Ni3   Ni    Ni4+2 0.991920 0.505780 0.891500 0.210285
Ni4   Ni    Ni4+2 0.008080 0.494220 0.108500 0.210415
O1    O     O_3   0.882576 0.653672 0.309614 -0.693362
O2    O     O_3   0.008587 0.110679 0.176860 -0.668071

loop_
_geom_bond_atom_site_label_1
_geom_bond_atom_site_label_2
_ccdc_geom_bond_type
C61   C70   A    
C45   H33   S    
C66   C68   A    
C46   H14   S    
C63   C65   A    
C28   N3    A    
C18   C75   S    
C80   H47   S    
C6    C45   A    
C27   C29   A    
C75   H37   S    
C41   C42   A    
C14   C18   A    
C35   C36   A    
C56   N9    A    
C3    C6    A    
C83   H54   S    
C81   C82   S    
C81   H49   S    
C39   C41   A    
N8    N14   A    
C7    C11   S    
C79   H43   S    
C26   C27   A    
C50   C54   A    
N6    N16   A    
C1    C74   A    
C56   H12   S    
C22   C24   A    
C21   C22   A    
C22   C29   A    
C82   H52   S    
N2    N4    A    
C30   C31   A    
C12   C64   A    
C67   H23   S    
C23   C49   S    
C40   H30   S    
N3    Ni4   S    
C10   C17   A    
C23   C40   A    
C79   H44   S    
C54   H25   S    
C18   C19   A    
C65   H29   S    
C82   H50   S    
C64   C84   S    
C9    C85   A    
C66   C83   S    
N15   Ni3   S    
C78   N11   A    
C63   C69   A    
C68   C69   A    
C73   N7    A    
C62   C74   S    
C16   N2    A    
C51   C57   A    
C4    C12   A    
C38   H13   S    
C10   H62   S    
C61   C71   A    
C52   H31   S    
C28   C34   A    
C59   C60   A    
C80   H46   S    
C13   C14   A    
N6    Ni4   S    
C76   H38   S    
C69   C70   A    
N1    N7    A    
C80   O2    S    
C12   C47   S    
C24   H7    S    
C83   H55   S    
C44   H18   S    
N11   Ni4   S    
C77   C79   S    
C27   C34   S    
C50   C53   A    
C73   H32   S    
C62   C66   A    
N1    Ni1   S    
C76   C77   S    
C70   H26   S    
C5    C7    A    
C28   O1    S    
C16   H15   S    
C42   C48   A    
C84   H58   S    
N4    Ni2   S    
C64   N6    A    
C33   C37   A    
C49   C58   A    
N12   Ni2   S    
C40   N4    A    
C51   C53   A    
C76   H39   S    
C43   C44   A    
C37   C38   A    
C19   H4    S    
C85   H45   S    
C47   C48   A    
C84   H57   S    
C25   H8    S    
C68   C72   A    
C71   H27   S    
C13   H2    S    
C4    N16   A    
C67   N10   A    
C59   H20   S    
C24   C25   A    
N14   Ni4   S    
C60   H22   S    
C39   C46   A    
C45   N8    A    
C3    H60   S    
C16   C23   A    
C55   C57   A    
N11   N12   A    
N3    N5    A    
C36   C44   A    
C58   H19   S    
C42   C43   A    
C73   C74   A    
N13   Ni1   S    
C29   H6    S    
C77   H40   S    
C53   H24   S    
C1    H1    S    
C15   C17   A    
C79   H42   S    
C46   C47   A    
C5    H61   S    
C6    C50   S    
C62   C65   A    
N16   Ni2   S    
C75   H36   S    
C8    C31   S    
C31   C32   A    
C2    C8    A    
N2    Ni3   S    
C80   C81   S    
N5    Ni1   S    
N10   Ni3   S    
C54   C55   A    
C81   H48   S    
C4    H3    S    
N8    Ni1   S    
N10   N13   A    
C85   N12   A    
C34   C52   A    
C49   C59   A    
C30   C36   A    
C17   C25   A    
C72   O2    S    
C19   C20   A    
C78   H34   S    
C43   H17   S    
C71   C72   A    
C30   H9    S    
C5    N15   A    
C11   C13   A    
C57   C58   A    
C38   C39   A    
C20   C26   A    
N9    Ni2   S    
C51   H21   S    
C48   H16   S    
C33   C35   A    
C76   O1    S    
C7    C56   A    
C9    C78   A    
C75   H35   S    
C82   H51   S    
C32   C33   A    
C35   C41   A    
C10   C11   A    
C3    N14   A    
N9    N15   A    
C63   H28   S    
C15   C21   A    
C32   H10   S    
C20   C21   A    
C37   H11   S    
C8    C67   A    
C2    N13   A    
C2    H56   S    
C84   H59   S    
C14   C15   A    
N7    Ni3   S    
C1    N1    A    
C26   H5    S    
C55   C60   A    
C52   N5    A    
C83   H53   S    
C77   H41   S    
