data_mof_unit_62490.cif
_audit_creation_date              2013-03-05T16:06:57-0500
_audit_creation_method            fapswitch 2.2
_symmetry_space_group_name_H-M    P1
_symmetry_Int_Tables_number       1
_space_group_crystal_system       triclinic
_cell_length_a                    30.272775
_cell_length_b                    21.413055
_cell_length_c                    21.448094
_cell_angle_alpha                 90.204657
_cell_angle_beta                  134.906515
_cell_angle_gamma                 89.965003
_cell_volume                      9847.08462186

loop_
_atom_site_label
_atom_site_type_symbol
_atom_site_description
_atom_site_fract_x
_atom_site_fract_y
_atom_site_fract_z
_atom_type_partial_charge
O1    O     O_R   0.093030 0.500000 0.145540 -0.623651
O2    O     O_R   0.593030 0.000000 0.145540 -0.617283
O3    O     O_R   0.093020 0.500000 0.040510 -0.578312
O4    O     O_R   0.593020 0.000000 0.040510 -0.561611
C1    C     C_R   0.121165 0.500634 0.121147 0.967547
C2    C     C_R   0.621216 0.000130 0.120941 0.978453
O5    O     O_R   0.999990 0.593020 0.052510 -0.627603
O6    O     O_R   0.999990 0.406980 0.052510 -0.611378
O7    O     O_R   0.499990 0.093020 0.052510 -0.618537
O8    O     O_R   0.499990 0.906980 0.052510 -0.620809
O9    O     O_R   0.999990 0.593020 0.947470 -0.561870
O10   O     O_R   0.999990 0.406980 0.947470 -0.589217
O11   O     O_R   0.499990 0.093020 0.947470 -0.594680
O12   O     O_R   0.499990 0.906980 0.947470 -0.569146
C3    C     C_R   0.998958 0.621317 0.999050 0.949712
C4    C     C_R   0.000365 0.378713 0.000165 0.984869
C5    C     C_R   0.500063 0.121285 0.000203 0.979563
C6    C     C_R   0.500885 0.878708 0.000781 0.969250
Zn1   Zn    Zn3+2 0.000000 0.500000 0.070130 1.110999
Zn2   Zn    Zn3+2 0.500000 0.000000 0.070130 1.116415
Zn3   Zn    Zn3+2 0.000000 0.500000 0.929870 1.202384
Zn4   Zn    Zn3+2 0.500000 0.000000 0.929870 1.200901
O13   O     O_R   0.906980 0.500000 0.959490 -0.585856
O14   O     O_R   0.406980 0.000000 0.959490 -0.595178
O15   O     O_R   0.906970 0.500000 0.854460 -0.593107
O16   O     O_R   0.406970 0.000000 0.854460 -0.598305
C7    C     C_R   0.878664 0.500375 0.878895 0.991099
C8    C     C_R   0.378660 0.000724 0.878794 0.994302
C9    C     C_3   0.051480 0.730091 0.030128 0.216009
C10   C     C_3   0.026167 0.270319 0.972515 0.235768
C11   C     C_3   0.535961 0.229371 0.990155 0.222583
C12   C     C_3   0.546644 0.769514 0.008932 0.241223
C13   C     C_3   0.004602 0.772439 0.950472 -0.071335
C14   C     C_3   0.967850 0.228940 0.918806 -0.075771
C15   C     C_3   0.477931 0.270522 0.924793 -0.075737
C16   C     C_3   0.490929 0.728713 0.934170 -0.078495
C17   C     C_3   0.999108 0.812028 0.004565 -0.177012
C18   C     C_3   0.000868 0.188276 0.000356 -0.192321
C19   C     C_3   0.500521 0.311675 0.001702 -0.178181
C20   C     C_3   0.500692 0.688308 0.002148 -0.185114
C21   C     C_3   0.045525 0.768868 0.084011 0.240939
C22   C     C_3   0.059088 0.230255 0.054334 0.252317
C23   C     C_3   0.558301 0.269870 0.067049 0.239564
C24   C     C_3   0.556086 0.729634 0.076735 0.245701
C25   C     C_3   0.991215 0.727184 0.053113 -0.267332
C26   C     C_3   0.034019 0.271708 0.083117 -0.234873
C27   C     C_3   0.522964 0.228690 0.079389 -0.258009
C28   C     C_3   0.512088 0.771892 0.071615 -0.242500
C29   C     C_3   0.944895 0.770216 0.972256 0.004780
C30   C     C_3   0.975057 0.229907 0.026897 -0.003215
C31   C     C_3   0.464785 0.270323 0.012199 0.019636
C32   C     C_3   0.456514 0.730657 0.995290 0.004266
C33   C     C_3   0.950469 0.731115 0.918189 0.240055
C34   C     C_3   0.941851 0.270076 0.945329 0.245478
C35   C     C_3   0.441880 0.229726 0.935069 0.241644
C36   C     C_3   0.446373 0.770564 0.926862 0.238316
C37   C     C_3   0.997450 0.688405 0.998113 -0.263566
C38   C     C_3   0.000185 0.311686 0.999408 -0.276602
C39   C     C_3   0.499812 0.188315 0.000465 -0.278093
C40   C     C_3   0.502008 0.811656 0.001789 -0.276167
H1    H     H_    0.985213 0.708622 0.095034 0.223153
H2    H     H_    0.060826 0.289764 0.150374 0.228110
H3    H     H_    0.541369 0.211176 0.142757 0.214836
H4    H     H_    0.520981 0.789877 0.128277 0.228884
C41   C     C_3   0.229688 0.445121 0.213492 0.240874
C42   C     C_3   0.230649 0.544615 0.193403 0.172641
C43   C     C_3   0.729106 0.944008 0.245241 0.247419
C44   C     C_3   0.730208 0.013376 0.171878 0.175829
C45   C     C_3   0.272115 0.488671 0.218243 -0.070060
C46   C     C_3   0.770902 0.957283 0.230139 -0.084806
C47   C     C_3   0.311925 0.501159 0.316453 -0.283684
C48   C     C_3   0.811827 0.000291 0.311657 -0.299382
C49   C     C_3   0.269029 0.457271 0.311363 0.173274
C50   C     C_3   0.269670 0.557409 0.290988 0.217042
C51   C     C_3   0.769607 0.986989 0.326267 0.195782
C52   C     C_3   0.770659 0.056636 0.252897 0.229254
C53   C     C_3   0.227527 0.513259 0.286758 -0.079037
C54   C     C_3   0.729039 0.043273 0.268249 -0.082413
C55   C     C_3   0.187915 0.501062 0.188430 -0.284378
C56   C     C_3   0.688071 0.000146 0.186820 -0.279405
C57   C     C_3   0.772018 0.558910 0.757882 -0.242843
C58   C     C_3   0.771887 0.458704 0.729353 -0.197267
C59   C     C_3   0.271013 0.037731 0.724482 -0.184600
C60   C     C_3   0.271958 0.941440 0.764512 -0.253737
C61   C     C_3   0.731220 0.516621 0.675632 0.303040
C62   C     C_3   0.230326 0.978448 0.677674 0.291827
H5    H     H_    0.789547 0.606191 0.763592 0.242967
H6    H     H_    0.789892 0.424917 0.712322 0.238481
H7    H     H_    0.287985 0.067337 0.702513 0.243238
H8    H     H_    0.289898 0.893488 0.775101 0.251359
C63   C     C_3   0.688695 0.500758 0.688449 -0.344284
C64   C     C_3   0.188551 0.999908 0.690111 -0.338504
C65   C     C_3   0.729746 0.541792 0.771493 0.176537
C66   C     C_3   0.729898 0.444131 0.744335 0.199476
C67   C     C_3   0.229786 0.058206 0.738887 0.189747
C68   C     C_3   0.230568 0.964416 0.777756 0.168986
C69   C     C_3   0.769958 0.485145 0.826994 0.203799
C70   C     C_3   0.270793 0.022953 0.825927 0.200872
C71   C     C_3   0.811613 0.500724 0.812484 -0.244166
C72   C     C_3   0.311584 0.001334 0.812056 -0.232673
O17   O     O_R   0.947510 0.000000 0.854550 -0.599657
O18   O     O_R   0.447510 0.500000 0.854550 -0.593703
O19   O     O_R   0.052540 0.000000 0.959610 -0.560095
O20   O     O_R   0.552540 0.500000 0.959610 -0.564509
C73   C     C_R   0.000155 0.998641 0.879055 0.988242
C74   C     C_R   0.500045 0.500979 0.879005 1.002993
O21   O     O_R   0.947490 0.906970 0.947560 -0.619098
O22   O     O_R   0.947490 0.093030 0.947560 -0.628537
O23   O     O_R   0.447490 0.406970 0.947560 -0.629900
O24   O     O_R   0.447490 0.593030 0.947560 -0.626458
O25   O     O_R   0.052520 0.906980 0.052620 -0.559613
O26   O     O_R   0.052520 0.093020 0.052620 -0.585666
O27   O     O_R   0.552520 0.406980 0.052620 -0.572239
O28   O     O_R   0.552520 0.593020 0.052620 -0.573842
C75   C     C_R   0.999820 0.878918 0.003232 0.943343
C76   C     C_R   0.000199 0.121281 0.000203 0.930803
C77   C     C_R   0.500067 0.378709 0.000852 0.944851
C78   C     C_R   0.500135 0.621283 0.001225 0.941594
Zn5   Zn    Zn3+2 0.929870 0.000000 0.929930 1.134251
Zn6   Zn    Zn3+2 0.429870 0.500000 0.929930 1.135672
Zn7   Zn    Zn3+2 0.070130 0.000000 0.070230 1.187318
Zn8   Zn    Zn3+2 0.570130 0.500000 0.070230 1.192731
O29   O     O_R   0.947460 0.000000 0.040550 -0.583507
O30   O     O_R   0.447460 0.500000 0.040550 -0.590509
O31   O     O_R   0.052490 0.000000 0.145610 -0.621243
O32   O     O_R   0.552490 0.500000 0.145610 -0.618831
C79   C     C_R   0.999870 0.999258 0.121209 0.915461
C80   C     C_R   0.499819 0.501007 0.121039 0.918915
O33   O     O_R   0.499990 0.552490 0.407030 -0.610172
O34   O     O_R   0.499990 0.447510 0.407030 -0.593865
O35   O     O_R   0.999990 0.052490 0.407030 -0.578981
O36   O     O_R   0.999990 0.947510 0.407030 -0.622389
C81   C     C_R   0.500068 0.499749 0.378793 0.925724
C82   C     C_R   0.000342 0.999786 0.379147 0.931758
O37   O     O_R   0.406970 0.552510 0.407040 -0.588854
O38   O     O_R   0.406970 0.447490 0.407040 -0.579098
O39   O     O_R   0.906970 0.052510 0.407040 -0.584672
O40   O     O_R   0.906970 0.947490 0.407040 -0.591424
C83   C     C_R   0.378801 0.500150 0.381505 0.930046
C84   C     C_R   0.878733 0.000018 0.378524 0.964552
Zn9   Zn    Zn3+2 0.499990 0.570130 0.500050 1.185842
Zn10  Zn    Zn3+2 0.499990 0.429870 0.500050 1.191338
Zn11  Zn    Zn3+2 0.999990 0.070130 0.500050 1.207746
Zn12  Zn    Zn3+2 0.999990 0.929870 0.500050 1.173720
O41   O     O_R   0.500000 0.552540 0.593090 -0.573401
O42   O     O_R   0.500000 0.447460 0.593090 -0.582052
O43   O     O_R   0.000000 0.052540 0.593090 -0.579675
O44   O     O_R   0.000000 0.947460 0.593090 -0.574788
O45   O     O_R   0.593020 0.552520 0.593090 -0.578375
O46   O     O_R   0.593020 0.447480 0.593090 -0.583672
O47   O     O_R   0.093020 0.052520 0.593090 -0.590885
O48   O     O_R   0.093020 0.947480 0.593090 -0.563545
C85   C     C_R   0.498505 0.499956 0.619831 0.971322
C86   C     C_R   0.998937 0.000036 0.620245 1.002144
C87   C     C_R   0.621435 0.500159 0.621052 0.983071
C88   C     C_R   0.121372 0.000043 0.622301 0.982850
C89   C     C_3   0.007939 0.056453 0.779543 0.208093
C90   C     C_3   0.045829 0.961873 0.814778 0.180966
C91   C     C_3   0.536593 0.546073 0.806082 0.213938
C92   C     C_3   0.519007 0.445598 0.789961 0.170906
C93   C     C_3   0.555626 0.490174 0.784221 -0.059333
C94   C     C_3   0.053131 0.020818 0.782009 -0.072340
C95   C     C_3   0.497138 0.499527 0.685406 -0.292878
C96   C     C_3   0.997746 0.999860 0.685942 -0.291393
C97   C     C_3   0.477879 0.555356 0.707583 0.145836
C98   C     C_3   0.460360 0.454663 0.691512 0.154755
C99   C     C_3   0.952370 0.035585 0.683739 0.191833
C100  C     C_3   0.990383 0.940792 0.719192 0.161068
C101  C     C_3   0.944934 0.976523 0.716360 0.115975
C102  C     C_3   0.440945 0.510435 0.712913 0.110927
C103  C     C_3   0.000429 0.997541 0.812509 -0.389403
C104  C     C_3   0.499795 0.501278 0.812056 -0.371108
C105  C     C_3   0.051799 0.970715 0.280994 -0.003999
C106  C     C_3   0.998641 0.057306 0.228429 -0.001258
C107  C     C_3   0.514247 0.443783 0.242023 -0.005036
C108  C     C_3   0.542038 0.541435 0.271744 -0.014151
C109  C     C_3   0.556720 0.483675 0.326050 0.261058
C110  C     C_3   0.050634 0.029708 0.320867 0.252614
C111  C     C_3   0.500481 0.498852 0.312183 -0.183142
C112  C     C_3   0.000729 0.999001 0.312671 -0.178066
C113  C     C_3   0.458072 0.458391 0.227835 -0.013803
C114  C     C_3   0.485627 0.556504 0.256947 -0.012365
C115  C     C_3   0.001852 0.939895 0.272278 0.006048
C116  C     C_3   0.948786 0.026618 0.219896 -0.020089
C117  C     C_3   0.949787 0.967629 0.179865 0.216672
C118  C     C_3   0.442982 0.516061 0.173158 0.226875
C119  C     C_3   0.999707 0.998419 0.187981 -0.185176
C120  C     C_3   0.499389 0.501391 0.187314 -0.176745
N1    N     N_3   0.012775 0.797296 0.896011 -0.315102
H9    H     H_    0.009279 0.759866 0.861331 0.277235
H10   H     H_    0.975055 0.826641 0.849459 0.244906
N2    N     N_3   0.932434 0.205156 0.830551 -0.320704
H11   H     H_    0.912507 0.243524 0.788369 0.263197
H12   H     H_    0.895604 0.178473 0.811431 0.242363
N3    N     N_3   0.453418 0.293779 0.841547 -0.304436
H13   H     H_    0.437170 0.255272 0.800025 0.260545
H14   H     H_    0.414591 0.321352 0.813098 0.247459
N4    N     N_3   0.479811 0.704237 0.860614 -0.328624
H15   H     H_    0.473788 0.742415 0.825045 0.275185
H16   H     H_    0.437431 0.680041 0.819326 0.233031
N5    N     N_3   0.203500 0.528150 0.324684 -0.327609
H17   H     H_    0.241864 0.535633 0.392075 0.261064
H18   H     H_    0.180298 0.488637 0.318242 0.250458
N6    N     N_3   0.705680 0.090164 0.288413 -0.349132
H19   H     H_    0.744267 0.109237 0.349889 0.269026
H20   H     H_    0.679377 0.066971 0.295996 0.240350
N7    N     N_R   0.710603 0.535892 0.593518 0.261412
O49   O     O_R   0.745204 0.523182 0.579837 -0.262894
O50   O     O_R   0.666726 0.577370 0.544694 -0.352151
N8    N     N_R   0.209495 0.953339 0.597168 0.258871
O51   O     O_R   0.250437 0.937601 0.596085 -0.280146
O52   O     O_R   0.150485 0.945285 0.526881 -0.378095
N9    N     N_R   0.706805 0.587490 0.793452 0.271016
O53   O     O_R   0.723669 0.645702 0.806065 -0.297912
O54   O     O_R   0.668014 0.570717 0.798107 -0.307415
N10   N     N_R   0.706622 0.382102 0.736761 0.286467
O55   O     O_R   0.718160 0.334964 0.711709 -0.248214
O56   O     O_R   0.672382 0.374008 0.752016 -0.309394
N11   N     N_R   0.206957 0.121398 0.726598 0.277442
O57   O     O_R   0.216188 0.164420 0.694161 -0.237199
O58   O     O_R   0.177138 0.134972 0.747947 -0.299703
N12   N     N_R   0.210982 0.923573 0.808910 0.261036
O59   O     O_R   0.252781 0.894278 0.883129 -0.261496
O60   O     O_R   0.152226 0.912573 0.760516 -0.333594
N13   N     N_R   0.791959 0.469652 0.911299 0.253061
O61   O     O_R   0.785661 0.413331 0.926598 -0.267822
O62   O     O_R   0.818291 0.512342 0.971932 -0.301438
N14   N     N_R   0.293467 0.049541 0.906994 0.256124
O63   O     O_R   0.277857 0.024728 0.944443 -0.297971
O64   O     O_R   0.326844 0.100333 0.939696 -0.297777
N15   N     N_3   0.618201 0.478029 0.823351 -0.310543
H21   H     H_    0.646824 0.470307 0.890495 0.259551
H22   H     H_    0.616561 0.436258 0.796465 0.257157
N16   N     N_3   0.111482 0.046664 0.816723 -0.320202
H23   H     H_    0.141717 0.051330 0.884795 0.272589
H24   H     H_    0.131156 0.013630 0.806388 0.243847
N17   N     N_R   0.019959 0.119208 0.815233 0.240862
O65   O     O_R   0.988297 0.166392 0.762773 -0.265047
O66   O     O_R   0.066727 0.129066 0.899193 -0.307028
N18   N     N_R   0.097497 0.921702 0.884650 0.262123
O67   O     O_R   0.136518 0.901718 0.881638 -0.234485
O68   O     O_R   0.102253 0.901669 0.946310 -0.309428
N19   N     N_R   0.579218 0.595802 0.867625 0.265024
O69   O     O_R   0.610348 0.626569 0.856715 -0.207396
O70   O     O_R   0.585685 0.610533 0.932555 -0.320785
N20   N     N_R   0.542721 0.385323 0.834122 0.248832
O71   O     O_R   0.553073 0.341456 0.803695 -0.259117
O72   O     O_R   0.557952 0.376513 0.907255 -0.339845
N21   N     N_R   0.454117 0.614742 0.661009 0.270581
O73   O     O_R   0.481086 0.666964 0.703436 -0.274722
O74   O     O_R   0.404334 0.615787 0.576847 -0.270808
N22   N     N_R   0.419010 0.403300 0.632946 0.276681
O75   O     O_R   0.394516 0.368494 0.651690 -0.268572
O76   O     O_R   0.410088 0.388852 0.565906 -0.272175
N23   N     N_R   0.901358 0.076630 0.614550 0.284861
O77   O     O_R   0.867689 0.103792 0.623562 -0.278199
O78   O     O_R   0.890551 0.088281 0.545344 -0.323147
N24   N     N_R   0.979140 0.877386 0.685413 0.266027
O79   O     O_R   0.018085 0.832850 0.737171 -0.271505
O80   O     O_R   0.928161 0.864325 0.604411 -0.241469
N25   N     N_R   0.886615 0.950164 0.681444 0.281695
O81   O     O_R   0.833620 0.976498 0.615817 -0.224280
O82   O     O_R   0.887259 0.898782 0.714170 -0.319354
N26   N     N_R   0.377875 0.520960 0.673485 0.257659
O83   O     O_R   0.351613 0.575268 0.641427 -0.295446
O84   O     O_R   0.348110 0.476413 0.672289 -0.279695
N27   N     N_R   0.618193 0.463075 0.407100 0.232692
O85   O     O_R   0.624944 0.436895 0.468003 -0.355869
O86   O     O_R   0.662372 0.457765 0.409930 -0.305080
N28   N     N_R   0.104371 0.064846 0.397275 0.223925
O87   O     O_R   0.160621 0.048593 0.437670 -0.321724
O88   O     O_R   0.096085 0.114091 0.423642 -0.322813
N29   N     N_R   0.108820 0.709289 0.057811 0.238949
O89   O     O_R   0.162285 0.729605 0.131371 -0.219644
O90   O     O_R   0.105964 0.680004 0.001867 -0.275145
N30   N     N_R   0.052522 0.292919 0.940319 0.265381
O91   O     O_R   0.110978 0.283804 0.985476 -0.211639
O92   O     O_R   0.016942 0.320565 0.864431 -0.299821
N31   N     N_R   0.575425 0.205338 0.979566 0.266724
O93   O     O_R   0.564560 0.220295 0.911069 -0.237593
O94   O     O_R   0.621213 0.167862 0.038186 -0.289928
N32   N     N_R   0.596153 0.789276 0.015987 0.261429
O95   O     O_R   0.625207 0.747983 0.011244 -0.220778
O96   O     O_R   0.612476 0.847667 0.028731 -0.336535
N33   N     N_3   0.107074 0.938656 0.313018 -0.325782
H25   H     H_    0.132666 0.924138 0.377273 0.280820
H26   H     H_    0.134462 0.971402 0.316803 0.255144
N34   N     N_3   0.996359 0.121070 0.203124 -0.403944
H27   H     H_    0.996696 0.150777 0.242205 0.257270
H28   H     H_    0.037767 0.129230 0.219993 0.218244
N35   N     N_3   0.528962 0.382164 0.231809 -0.402723
H29   H     H_    0.539728 0.353514 0.280349 0.247257
H30   H     H_    0.569616 0.386491 0.245806 0.248748
N36   N     N_3   0.587110 0.587418 0.294907 -0.346013
H31   H     H_    0.609178 0.606005 0.356264 0.264876
H32   H     H_    0.621214 0.563538 0.303567 0.263898
N37   N     N_3   0.415263 0.410201 0.206540 -0.367366
H33   H     H_    0.391423 0.393149 0.143769 0.250792
H34   H     H_    0.382584 0.431694 0.202624 0.226396
N38   N     N_3   0.470403 0.618573 0.265168 -0.358177
H35   H     H_    0.464410 0.647532 0.220561 0.244981
H36   H     H_    0.427097 0.615449 0.244169 0.223816
N39   N     N_3   0.005376 0.875877 0.298291 -0.347218
H37   H     H_    0.006960 0.846575 0.260840 0.244468
H38   H     H_    0.963730 0.866138 0.280158 0.234926
N40   N     N_3   0.893353 0.057836 0.188394 -0.341625
H39   H     H_    0.866847 0.071547 0.123547 0.266060
H40   H     H_    0.867082 0.024567 0.186283 0.201979
N41   N     N_R   0.894248 0.935077 0.102122 0.221115
O97   O     O_R   0.887100 0.875610 0.104791 -0.361309
O98   O     O_R   0.850773 0.965832 0.029993 -0.317748
N42   N     N_R   0.381545 0.535393 0.090373 0.230343
O99   O     O_R   0.332296 0.502724 0.055145 -0.356092
O100  O     O_R   0.375599 0.586502 0.052456 -0.344000
N43   N     N_R   0.097351 0.786548 0.176136 0.253951
O101  O     O_R   0.131277 0.743246 0.235239 -0.264346
O102  O     O_R   0.105481 0.844322 0.201172 -0.339566
N44   N     N_R   0.123115 0.207780 0.114075 0.270354
O103  O     O_R   0.140890 0.174440 0.084254 -0.243223
O104  O     O_R   0.162176 0.219022 0.198061 -0.272206
N45   N     N_R   0.621635 0.292803 0.139985 0.250901
O105  O     O_R   0.664361 0.284242 0.140399 -0.229630
O106  O     O_R   0.635646 0.322069 0.205316 -0.339394
N46   N     N_R   0.615144 0.705813 0.159120 0.259475
O107  O     O_R   0.665896 0.711187 0.177002 -0.225940
O108  O     O_R   0.616776 0.676966 0.213948 -0.340406
N47   N     N_3   0.886710 0.792475 0.941340 -0.342803
H41   H     H_    0.859915 0.753172 0.925562 0.239710
H42   H     H_    0.862574 0.816450 0.882534 0.254975
N48   N     N_3   0.946752 0.206980 0.055898 -0.407483
H43   H     H_    0.930815 0.245796 0.064944 0.245917
H44   H     H_    0.907471 0.180768 0.004341 0.247364
N49   N     N_3   0.426125 0.293721 0.024422 -0.396622
H45   H     H_    0.406295 0.254995 0.026657 0.248337
H46   H     H_    0.389471 0.318844 0.968092 0.244926
N50   N     N_3   0.408298 0.708091 0.989446 -0.353880
H47   H     H_    0.385511 0.747151 0.985013 0.249803
H48   H     H_    0.375626 0.683329 0.930372 0.263897
N51   N     N_R   0.898160 0.712583 0.826669 0.217427
O109  O     O_R   0.862704 0.755044 0.766724 -0.301861
O110  O     O_R   0.887643 0.654033 0.803863 -0.362388
N52   N     N_R   0.877313 0.290574 0.885946 0.229671
O111  O     O_R   0.832666 0.249463 0.844046 -0.306831
O112  O     O_R   0.864054 0.349664 0.876159 -0.390010
N53   N     N_R   0.377694 0.209038 0.862636 0.234175
O113  O     O_R   0.333388 0.249979 0.812974 -0.303881
O114  O     O_R   0.364415 0.149884 0.846446 -0.386839
N54   N     N_R   0.387033 0.793832 0.844325 0.202540
O115  O     O_R   0.335013 0.778008 0.819340 -0.367592
O116  O     O_R   0.385740 0.828564 0.793452 -0.336504
N55   N     N_3   0.296642 0.476109 0.180747 -0.388655
H49   H     H_    0.258696 0.471480 0.112702 0.280460
H50   H     H_    0.321257 0.515867 0.191276 0.204788
N56   N     N_3   0.794884 0.910536 0.210790 -0.328863
H51   H     H_    0.756634 0.890139 0.150243 0.286880
H52   H     H_    0.820443 0.934097 0.202134 0.189805
N57   N     N_R   0.206620 0.384128 0.170928 0.257223
O117  O     O_R   0.225162 0.359381 0.137187 -0.261765
O118  O     O_R   0.167909 0.353766 0.167778 -0.354474
N58   N     N_R   0.212133 0.590012 0.128214 0.250643
O119  O     O_R   0.243135 0.642035 0.154342 -0.248413
O120  O     O_R   0.177112 0.572015 0.047099 -0.289394
N59   N     N_R   0.705870 0.882948 0.240993 0.249643
O121  O     O_R   0.725377 0.832731 0.232459 -0.251555
O122  O     O_R   0.667249 0.878249 0.249004 -0.316478
N60   N     N_R   0.708416 0.025985 0.087020 0.243092
O123  O     O_R   0.718733 0.079889 0.071544 -0.246423
O124  O     O_R   0.679638 0.982631 0.026864 -0.298916
N61   N     N_R   0.289522 0.407989 0.373619 0.260484
O125  O     O_R   0.274568 0.409420 0.417448 -0.307393
O126  O     O_R   0.318287 0.359511 0.379772 -0.235849
N62   N     N_R   0.284698 0.620103 0.328600 0.266740
O127  O     O_R   0.239650 0.658585 0.296486 -0.232695
O128  O     O_R   0.341730 0.636769 0.397372 -0.265229
N63   N     N_R   0.789562 0.971952 0.409223 0.262972
O129  O     O_R   0.748291 0.964846 0.411930 -0.261031
O130  O     O_R   0.848047 0.961945 0.479542 -0.324912
N64   N     N_R   0.793782 0.117894 0.257173 0.277933
O131  O     O_R   0.829997 0.123071 0.244910 -0.313112
O132  O     O_R   0.778114 0.167664 0.272672 -0.254268

loop_
_geom_bond_atom_site_label_1
_geom_bond_atom_site_label_2
_geom_bond_distance
_ccdc_geom_bond_type
O36   Zn12  2.031872 S    
N23   O78   1.299796 A    
N57   O117  1.299992 A    
C58   C66   1.547333 S    
C35   C39   1.537273 S    
N37   H34   1.039210 S    
Zn10  O42   2.029232 S    
C69   N13   1.458379 S    
N35   H29   1.044843 S    
C23   N45   1.457825 S    
O24   C78   1.279451 A    
C31   N49   1.456353 S    
C49   N61   1.456407 S    
N39   H38   1.044812 S    
N49   H45   1.044913 S    
O37   C83   1.273411 A    
C42   C55   1.536437 S    
C25   C37   1.556891 S    
N32   O95   1.300199 A    
C26   H2    1.110196 S    
C95   C97   1.543364 S    
C60   C62   1.542865 S    
C9    C13   1.530139 S    
N62   O127  1.299870 A    
C13   N1    1.456575 S    
C11   C39   1.537377 S    
C107  C120  1.537966 S    
O9    C3    1.279064 A    
O27   Zn8   2.026310 S    
O48   C88   1.277857 A    
O8    Zn2   2.026012 S    
N46   O107  1.299532 A    
C79   C119  1.435788 S    
C91   C93   1.536605 S    
C92   C98   1.535527 S    
Zn9   O41   2.031876 S    
C33   N51   1.457619 S    
O5    C3    1.279537 A    
O6    C4    1.280661 A    
O17   C73   1.278443 A    
N16   H24   1.043540 S    
O20   C74   1.279020 A    
N14   O63   1.300010 A    
C93   C95   1.539892 S    
C108  C120  1.539688 S    
C94   C96   1.541004 S    
N9    O54   1.297791 A    
O39   C84   1.275257 A    
C99   N23   1.459954 S    
N48   H43   1.044880 S    
O23   C77   1.281087 A    
C60   C72   1.545682 S    
C96   C100  1.545711 S    
C107  C109  1.532809 S    
C106  C116  1.534104 S    
C47   C49   1.543380 S    
N52   O111  1.300084 A    
C57   C71   1.545084 S    
C66   C69   1.529592 S    
C32   N50   1.456641 S    
C98   N22   1.458137 S    
Zn1   O13   2.031274 S    
C114  N38   1.456815 S    
C2    C56   1.433523 S    
N39   H37   1.044947 S    
C7    C71   1.437713 S    
C101  N25   1.458679 S    
N40   H39   1.044698 S    
C92   C104  1.539047 S    
C116  N40   1.456168 S    
O40   C84   1.278872 A    
O33   C81   1.280361 A    
C100  C101  1.537264 S    
C14   C34   1.531897 S    
N21   O74   1.299788 A    
O5    Zn1   2.028662 S    
C59   C72   1.547903 S    
N28   O88   1.300158 A    
O19   Zn7   2.031977 S    
O35   Zn11  2.029220 S    
N38   H35   1.044895 S    
C73   C103  1.433258 S    
C74   C104  1.430629 S    
N50   H47   1.044859 S    
C47   C83   1.434527 S    
N63   O129  1.300057 A    
Zn5   O29   2.031975 S    
C58   C61   1.544927 S    
C113  N37   1.454449 S    
C14   N2    1.456139 S    
O45   C87   1.277483 A    
N33   H26   1.044493 S    
C89   C103  1.541651 S    
C63   C66   1.536389 S    
Zn10  O46   2.028996 S    
O8    C6    1.279013 A    
C29   C33   1.530830 S    
N54   O115  1.299920 A    
C31   C35   1.531042 S    
N31   O94   1.300515 A    
C27   C39   1.555414 S    
N3    H13   1.044832 S    
N37   H33   1.044842 S    
C42   N58   1.454833 S    
C28   C32   1.546891 S    
C59   C62   1.543805 S    
C51   N63   1.456244 S    
O36   C82   1.274582 A    
N45   O105  1.300056 A    
O31   C79   1.278491 A    
C21   C25   1.548596 S    
N4    H16   1.045002 S    
N64   O131  1.300338 A    
C23   C27   1.547427 S    
C89   C94   1.534125 S    
C24   C28   1.548415 S    
O23   Zn6   2.028573 S    
N2    H12   1.044644 S    
N22   O75   1.300250 A    
C19   C31   1.533504 S    
C41   C55   1.538188 S    
N55   H49   1.044713 S    
C99   C101  1.539056 S    
N21   O73   1.299989 A    
C11   C23   1.531349 S    
C85   C95   1.436021 S    
C12   C16   1.533804 S    
C86   C96   1.434765 S    
N35   H30   1.044822 S    
C52   C54   1.537734 S    
C109  N27   1.454848 S    
C114  C118  1.536479 S    
N25   O81   1.299708 A    
C54   C56   1.540415 S    
C24   N46   1.457332 S    
O20   Zn8   2.031977 S    
C42   C50   1.535144 S    
C64   C68   1.536967 S    
C57   C65   1.544642 S    
C116  C117  1.537062 S    
C102  N26   1.460300 S    
N1    H10   1.043805 S    
N44   O104  1.300323 A    
C93   N15   1.454898 S    
N26   O83   1.299996 A    
C109  C111  1.541994 S    
C50   C53   1.538520 S    
C68   C70   1.528970 S    
C41   N57   1.455787 S    
C1    C55   1.431288 S    
C107  C113  1.533559 S    
C35   N53   1.455821 S    
N17   O65   1.299911 A    
C26   C38   1.555269 S    
N5    H18   1.044595 S    
C43   N59   1.456830 S    
C60   H8    1.108004 S    
C48   C51   1.542557 S    
N58   O119  1.300027 A    
N13   O61   1.299956 A    
N41   O98   1.300235 A    
C9    N29   1.452537 S    
C59   H7    1.110075 S    
O6    Zn1   2.026012 S    
C10   C14   1.533628 S    
O10   C4    1.276960 A    
N47   H42   1.044620 S    
O9    Zn3   2.026012 S    
C91   C97   1.537115 S    
N34   H28   1.045088 S    
Zn7   O31   2.029302 S    
C106  C119  1.541213 S    
O4    Zn4   2.031274 S    
O29   C79   1.278745 A    
N31   O93   1.300034 A    
O21   C75   1.276493 A    
O19   C73   1.277501 A    
N12   O60   1.299513 A    
O27   C77   1.275835 A    
C98   C102  1.535744 S    
N8    O52   1.299912 A    
O46   C87   1.280636 A    
C43   C51   1.533623 S    
C65   C69   1.527342 S    
O26   C76   1.276087 A    
C61   N7    1.454160 S    
C101  C103  1.542860 S    
C6    C40   1.436046 S    
Zn3   O15   2.028819 S    
N20   O71   1.300194 A    
C105  C119  1.544040 S    
C49   C53   1.536484 S    
C9    C21   1.531238 S    
O14   C8    1.279045 A    
N30   O92   1.300262 A    
C53   N5    1.457973 S    
C113  C118  1.536940 S    
C44   C52   1.537115 S    
N32   O96   1.299939 A    
O11   C5    1.279512 A    
C43   C46   1.538308 S    
C107  N35   1.456836 S    
O12   Zn4   2.028664 S    
N24   O79   1.300029 A    
O26   Zn7   2.028320 S    
Zn12  O48   2.028996 S    
O40   Zn12  2.030828 S    
C105  C110  1.537248 S    
C58   H6    1.110283 S    
Zn11  O47   2.031005 S    
N18   O67   1.299865 A    
N29   O90   1.299480 A    
N62   O128  1.298190 A    
C17   C21   1.536612 S    
O34   Zn10  2.031872 S    
C112  C116  1.539907 S    
O37   Zn9   2.028819 S    
N6    H19   1.044963 S    
C21   N43   1.458594 S    
N46   O108  1.299993 A    
N56   H51   1.044721 S    
C67   N11   1.456807 S    
N7    O50   1.300411 A    
C82   C112  1.434110 S    
C57   C61   1.539865 S    
N3    H14   1.044802 S    
C20   C78   1.435221 S    
C10   N30   1.458887 S    
C58   C71   1.548332 S    
O35   C82   1.278891 A    
C50   N62   1.461089 S    
C89   C99   1.538077 S    
N14   O64   1.300401 A    
C90   C100  1.536205 S    
C44   N60   1.459000 S    
N9    O53   1.300355 A    
C30   C34   1.528949 S    
N48   H44   1.044839 S    
O1    C1    1.276145 A    
C16   N4    1.456531 S    
C27   H3    1.110183 S    
N36   H31   1.044891 S    
N52   O112  1.299397 A    
C28   H4    1.110216 S    
C92   C93   1.532946 S    
O33   Zn9   2.029220 S    
N19   O69   1.300058 A    
C22   C26   1.549715 S    
C91   N19   1.458810 S    
C100  N24   1.459277 S    
N60   O123  1.299841 A    
O38   Zn10  2.030828 S    
C45   N55   1.453171 S    
N40   H40   1.044827 S    
N59   O121  1.299581 A    
N53   O114  1.298841 A    
C106  C110  1.535796 S    
C15   N3    1.456643 S    
O30   C80   1.276488 A    
C111  C114  1.545110 S    
C52   N64   1.458986 S    
C53   C55   1.542599 S    
N43   O101  1.300201 A    
N57   O118  1.299784 A    
O22   Zn5   2.026557 S    
O44   C86   1.276511 A    
O38   C83   1.281586 A    
C12   N32   1.458888 S    
O21   Zn5   2.028573 S    
N38   H36   1.045114 S    
N49   H46   1.044724 S    
O1    Zn1   2.028816 S    
C65   N9    1.455827 S    
N7    O49   1.300148 A    
C36   N54   1.457506 S    
C95   C98   1.545229 S    
C108  N36   1.455723 S    
N50   H48   1.044616 S    
C91   C104  1.543103 S    
N11   O57   1.300063 A    
C33   C37   1.537870 S    
C27   C31   1.548279 S    
C19   C77   1.435511 S    
O2    Zn2   2.028816 S    
C13   C17   1.535437 S    
C36   C40   1.537409 S    
C15   C19   1.537152 S    
N33   H25   1.044704 S    
C16   C36   1.532353 S    
C63   C65   1.534216 S    
C17   C29   1.538477 S    
O7    Zn2   2.028662 S    
N51   O109  1.300205 A    
C25   C29   1.548955 S    
N27   O85   1.300212 A    
N54   O116  1.300257 A    
N15   H22   1.044491 S    
O47   C88   1.279269 A    
C57   H5    1.108880 S    
O4    C2    1.274947 A    
C9    C37   1.534681 S    
C4    C38   1.435253 S    
C68   N12   1.458451 S    
C30   N48   1.455122 S    
C11   C15   1.535453 S    
O34   C81   1.274719 A    
N16   H23   1.044825 S    
C12   C40   1.539760 S    
C118  C120  1.541020 S    
O18   Zn6   2.029304 S    
N22   O76   1.297978 A    
C97   C102  1.539820 S    
C80   C120  1.430701 S    
C66   N10   1.457748 S    
C96   C99   1.543295 S    
C43   C56   1.539303 S    
C62   N8    1.457608 S    
N10   O56   1.300377 A    
O3    C1    1.279310 A    
C47   C50   1.549748 S    
C110  C112  1.539833 S    
N55   H50   1.045394 S    
C17   C75   1.433175 S    
C22   N44   1.458459 S    
O22   C76   1.280412 A    
N47   H41   1.045001 S    
N2    H11   1.044768 S    
N27   O86   1.300191 A    
O42   C85   1.275386 A    
C102  C104  1.545271 S    
C41   C45   1.531570 S    
C25   H1    1.110302 S    
N42   O100  1.300354 A    
O11   Zn4   2.026012 S    
N1    H9    1.044771 S    
C70   C72   1.531252 S    
C46   N56   1.457009 S    
C117  C119  1.542005 S    
C94   N16   1.456802 S    
C105  C115  1.535556 S    
N26   O84   1.300282 A    
Zn4   O16   2.028819 S    
N28   O87   1.299923 A    
C10   C22   1.532688 S    
C110  N28   1.458357 S    
C44   C56   1.545441 S    
O25   Zn7   2.026310 S    
N5    H17   1.045057 S    
O12   C6    1.278980 A    
Zn12  O44   2.029232 S    
N58   O120  1.300294 A    
C61   C63   1.532639 S    
C67   C70   1.527373 S    
Zn9   O45   2.031005 S    
N41   O97   1.299986 A    
N42   O99   1.300022 A    
Zn11  O43   2.031876 S    
C97   N21   1.457997 S    
C54   N6    1.457079 S    
C18   C22   1.538901 S    
C115  C117  1.536878 S    
C90   C103  1.542474 S    
C42   C45   1.533976 S    
C41   C49   1.535963 S    
C118  N42   1.457713 S    
C60   C68   1.547113 S    
C45   C47   1.540481 S    
O43   C86   1.278835 A    
N13   O62   1.300388 A    
Zn2   O14   2.031274 S    
N19   O70   1.299691 A    
C3    C37   1.437013 S    
N4    H15   1.044722 S    
O13   C7    1.277077 A    
C11   N31   1.457819 S    
C112  C115  1.545100 S    
O41   C85   1.280687 A    
C8    C72   1.438278 S    
O39   Zn11  2.028819 S    
C106  N34   1.454618 S    
N59   O122  1.300198 A    
O2    C2    1.281440 A    
C117  N41   1.458730 S    
C69   C71   1.534146 S    
C28   C40   1.557086 S    
C70   N14   1.458358 S    
N63   O130  1.298831 A    
C13   C33   1.530783 S    
N20   O72   1.299768 A    
N43   O102  1.299381 A    
C15   C35   1.531311 S    
O17   Zn5   2.029304 S    
C16   C20   1.536844 S    
N10   O55   1.300082 A    
C29   N47   1.456565 S    
O24   Zn6   2.026557 S    
N25   O82   1.299926 A    
C90   C94   1.536869 S    
C81   C111  1.437580 S    
C19   C23   1.539796 S    
N45   O106  1.300381 A    
C20   C32   1.534381 S    
O10   Zn3   2.028664 S    
C64   C67   1.536177 S    
Zn8   O32   2.029302 S    
N24   O80   1.299905 A    
C63   C87   1.442165 S    
N44   O103  1.300186 A    
N11   O58   1.300525 A    
C18   C76   1.434676 S    
C20   C24   1.535697 S    
C59   C67   1.545322 S    
N18   O68   1.299552 A    
N29   O89   1.299479 A    
C12   C24   1.532149 S    
C48   C52   1.545526 S    
C64   C88   1.440499 S    
N30   O91   1.299529 A    
O32   C80   1.278355 A    
C115  N39   1.457068 S    
O28   C78   1.277382 A    
C5    C39   1.435346 S    
O7    C5    1.277990 A    
C108  C109  1.537094 S    
N51   O110  1.299501 A    
N6    H20   1.044542 S    
N56   H52   1.044842 S    
N17   O66   1.299913 A    
O3    Zn3   2.031274 S    
C48   C84   1.434550 S    
N23   O77   1.300453 A    
N61   O125  1.300062 A    
C34   C38   1.536317 S    
C89   N17   1.457439 S    
C14   C18   1.535573 S    
C92   N20   1.458042 S    
O25   C75   1.280209 A    
C18   C30   1.533895 S    
O15   C7    1.281803 A    
C26   C30   1.548096 S    
O16   C8    1.280080 A    
N34   H27   1.044736 S    
C62   C64   1.535042 S    
N36   H32   1.044588 S    
C10   C38   1.540132 S    
O18   C74   1.275558 A    
N12   O59   1.300316 A    
C51   C54   1.536385 S    
N60   O124  1.300344 A    
C108  C114  1.534917 S    
O28   Zn8   2.028320 S    
Zn6   O30   2.031975 S    
C105  N33   1.456807 S    
C44   C46   1.535316 S    
N8    O51   1.300166 A    
N15   H21   1.044885 S    
C34   N52   1.456564 S    
C46   C48   1.539947 S    
N61   O126  1.300345 A    
N53   O113  1.300083 A    
N64   O132  1.300277 A    
C32   C36   1.533272 S    
C90   N18   1.459547 S    
C111  C113  1.543560 S    
