data_mof_unit_34575.cif
_audit_creation_date              2012-10-26T21:02:07-0400
_audit_creation_method            fapswitch 2.2
_symmetry_space_group_name_H-M    P1
_symmetry_Int_Tables_number       1
_space_group_crystal_system       triclinic
_cell_length_a                    9.748726
_cell_length_b                    10.92641
_cell_length_c                    13.894886
_cell_angle_alpha                 89.706789
_cell_angle_beta                  85.671522
_cell_angle_gamma                 89.346082
_cell_volume                      1475.73240393

loop_
_atom_site_label
_atom_site_type_symbol
_atom_type_description
_atom_site_fract_x
_atom_site_fract_y
_atom_site_fract_z
_atom_type_partial_charge
C1    C     C_R   0.499772 0.734226 0.498437 0.549248
C2    C     C_R   0.501146 0.265089 0.496415 0.548486
C3    C     C_R   0.521490 0.499038 0.317370 0.543856
C4    C     C_1   0.532607 0.494628 0.214648 -0.038760
C5    C     C_2   0.543717 0.485246 0.024774 -0.115326
C6    C     C_2   0.444039 0.534561 0.974509 0.007908
C7    C     C_1   0.455982 0.520564 0.871422 -0.053839
C8    C     C_1   0.539683 0.490282 0.128141 -0.071702
C9    C     C_3   0.319255 0.602408 0.020433 -0.233711
C10   C     C_3   0.319439 0.737187 0.988978 -0.294144
C11   C     C_3   0.201375 0.808734 0.041616 -0.462745
C12   C     C_1   0.466592 0.510140 0.785225 -0.038138
C13   C     C_3   0.753410 0.099714 0.503034 -0.229306
C14   C     C_3   0.856552 0.995483 0.519997 -0.309702
C15   C     C_3   0.986308 0.044702 0.560546 -0.469242
C16   C     C_3   0.670672 0.882030 0.355222 -0.236395
C17   C     C_3   0.573351 0.848313 0.277887 -0.294196
C18   C     C_3   0.653818 0.802273 0.186481 -0.454297
C19   C     C_3   0.115022 0.572315 0.416661 -0.055601
C20   C     C_3   0.084200 0.492080 0.329835 -0.275491
C21   C     C_3   0.047891 0.571494 0.244534 -0.477255
C22   C     C_2   0.613365 0.059238 0.473845 -0.026157
C23   C     C_2   0.501609 0.133763 0.477511 -0.132604
C24   C     C_2   0.592292 0.931712 0.445899 -0.012649
C25   C     C_2   0.501027 0.866066 0.501695 -0.112964
C26   C     C_2   0.070598 0.422178 0.544233 0.009405
C27   C     C_2   0.920492 0.410681 0.528404 -0.044064
C28   C     C_R   0.478472 0.501116 0.682649 0.552731
Cu1   Cu    Cu3+1 0.361370 0.499980 0.499980 0.904405
Cu2   Cu    Cu3+1 0.638630 0.500020 0.500020 0.904967
H1    H     H_    0.403452 0.096562 0.459952 0.090414
H2    H     H_    0.224771 0.557941 0.998064 0.138065
H3    H     H_    0.314833 0.597750 0.100348 0.151411
H4    H     H_    0.878212 0.585321 0.522934 0.224248
H5    H     H_    0.630519 0.437700 0.987418 0.117040
H6    H     H_    0.037054 0.111929 0.509647 0.146154
H7    H     H_    0.960557 0.089593 0.631256 0.145402
H8    H     H_    0.059484 0.968016 0.571068 0.148384
H9    H     H_    0.808683 0.927718 0.571823 0.176635
H10   H     H_    0.888136 0.948462 0.451241 0.151643
H11   H     H_    0.799591 0.161812 0.446191 0.154845
H12   H     H_    0.437083 0.909347 0.559657 0.077988
H13   H     H_    0.736512 0.149532 0.572541 0.158911
H14   H     H_    0.581100 0.776338 0.132569 0.147985
H15   H     H_    0.722270 0.875003 0.154932 0.145106
H16   H     H_    0.716862 0.720557 0.202926 0.159144
H17   H     H_    0.501606 0.775598 0.304978 0.166370
H18   H     H_    0.511405 0.930112 0.259632 0.156851
H19   H     H_    0.741576 0.953375 0.324020 0.135461
H20   H     H_    0.735366 0.801898 0.372675 0.162652
H21   H     H_    0.951357 0.623957 0.263335 0.155971
H22   H     H_    0.132007 0.636513 0.224703 0.135738
H23   H     H_    0.113938 0.355358 0.591677 0.119560
H24   H     H_    0.032705 0.512703 0.181342 0.143640
H25   H     H_    0.175004 0.434045 0.307424 0.179319
H26   H     H_    0.997263 0.429668 0.347569 0.173473
H27   H     H_    0.035831 0.642998 0.433763 0.077219
H28   H     H_    0.202894 0.630729 0.392510 0.180741
H29   H     H_    0.873452 0.322811 0.541322 0.127606
H30   H     H_    0.101192 0.766316 0.029278 0.152856
H31   H     H_    0.214616 0.810837 0.120282 0.142825
H32   H     H_    0.200697 0.904332 0.014176 0.143229
H33   H     H_    0.418249 0.779848 0.004548 0.160759
H34   H     H_    0.308862 0.743530 0.909997 0.167284
N1    N     N_2   0.152970 0.501340 0.501040 -0.239151
N2    N     N_2   0.846830 0.501370 0.501060 -0.356512
O1    O     O_R   0.382960 0.678040 0.499980 -0.516064
O2    O     O_R   0.617100 0.678080 0.500020 -0.503004
O3    O     O_R   0.366380 0.499950 0.637830 -0.486932
O4    O     O_R   0.600520 0.499990 0.637860 -0.488045
O5    O     O_R   0.382900 0.321920 0.499980 -0.500772
O6    O     O_R   0.617040 0.321960 0.500020 -0.503038
O7    O     O_R   0.399480 0.500010 0.362140 -0.522530
O8    O     O_R   0.633620 0.500050 0.362170 -0.481598

loop_
_geom_bond_atom_site_label_1
_geom_bond_atom_site_label_2
_ccdc_geom_bond_type
C25   H12   S    
C5    C8    S    
C9    H3    S    
C24   C25   D    
C26   H23   S    
C15   H8    S    
C6    C7    S    
Cu2   O2    S    
C18   H14   S    
C9    C10   S    
Cu2   O6    S    
C19   C20   S    
C17   H18   S    
C20   H26   S    
C21   H24   S    
C4    C8    T    
C11   H32   S    
C10   H34   S    
H4    N2    S    
C10   H33   S    
C13   H11   S    
C17   C18   S    
C14   H9    S    
C16   C24   S    
C27   N2    D    
C27   H29   S    
C2    O5    A    
C19   H27   S    
C1    C25   S    
C26   N1    D    
C26   C27   S    
Cu1   Cu2   S    
C6    C9    S    
C20   H25   S    
Cu1   N1    S    
C5    H5    S    
C22   C24   S    
C1    O1    A    
C12   C28   S    
C13   C22   S    
C19   N1    S    
Cu1   O3    S    
Cu1   O5    S    
C19   H28   S    
C5    C6    D    
Cu2   O8    S    
C13   C14   S    
C2    O6    A    
C7    C12   T    
C21   H21   S    
Cu1   O7    S    
C10   C11   S    
C14   H10   S    
C11   H30   S    
C18   H16   S    
C18   H15   S    
C17   H17   S    
C15   H6    S    
C13   H13   S    
C1    O2    A    
C16   H19   S    
C2    C23   S    
C3    O8    A    
C22   C23   D    
C15   H7    S    
Cu1   O1    S    
C9    H2    S    
Cu2   O4    S    
C20   C21   S    
C14   C15   S    
C3    O7    A    
C21   H22   S    
C28   O4    A    
C3    C4    S    
C28   O3    A    
Cu2   N2    S    
C16   H20   S    
C16   C17   S    
C11   H31   S    
C23   H1    S    
