data_mof_unit_56970.cif
_audit_creation_date              2012-12-10T17:50:49-0500
_audit_creation_method            fapswitch 2.2
_symmetry_space_group_name_H-M    P1
_symmetry_Int_Tables_number       1
_space_group_crystal_system       triclinic
_cell_length_a                    14.708443
_cell_length_b                    14.681542
_cell_length_c                    15.864207
_cell_angle_alpha                 76.415269
_cell_angle_beta                  102.871293
_cell_angle_gamma                 114.944011
_cell_volume                      2989.41644713

loop_
_atom_site_label
_atom_site_type_symbol
_atom_type_description
_atom_site_fract_x
_atom_site_fract_y
_atom_site_fract_z
_atom_type_partial_charge
C1    C     C_R   0.880273 0.311928 0.515305 0.802933
C2    C     C_R   0.359222 0.925501 0.484621 0.039062
C3    C     C_R   0.678644 0.997062 0.556180 0.059138
C4    C     C_R   0.321342 0.002939 0.443602 0.059234
C5    C     C_R   0.534837 0.049771 0.488222 0.030494
C6    C     C_R   0.465154 0.950247 0.511662 0.030431
C7    C     C_R   0.503119 0.878061 0.562837 -0.257713
C8    C     C_R   0.496884 0.121969 0.437069 -0.257822
C9    C     C_R   0.606388 0.897418 0.580325 0.218310
C10   C     C_R   0.393616 0.102606 0.419539 0.218347
C11   C     C_R   0.711356 0.662057 0.348652 -0.325459
C12   C     C_R   0.119727 0.688071 0.484681 0.802963
C13   C     C_R   0.288665 0.337976 0.651371 -0.325498
C14   C     C_R   0.794648 0.635171 0.374205 0.075411
C15   C     C_R   0.205358 0.364838 0.625802 0.075455
C16   C     C_R   0.999648 0.499757 0.660061 0.828557
C17   C     C_R   0.000349 0.500239 0.339939 0.828520
C18   C     C_R   0.716178 0.511280 0.490235 0.001479
C19   C     C_R   0.283831 0.488737 0.509777 0.001452
C20   C     C_R   0.628813 0.535225 0.467761 -0.028018
C21   C     C_R   0.371214 0.464820 0.532270 -0.028066
C22   C     C_R   0.628084 0.612115 0.394778 0.164601
C23   C     C_R   0.786686 0.024262 0.574203 0.094562
C24   C     C_R   0.371945 0.387934 0.605256 0.164609
C25   C     C_R   0.542872 0.485993 0.514260 0.070126
C26   C     C_R   0.457165 0.514071 0.485784 0.070198
C27   C     C_R   0.460476 0.590567 0.412055 -0.244001
C28   C     C_R   0.539570 0.409511 0.588000 -0.244091
C29   C     C_R   0.544368 0.638620 0.367983 -0.207989
C30   C     C_R   0.455674 0.361451 0.632067 -0.207803
C31   C     C_3   0.011940 0.419069 0.048281 0.335793
C32   C     C_3   0.988040 0.580881 0.951725 0.335763
C33   C     C_3   0.922408 0.415099 0.975057 -0.212315
C34   C     C_R   0.213291 0.975702 0.425415 0.094517
C35   C     C_3   0.077572 0.584852 0.024948 -0.212318
C36   C     C_1   0.999049 0.499132 0.749718 -0.181467
C37   C     C_1   0.000941 0.500847 0.250284 -0.181454
C38   C     C_3   0.089385 0.500094 0.990238 -0.243534
C39   C     C_3   0.910595 0.499857 0.009767 -0.243542
C40   C     C_3   0.999598 0.498176 0.917170 0.086637
C41   C     C_3   0.000382 0.501775 0.082836 0.086630
C42   C     C_1   0.999097 0.498508 0.825377 -0.049347
C43   C     C_1   0.000886 0.501455 0.174627 -0.049331
C44   C     C_R   0.812893 0.203351 0.526451 -0.091411
C45   C     C_R   0.851231 0.127907 0.558276 -0.211368
C46   C     C_R   0.187101 0.796649 0.473466 -0.091423
C47   C     C_3   0.029964 0.258820 0.059302 -0.709318
C48   C     C_3   0.970023 0.741138 0.940688 -0.709223
C49   C     C_3   0.607920 0.732200 0.584836 -0.688059
C50   C     C_3   0.391893 0.267627 0.415455 -0.687942
C51   C     C_3   0.833286 0.944600 0.609053 -0.359573
C52   C     C_3   0.949023 0.982423 0.615031 -0.420639
C53   C     C_3   0.983452 0.893709 0.640648 -0.826873
C54   C     C_3   0.166667 0.055301 0.390174 -0.359547
C55   C     C_3   0.050850 0.017411 0.383601 -0.420909
C56   C     C_R   0.148758 0.872068 0.441473 -0.211407
C57   C     C_3   0.016340 0.106072 0.357437 -0.826728
C58   C     C_R   0.709165 0.176340 0.506049 -0.240520
C59   C     C_R   0.290826 0.823675 0.493899 -0.240542
C60   C     C_R   0.640766 0.074514 0.515251 0.039068
Cu1   Cu    Cu3+1 0.081740 0.475690 0.522610 0.932735
Cu2   Cu    Cu3+1 0.918260 0.524310 0.477390 0.932729
H1    H     H_    0.860177 0.345151 0.954316 0.141440
H2    H     H_    0.600778 0.384381 0.613528 0.136198
H3    H     H_    0.838544 0.501888 0.018141 0.145103
H4    H     H_    0.161436 0.498063 0.981864 0.145102
H5    H     H_    0.317235 0.762714 0.513409 0.157481
H6    H     H_    0.682750 0.237300 0.486638 0.157472
H7    H     H_    0.067566 0.847937 0.426839 0.151835
H8    H     H_    0.932424 0.152008 0.572859 0.151815
H9    H     H_    0.453872 0.804675 0.592405 0.150453
H10   H     H_    0.546146 0.195388 0.407565 0.150410
H11   H     H_    0.543577 0.697311 0.312013 0.141947
H12   H     H_    0.139803 0.654800 0.045688 0.141441
H13   H     H_    0.456470 0.302768 0.688043 0.141917
H14   H     H_    0.082889 0.350172 0.156052 0.248697
H15   H     H_    0.035165 0.192164 0.107466 0.225908
H16   H     H_    0.097689 0.294205 0.024781 0.220141
H17   H     H_    0.960521 0.231562 0.011395 0.235207
H18   H     H_    0.917085 0.649769 0.843951 0.248681
H19   H     H_    0.964826 0.807791 0.892515 0.226001
H20   H     H_    0.039468 0.768399 0.988593 0.235170
H21   H     H_    0.902300 0.705765 0.975209 0.220116
H22   H     H_    0.613714 0.793937 0.691544 0.251835
H23   H     H_    0.276684 0.546437 0.455821 0.124605
H24   H     H_    0.644221 0.680014 0.624069 0.234005
H25   H     H_    0.634560 0.759263 0.519727 0.242205
H26   H     H_    0.524559 0.689254 0.576268 0.231306
H27   H     H_    0.386594 0.206480 0.308553 0.251814
H28   H     H_    0.355808 0.319998 0.376227 0.233980
H29   H     H_    0.475264 0.310467 0.424404 0.231412
H30   H     H_    0.364855 0.240262 0.480402 0.242093
H31   H     H_    0.961723 0.849977 0.705447 0.260690
H32   H     H_    0.948770 0.842171 0.590773 0.252655
H33   H     H_    0.067100 0.923386 0.644749 0.247532
H34   H     H_    0.723318 0.453570 0.544184 0.124580
H35   H     H_    0.973083 0.025061 0.550753 0.232261
H36   H     H_    0.986973 0.033329 0.665311 0.219775
H37   H     H_    0.814488 0.908549 0.676171 0.220822
H38   H     H_    0.799540 0.886803 0.564666 0.230777
H39   H     H_    0.050586 0.157692 0.407252 0.252692
H40   H     H_    0.038493 0.149727 0.292737 0.260616
H41   H     H_    0.932640 0.076347 0.352885 0.247516
H42   H     H_    0.013310 0.966389 0.333381 0.219804
H43   H     H_    0.026386 0.974886 0.447775 0.232301
H44   H     H_    0.200027 0.113101 0.434548 0.230793
H45   H     H_    0.140990 0.326392 0.661330 0.121946
H46   H     H_    0.185855 0.091353 0.323163 0.220851
H47   H     H_    0.859013 0.673610 0.338672 0.121923
H48   H     H_    0.711924 0.721377 0.292973 0.135914
H49   H     H_    0.288102 0.278662 0.707054 0.135910
H50   H     H_    0.399279 0.615717 0.386540 0.136217
N1    N     N_R   0.795440 0.560790 0.443380 -0.175419
N2    N     N_R   0.204560 0.439210 0.556620 -0.175424
N3    N     N_2   0.025344 0.331187 0.104478 -0.424981
N4    N     N_2   0.974635 0.668759 0.895521 -0.424978
N5    N     N_2   0.635199 0.817179 0.629850 -0.466785
N6    N     N_2   0.364855 0.182929 0.370158 -0.466840
O1    O     O_R   0.977900 0.338120 0.529810 -0.590394
O2    O     O_R   0.022100 0.661880 0.470190 -0.590393
O3    O     O_R   0.839850 0.379180 0.491620 -0.588524
O4    O     O_R   0.160150 0.620820 0.508380 -0.588529
O5    O     O_R   0.069010 0.479460 0.640020 -0.577815
O6    O     O_R   0.930990 0.520540 0.359980 -0.577816
O7    O     O_R   0.930960 0.520530 0.601820 -0.578977
O8    O     O_R   0.069040 0.479470 0.398180 -0.578995

loop_
_geom_bond_atom_site_label_1
_geom_bond_atom_site_label_2
_ccdc_geom_bond_type
C14   H47   S    
C21   C26   A    
C35   H12   S    
C34   C56   A    
C23   C45   A    
C22   C29   A    
C46   C59   A    
Cu1   O1    S    
C18   H34   S    
C49   H25   S    
C36   C42   T    
C47   H17   S    
Cu2   O6    S    
C39   C41   S    
C52   C53   S    
C25   C28   A    
C47   N3    S    
C57   H40   S    
C26   C27   A    
C33   C39   S    
C55   H43   S    
C3    C9    A    
C19   C21   A    
C16   O5    A    
C7    H9    S    
C5    C6    A    
C11   C14   A    
C17   O8    A    
C53   H33   S    
C20   C25   A    
C58   C60   A    
C52   H35   S    
H14   N3    S    
C9    N5    S    
C48   H19   S    
C1    O1    A    
C32   C39   S    
C15   H45   S    
C1    C44   S    
C59   H5    S    
C12   O2    A    
C3    C23   A    
C50   H28   S    
C49   N5    S    
C38   H4    S    
C44   C58   A    
H22   N5    S    
C52   H36   S    
C31   C33   S    
Cu1   O8    S    
C16   O7    A    
C41   C43   S    
Cu2   O2    S    
C48   N4    S    
C3    C60   A    
C40   C42   S    
C53   H32   S    
C11   H48   S    
C39   H3    S    
C49   H26   S    
C2    C6    A    
C18   N1    A    
C31   N3    S    
C1    O3    A    
C51   H37   S    
C57   H41   S    
C4    C34   A    
C8    H10   S    
C33   C40   S    
C54   H44   S    
C53   H31   S    
C51   C52   S    
C32   C35   S    
H18   N4    S    
C35   C38   S    
Cu2   N1    S    
C12   C46   S    
C2    C59   A    
C19   N2    A    
C25   C26   A    
C55   H42   S    
C13   C24   A    
Cu1   O4    S    
C37   C43   T    
C2    C4    A    
C10   N6    S    
C5    C8    A    
C17   O6    A    
C23   C51   S    
C33   H1    S    
C15   N2    A    
C12   O4    A    
C17   C37   S    
C32   N4    S    
C28   H2    S    
C58   H6    S    
C20   C22   A    
C27   H50   S    
C34   C54   S    
C55   C57   S    
C47   H15   S    
C4    C10   A    
C44   C45   A    
C50   H30   S    
C51   H38   S    
C7    C9    A    
C54   C55   S    
C31   C41   S    
C5    C60   A    
C45   H8    S    
C50   N6    S    
C49   H24   S    
C19   H23   S    
Cu2   O7    S    
C48   H21   S    
C6    C7    A    
C14   N1    A    
C57   H39   S    
C11   C22   A    
C31   C38   S    
C54   H46   S    
Cu1   O5    S    
C13   C15   A    
C13   H49   S    
C16   C36   S    
C38   C40   S    
C30   H13   S    
C27   C29   A    
C28   C30   A    
C48   H20   S    
C18   C20   A    
C32   C40   S    
Cu1   Cu2   S    
C35   C41   S    
C24   C30   A    
C50   H29   S    
C29   H11   S    
H27   N6    S    
C8    C10   A    
C56   H7    S    
C21   C24   A    
C46   C56   A    
Cu1   N2    S    
C47   H16   S    
Cu2   O3    S    
