data_mof_unit_47691.cif
_audit_creation_date              2012-12-10T17:20:54-0500
_audit_creation_method            fapswitch 2.2
_symmetry_space_group_name_H-M    P1
_symmetry_Int_Tables_number       1
_space_group_crystal_system       triclinic
_cell_length_a                    14.336257
_cell_length_b                    10.782448
_cell_length_c                    9.650443
_cell_angle_alpha                 90.453179
_cell_angle_beta                  89.964097
_cell_angle_gamma                 93.865944
_cell_volume                      1488.32392571

loop_
_atom_site_label
_atom_site_type_symbol
_atom_type_description
_atom_site_fract_x
_atom_site_fract_y
_atom_site_fract_z
_atom_type_partial_charge
C1    C     C_R   0.497779 0.262822 0.499565 0.797143
C2    C     C_1   0.771118 0.500934 0.499822 -0.192976
C3    C     C_R   0.335591 0.114214 0.600878 -0.262777
C4    C     C_R   0.258328 0.042273 0.649845 -0.120051
C5    C     C_R   0.258217 0.913070 0.650391 0.474347
C6    C     C_R   0.337221 0.855683 0.601570 -0.252031
C7    C     C_R   0.416846 0.927080 0.552744 0.012627
C8    C     C_R   0.415587 0.057893 0.551965 0.094884
C9    C     C_R   0.493596 0.128816 0.498853 -0.163851
C10   C     C_R   0.570884 0.072246 0.446911 -0.176451
C11   C     C_R   0.574923 0.944570 0.451345 0.408750
C12   C     C_R   0.331272 0.499222 0.500055 0.772938
C13   C     C_R   0.497142 0.871140 0.502508 -0.171606
C14   C     C_R   0.635898 0.647069 0.150775 -0.237943
C15   C     C_R   0.715908 0.700094 0.088719 0.385481
C16   C     C_R   0.720835 0.699819 0.947368 -0.271301
C17   C     C_R   0.645404 0.651515 0.866245 0.366541
C18   C     C_R   0.569667 0.573547 0.927383 0.159512
C19   C     C_R   0.567720 0.572670 0.076868 0.101098
C20   C     C_R   0.435827 0.430325 0.072883 -0.027493
C21   C     C_R   0.435682 0.430542 0.925554 -0.053695
C22   C     C_R   0.499328 0.737106 0.500549 0.798508
C23   C     C_R   0.668711 0.500324 0.499899 0.809567
C24   C     C_1   0.228914 0.499856 0.500187 -0.200655
C25   C     C_1   0.143481 0.500477 0.500248 0.000651
C26   C     C_1   0.042788 0.501068 0.500192 0.031321
C27   C     C_1   0.957325 0.501321 0.500060 0.034193
C28   C     C_1   0.856597 0.501275 0.499890 0.013641
Cu1   Cu    Cu3+1 0.499990 0.499990 0.640660 0.978432
Cu2   Cu    Cu3+1 0.500010 0.500010 0.359340 0.948580
H1    H     H_    0.383111 0.372748 0.126942 0.135436
N1    N     N_R   0.500820 0.501210 0.147910 -0.168076
N2    N     N_R   0.500850 0.501290 0.852040 -0.169271
O1    O     O_R   0.499990 0.319640 0.618810 -0.571717
O2    O     O_R   0.500000 0.319660 0.381240 -0.566818
O3    O     O_R   0.376050 0.499990 0.618810 -0.575137
O4    O     O_R   0.376060 0.500010 0.381240 -0.551936
O5    O     O_R   0.500000 0.680340 0.618760 -0.499556
O6    O     O_R   0.500010 0.680360 0.381190 -0.588471
O7    O     O_R   0.623940 0.499990 0.618760 -0.501849
O8    O     O_R   0.623950 0.500010 0.381190 -0.586635
H2    H     H_    0.630532 0.128507 0.407524 0.171052
H3    H     H_    0.780636 0.749841 0.900051 0.181818
O9    O     O_3   0.643336 0.694436 0.733430 -0.689750
H4    H     H_    0.700350 0.747490 0.709925 0.303394
H5    H     H_    0.382901 0.373179 0.870423 0.134530
H6    H     H_    0.331478 0.214039 0.600334 0.146223
H7    H     H_    0.197693 0.087421 0.686658 0.162366
O10   O     O_3   0.179850 0.845424 0.698410 -0.718640
H8    H     H_    0.190428 0.755609 0.691844 0.323187
H9    H     H_    0.335243 0.755382 0.601478 0.129429
O11   O     O_3   0.656835 0.896334 0.407294 -0.723268
H10   H     H_    0.661041 0.812051 0.445446 0.297820
H11   H     H_    0.629976 0.668531 0.257040 0.209398
O12   O     O_3   0.787792 0.760375 0.163337 -0.676537
H12   H     H_    0.776740 0.746231 0.263570 0.335623

loop_
_geom_bond_atom_site_label_1
_geom_bond_atom_site_label_2
_ccdc_geom_bond_type
Cu1   O5    S    
C1    O1    A    
O12   H12   S    
Cu2   O8    S    
C6    C7    A    
C6    H9    S    
C10   H2    S    
C9    C10   A    
C12   C24   S    
C16   H3    S    
C24   C25   T    
C23   O8    A    
C17   C18   A    
C3    C4    A    
C17   O9    S    
C1    C9    S    
C7    C8    A    
C12   O4    A    
C20   C21   A    
Cu2   N1    S    
C4    C5    A    
C11   C13   A    
Cu1   O3    S    
C5    O10   S    
C26   C27   T    
Cu1   Cu2   S    
Cu2   O2    S    
C22   O6    A    
Cu1   O1    S    
Cu1   O7    S    
C3    H6    S    
C14   H11   S    
C13   C22   S    
O10   H8    S    
C4    H7    S    
C5    C6    A    
C18   N2    A    
C3    C8    A    
C12   O3    A    
C10   C11   A    
C19   N1    A    
C15   C16   A    
C22   O5    A    
Cu1   N2    S    
C7    C13   A    
C21   N2    A    
O11   H10   S    
C1    O2    A    
C21   H5    S    
C20   N1    A    
C2    C23   S    
C18   C19   A    
C14   C15   A    
C16   C17   A    
C2    C28   T    
C11   O11   S    
C25   C26   S    
C14   C19   A    
O9    H4    S    
C23   O7    A    
Cu2   O4    S    
Cu2   O6    S    
C8    C9    A    
C27   C28   S    
C20   H1    S    
C15   O12   S    
