data_mof_unit_46581.cif
_audit_creation_date              2013-03-05T16:08:13-0500
_audit_creation_method            fapswitch 2.2
_symmetry_space_group_name_H-M    P1
_symmetry_Int_Tables_number       1
_space_group_crystal_system       triclinic
_cell_length_a                    6.955465
_cell_length_b                    14.509418
_cell_length_c                    16.077349
_cell_angle_alpha                 89.967525
_cell_angle_beta                  89.899631
_cell_angle_gamma                 90.042542
_cell_volume                      1622.5188282

loop_
_atom_site_label
_atom_site_type_symbol
_atom_site_description
_atom_site_fract_x
_atom_site_fract_y
_atom_site_fract_z
_atom_type_partial_charge
O1    O     O_R   0.505720 0.583900 0.413310 -0.596687
O2    O     O_R   0.175940 0.594920 0.586080 -0.611880
O3    O     O_R   0.005640 0.416100 0.586690 -0.582581
C1    C     C_R   0.344585 0.617749 0.614220 0.942286
O4    O     O_R   0.176000 0.594930 0.413930 -0.604511
O5    O     O_R   0.005700 0.416110 0.413310 -0.575917
C2    C     C_R   0.344953 0.617489 0.385673 0.947488
O6    O     O_R   0.505660 0.583890 0.586690 -0.598754
O7    O     O_3   0.339200 0.441330 0.500000 -0.233824
V1    V     V_3+5 0.064350 0.510880 0.500000 1.178786
O8    O     O_R   0.675980 0.405080 0.413920 -0.589917
C3    C     C_R   0.845149 0.383192 0.385072 0.960441
O9    O     O_R   0.675920 0.405070 0.586070 -0.579089
C4    C     C_R   0.844492 0.383154 0.614678 0.936825
V2    V     V_3+5 0.564340 0.489120 0.500000 1.205147
O10   O     O_3   0.839360 0.558670 0.500000 -0.294658
H1    H     H_    0.069437 0.085184 0.508037 0.170369
C5    C     C_R   0.736469 0.430216 0.783611 -0.354756
C6    C     C_R   0.690136 0.457223 0.864724 0.296085
C7    C     C_R   0.705080 0.393617 0.930509 0.290191
C8    C     C_R   0.769361 0.304084 0.913569 -0.334836
C9    C     C_R   0.816673 0.275671 0.831948 0.086669
C10   C     C_R   0.801205 0.340170 0.765697 0.096652
C11   C     C_R   0.881041 0.184649 0.816106 -0.250726
C12   C     C_R   0.933266 0.158737 0.734068 0.116436
C13   C     C_R   0.919482 0.223632 0.667771 0.072605
C14   C     C_R   0.853890 0.314516 0.683521 -0.251557
C15   C     C_R   0.997204 0.068267 0.716248 -0.185739
C16   C     C_R   0.046324 0.042503 0.635480 -0.147194
C17   C     C_R   0.032108 0.105697 0.570754 0.006600
C18   C     C_R   0.969036 0.195207 0.586321 -0.094632
H2    H     H_    0.725246 0.481638 0.735092 0.154436
H3    H     H_    0.779916 0.256505 0.965172 0.159385
H4    H     H_    0.009437 0.016397 0.764322 0.109091
H5    H     H_    0.094888 0.972969 0.623042 0.125479
H6    H     H_    0.958214 0.241473 0.533743 0.131064
C19   C     C_R   0.738627 0.177408 0.246257 0.097702
C20   C     C_R   0.882868 0.182303 0.185489 -0.189657
C21   C     C_R   0.029270 0.248298 0.197576 -0.049703
H7    H     H_    0.147769 0.253108 0.154088 0.122886
C22   C     C_R   0.017731 0.312869 0.263003 -0.036108
H8    H     H_    0.127940 0.365292 0.267837 0.123586
C23   C     C_R   0.859727 0.313215 0.318306 -0.213867
C24   C     C_R   0.727268 0.241129 0.310653 0.034747
C25   C     C_3   0.512411 0.239993 0.310586 0.069545
C26   C     C_3   0.524569 0.169463 0.239426 0.062297
H9    H     H_    0.448779 0.307051 0.291683 0.070922
H10   H     H_    0.468823 0.194955 0.178898 0.070311
C27   C     C_R   0.507222 0.750328 0.687357 0.156816
C28   C     C_R   0.351472 0.689628 0.679677 -0.187767
C29   C     C_R   0.198524 0.700270 0.736465 -0.085098
H11   H     H_    0.075502 0.654976 0.733218 0.133517
C30   C     C_R   0.210713 0.763701 0.802655 -0.091692
H12   H     H_    0.095356 0.766337 0.847735 0.156094
C31   C     C_R   0.376506 0.818076 0.814230 -0.193287
C32   C     C_R   0.519505 0.812836 0.752989 0.156544
C33   C     C_3   0.730206 0.797952 0.762029 -0.449212
C34   C     C_3   0.717008 0.730390 0.690039 -0.430238
H13   H     H_    0.766182 0.764517 0.822196 0.240366
H14   H     H_    0.814606 0.860841 0.746865 0.170327
H15   H     H_    0.746842 0.657908 0.708154 0.210340
H16   H     H_    0.792745 0.754578 0.633127 0.179706
C35   C     C_R   0.504311 0.681725 0.258105 0.191773
C36   C     C_R   0.353176 0.683549 0.315596 -0.212094
C37   C     C_R   0.203975 0.747188 0.301380 -0.177910
H17   H     H_    0.083176 0.750739 0.343650 0.134938
C38   C     C_R   0.215862 0.811362 0.235757 0.008841
H18   H     H_    0.103969 0.862668 0.229717 0.143464
C39   C     C_R   0.375810 0.812844 0.181642 -0.239325
C40   C     C_R   0.514023 0.743490 0.191790 0.118446
C41   C     C_3   0.727639 0.750341 0.198745 0.145067
C42   C     C_3   0.715887 0.684525 0.272588 -0.592259
H19   H     H_    0.777971 0.820972 0.214358 0.101156
H20   H     H_    0.751446 0.717956 0.332802 0.182915
H21   H     H_    0.784939 0.616317 0.262754 0.234101
O11   O     O_R   0.229140 0.916090 0.913340 -0.607334
O12   O     O_R   0.558860 0.905090 0.086080 -0.587279
O13   O     O_R   0.729100 0.083920 0.086690 -0.598130
C43   C     C_R   0.389723 0.882849 0.114723 1.050229
O14   O     O_R   0.558860 0.905090 0.913930 -0.589473
O15   O     O_R   0.729100 0.083920 0.913310 -0.598207
C44   C     C_R   0.389857 0.883272 0.884987 0.952500
O16   O     O_R   0.229140 0.916080 0.086720 -0.568430
O17   O     O_3   0.395570 0.058660 0.000020 -0.283972
V3    V     V_3+5 0.670450 0.989140 0.000000 1.228490
O18   O     O_R   0.058810 0.094980 0.913910 -0.597758
C45   C     C_R   0.890361 0.116175 0.884875 0.919036
O19   O     O_R   0.058810 0.094980 0.086060 -0.588382
C46   C     C_R   0.890063 0.116837 0.114910 0.977138
V4    V     V_3+5 0.170450 0.010950 0.999970 1.220968
O20   O     O_3   0.895460 0.941370 0.999990 -0.243804
N1    N     N_R   0.433302 0.203901 0.388665 0.278639
O21   O     O_R   0.519489 0.138149 0.429239 -0.362756
O22   O     O_R   0.281548 0.242142 0.420899 -0.402599
N2    N     N_R   0.451961 0.077630 0.260983 0.275788
O23   O     O_R   0.568483 0.008253 0.270788 -0.406484
O24   O     O_R   0.267408 0.063654 0.264878 -0.399359
N3    N     N_R   0.824295 0.709910 0.126547 0.265667
O25   O     O_R   0.788888 0.625478 0.103883 -0.285433
O26   O     O_R   0.944442 0.759144 0.083277 -0.371390
N4    N     N_R   0.634663 0.550695 0.879562 0.252761
O27   O     O_R   0.732182 0.601413 0.931103 -0.312164
O28   O     O_R   0.501723 0.588428 0.834303 -0.417352
N5    N     N_R   0.649796 0.417775 0.014084 0.263980
O29   O     O_R   0.509060 0.474988 0.027352 -0.311670
O30   O     O_R   0.725116 0.374952 0.077267 -0.420188

loop_
_geom_bond_atom_site_label_1
_geom_bond_atom_site_label_2
_geom_bond_distance
_ccdc_geom_bond_type
C34   H16   1.111561 S    
C31   C32   1.400436 A    
N4    O27   1.300067 A    
C22   H8    1.082402 S    
N2    O23   1.302486 A    
C1    O6    1.300679 A    
N5    O30   1.301550 A    
V3    O20   1.712131 S    
C21   C22   1.411253 A    
C30   H12   1.081009 S    
C12   C15   1.415563 A    
C20   C46   1.481035 S    
C13   C14   1.418463 A    
C19   C20   1.400886 A    
C15   C16   1.393509 A    
C3    C23   1.481361 S    
O5    C3    1.297103 A    
C20   C21   1.411050 A    
C33   H13   1.110936 S    
C8    H3    1.081631 S    
V2    O10   2.162089 S    
C32   C33   1.488862 S    
C5    C6    1.399046 A    
C25   H9    1.111613 S    
C25   N1    1.466009 S    
O8    V2    2.001168 S    
O17   V3    2.162350 S    
C26   N2    1.465754 S    
C6    C7    1.407328 A    
C37   C38   1.409044 A    
C40   C41   1.493436 S    
O1    V2    2.000151 S    
C10   C14   1.420354 A    
C4    C14   1.490039 S    
C16   C17   1.390253 A    
O7    V1    2.162369 S    
C34   H15   1.110885 S    
O12   C43   1.302898 A    
O12   V3    1.999461 S    
C13   C18   1.415241 A    
N4    O28   1.298790 A    
O9    C4    1.299879 A    
H1    C17   1.082701 S    
C22   C23   1.412425 A    
O17   V4    1.711541 S    
C42   H21   1.111622 S    
N5    O29   1.301351 A    
C30   C31   1.409411 A    
O13   C46   1.299469 A    
C41   N3    1.463584 S    
C26   H10   1.111423 S    
C35   C42   1.490847 S    
C5    C10   1.411912 A    
C11   C12   1.418450 A    
O14   C44   1.303864 A    
O18   V4    2.001780 S    
O11   C44   1.297457 A    
C21   H7    1.082061 S    
C41   H19   1.111696 S    
O18   C45   1.299043 A    
C33   H14   1.111373 S    
C12   C13   1.425214 A    
C25   C26   1.537656 S    
C27   C34   1.488465 S    
C38   H18   1.081829 S    
C1    C28   1.482854 S    
C38   C39   1.411255 A    
O2    C1    1.300684 A    
C23   C24   1.398934 A    
O14   V3    2.002187 S    
C35   C40   1.393913 A    
N1    O22   1.299941 A    
C28   C29   1.409301 A    
C7    C8    1.400892 A    
C31   C44   1.482911 S    
O15   C45   1.297415 A    
O3    C4    1.297887 A    
O13   V3    2.000864 S    
C42   H20   1.111234 S    
O19   V4    2.001190 S    
N3    O25   1.301753 A    
O6    V2    2.000227 S    
N3    O26   1.299663 A    
O9    V2    2.001907 S    
C9    C11   1.417873 A    
C39   C43   1.482176 S    
C5    H2    1.082079 S    
V4    O20   2.162108 S    
O2    V1    2.002210 S    
C24   C25   1.494513 S    
O4    C2    1.300724 A    
O16   V4    2.001823 S    
O1    C2    1.299093 A    
C9    C10   1.421732 A    
O5    V1    2.000765 S    
O8    C3    1.303561 A    
N2    O24   1.300817 A    
C7    N5    1.440508 S    
C27   C32   1.394491 A    
C16   H5    1.082801 S    
C36   C37   1.408480 A    
C19   C24   1.390619 A    
O7    V2    1.712136 S    
C29   H11   1.079888 S    
O3    V1    1.998865 S    
V1    O10   1.712123 S    
C43   O16   1.298085 A    
C6    N4    1.430372 S    
C33   C34   1.520039 S    
C17   C18   1.393784 A    
N1    O21   1.302526 A    
C37   H17   1.080999 S    
C39   C40   1.401856 A    
C11   C45   1.487553 S    
C2    C36   1.479795 S    
C15   H4    1.081980 S    
C35   C36   1.398837 A    
O4    V1    1.999512 S    
C41   C42   1.525224 S    
O19   C46   1.300817 A    
C27   C28   1.401301 A    
C18   H6    1.081904 S    
C29   C30   1.409952 A    
C19   C26   1.497472 S    
C8    C9    1.414049 A    
O15   V3    1.998782 S    
O11   V4    2.000467 S    
