data_mof_unit_5877.cif
_audit_creation_date              2012-12-10T18:31:57-0500
_audit_creation_method            fapswitch 2.2
_symmetry_space_group_name_H-M    P1
_symmetry_Int_Tables_number       1
_space_group_crystal_system       triclinic
_cell_length_a                    10.74438
_cell_length_b                    14.939716
_cell_length_c                    15.444035
_cell_angle_alpha                 82.899785
_cell_angle_beta                  88.196264
_cell_angle_gamma                 103.804826
_cell_volume                      2384.18840786

loop_
_atom_site_label
_atom_site_type_symbol
_atom_type_description
_atom_site_fract_x
_atom_site_fract_y
_atom_site_fract_z
_atom_type_partial_charge
C1    C     C_R   0.477303 0.441182 0.662940 0.924457
C2    C     C_3   0.120505 0.502568 0.498587 -0.192053
C3    C     C_3   0.073309 0.495237 0.403771 0.250737
C4    C     C_3   0.101981 0.597943 0.527446 0.809105
C5    C     C_R   0.455589 0.401356 0.756967 -0.316044
C6    C     C_R   0.491682 0.590335 0.249070 -0.083596
C7    C     C_R   0.459041 0.273278 0.871347 0.385327
C8    C     C_R   0.450557 0.305856 0.783185 0.384201
C9    C     C_R   0.437733 0.456563 0.822110 -0.141522
C10   C     C_R   0.426446 0.418279 0.911330 -0.036648
C11   C     C_R   0.463511 0.334630 0.934819 -0.131903
C12   C     C_R   0.741934 0.500317 0.499559 1.005674
C13   C     C_R   0.392987 0.466487 0.977873 0.104771
C14   C     C_R   0.445099 0.456257 0.060012 0.010233
C15   C     C_R   0.497667 0.377123 0.081914 -0.070667
C16   C     C_R   0.504853 0.316338 0.019732 -0.050369
C17   C     C_R   0.304094 0.521734 0.964417 -0.210396
C18   C     C_R   0.284146 0.579569 0.024111 -0.228635
C19   C     C_R   0.355154 0.585658 0.098357 0.104952
C20   C     C_R   0.439101 0.525387 0.115263 0.075877
C21   C     C_R   0.343540 0.649522 0.157141 0.000222
C22   C     C_R   0.408632 0.648819 0.233959 -0.264367
C23   C     C_R   0.515811 0.558050 0.338091 0.863437
C24   C     C_R   0.516972 0.538678 0.185278 -0.248935
C25   C     C_R   0.662572 0.837177 0.651379 -0.296733
C26   C     C_R   0.647469 0.751720 0.621450 0.129742
C27   C     C_R   0.526436 0.797062 0.505481 -0.043855
C28   C     C_R   0.546591 0.887629 0.529200 -0.082016
C29   C     C_R   0.608596 0.904697 0.607436 0.056513
C30   C     C_R   0.502620 0.959690 0.480355 0.081153
C31   C     C_R   0.511487 0.045086 0.514511 0.017206
C32   C     C_R   0.563549 0.056010 0.596341 -0.378867
C33   C     C_R   0.615186 0.988173 0.641538 0.481798
C34   C     C_R   0.257788 0.500651 0.499018 0.924348
C35   C     C_R   0.450711 0.949352 0.398283 -0.219902
C36   C     C_R   0.395354 0.016081 0.355734 -0.213195
C37   C     C_R   0.397876 0.097975 0.390555 0.182661
C38   C     C_R   0.463061 0.115798 0.467289 0.018403
C39   C     C_R   0.339751 0.163971 0.347814 -0.311213
C40   C     C_R   0.353636 0.249052 0.378569 0.054097
C41   C     C_R   0.479654 0.205276 0.492003 -0.078330
C42   C     C_3   0.898020 0.423077 0.570039 0.163865
C43   C     C_3   0.040124 0.417256 0.563017 0.215080
C44   C     C_3   0.926541 0.486497 0.406699 0.187367
C45   C     C_3   0.956910 0.596062 0.520376 -0.533439
C46   C     C_3   0.878721 0.501118 0.499114 -0.156459
H1    H     H_    0.834175 0.356128 0.556349 0.102571
H2    H     H_    0.123758 0.561608 0.362538 0.132180
H3    H     H_    0.594785 0.506142 0.194489 0.156597
H4    H     H_    0.388248 0.689022 0.284179 0.166873
H5    H     H_    0.215671 0.621321 0.010211 0.161093
H6    H     H_    0.248011 0.519212 0.907459 0.143101
H7    H     H_    0.538809 0.228513 0.543783 0.158775
H8    H     H_    0.314106 0.302367 0.344558 0.159784
H9    H     H_    0.351870 0.004018 0.294478 0.152411
H10   H     H_    0.716058 0.850459 0.708796 0.187020
H11   H     H_    0.469924 0.775445 0.451981 0.147094
H12   H     H_    0.081518 0.420607 0.628320 0.107480
H13   H     H_    0.560736 0.115231 0.628865 0.189067
H14   H     H_    0.451333 0.889980 0.365320 0.142417
H15   H     H_    0.287651 0.151051 0.289855 0.144834
H16   H     H_    0.875978 0.414065 0.396742 0.134587
H17   H     H_    0.944698 0.649525 0.466772 0.223437
H18   H     H_    0.912698 0.613945 0.578923 0.198355
N1    N     N_R   0.573860 0.731700 0.552730 -0.115932
N2    N     N_R   0.426060 0.268290 0.447230 -0.112495
O1    O     O_R   0.462770 0.383110 0.605620 -0.604260
O2    O     O_R   0.510160 0.531900 0.639510 -0.600370
O3    O     O_R   0.661510 0.425600 0.483070 -0.658533
O4    O     O_R   0.708900 0.574390 0.516960 -0.616110
O5    O     O_R   0.489840 0.468100 0.360490 -0.622660
O6    O     O_R   0.537230 0.616890 0.394380 -0.620976
O7    O     O_R   0.291100 0.425610 0.483040 -0.562831
O8    O     O_R   0.338490 0.574400 0.516930 -0.563008
Zn1   Zn    Zn3+2 0.468350 0.400660 0.477370 0.960316
Zn2   Zn    Zn3+2 0.531650 0.599340 0.522630 0.989019
O9    O     O_3   0.178911 0.670911 0.465538 -0.636167
C47   C     C_3   0.167708 0.761985 0.474162 0.124062
H19   H     H_    0.254929 0.799832 0.502825 0.176948
H20   H     H_    0.083375 0.766025 0.514892 0.108050
C48   C     C_3   0.155917 0.811388 0.383638 -0.856089
H21   H     H_    0.066176 0.775738 0.355955 0.271462
H22   H     H_    0.152674 0.884408 0.387960 0.221217
H23   H     H_    0.238397 0.810385 0.339006 0.256771
O10   O     O_3   0.900709 0.555460 0.342630 -0.628111
C49   C     C_3   0.847982 0.516162 0.269496 0.079028
H24   H     H_    0.746308 0.478655 0.286531 0.165536
H25   H     H_    0.900645 0.466693 0.247362 0.150508
C50   C     C_3   0.855664 0.593548 0.194234 -0.819705
H26   H     H_    0.957283 0.631909 0.178146 0.269265
H27   H     H_    0.816567 0.563660 0.135510 0.208084
H28   H     H_    0.799618 0.642689 0.212579 0.261449
C51   C     C_1   0.568810 0.241562 0.041104 0.248180
N3    N     N_1   0.620221 0.182462 0.058414 -0.200826
O11   O     O_3   0.467759 0.182186 0.892749 -0.575193
C52   C     C_3   0.350123 0.128091 0.934817 0.093672
H29   H     H_    0.269982 0.126905 0.890960 0.135441
H30   H     H_    0.325539 0.154869 0.995583 0.130334
C53   C     C_3   0.360937 0.028569 0.959695 -0.768198
H31   H     H_    0.437069 0.026858 0.006396 0.262739
H32   H     H_    0.268197 0.985005 0.991054 0.205091
H33   H     H_    0.385165 0.999147 0.900606 0.264044
O12   O     O_3   0.444030 0.243485 0.723209 -0.589105
C54   C     C_3   0.313290 0.204834 0.709464 0.137594
H34   H     H_    0.289620 0.238693 0.646385 0.179031
H35   H     H_    0.243544 0.214114 0.760826 0.077103
C55   C     C_3   0.291472 0.101054 0.704566 -0.847541
H36   H     H_    0.345482 0.068601 0.754199 0.293046
H37   H     H_    0.187728 0.066483 0.716626 0.201082
H38   H     H_    0.322910 0.089546 0.638775 0.244723
C56   C     C_1   0.448425 0.555555 0.799922 0.266545
N4    N     N_1   0.457309 0.634620 0.783598 -0.202481
O13   O     O_3   0.866517 0.444949 0.653757 -0.626191
C57   C     C_3   0.816084 0.364110 0.713758 0.078391
H39   H     H_    0.886184 0.320382 0.722210 0.114914
H40   H     H_    0.724348 0.323276 0.692119 0.170387
C58   C     C_3   0.789793 0.392526 0.802434 -0.782622
H41   H     H_    0.721518 0.437879 0.797113 0.262594
H42   H     H_    0.747926 0.329652 0.850095 0.221840
H43   H     H_    0.880726 0.431161 0.826578 0.241405
C59   C     C_1   0.532706 0.349185 0.169266 0.116105
N5    N     N_1   0.563070 0.326249 0.238076 -0.206785
C60   C     C_1   0.260213 0.712277 0.143325 0.127384
N6    N     N_1   0.193850 0.762784 0.132354 -0.221265
O14   O     O_3   0.655850 0.997307 0.725143 -0.598970
C61   C     C_3   0.765504 0.072073 0.721401 0.086897
H44   H     H_    0.739667 0.139790 0.706063 0.139769
H45   H     H_    0.839534 0.065918 0.671976 0.127816
C62   C     C_3   0.823444 0.070693 0.809944 -0.802558
H46   H     H_    0.851304 0.004106 0.827561 0.249957
H47   H     H_    0.910194 0.129189 0.807309 0.184493
H48   H     H_    0.752615 0.078269 0.860797 0.282959
C63   C     C_1   0.707468 0.684625 0.666462 0.216024
N7    N     N_1   0.755533 0.631245 0.703957 -0.225283
O15   O     O_3   0.047938 0.334277 0.529206 -0.544175
C64   C     C_3   0.025823 0.256540 0.594365 0.107098
H49   H     H_    0.922841 0.234883 0.616617 0.099090
H50   H     H_    0.085227 0.270863 0.651041 0.094722
C65   C     C_3   0.059582 0.176404 0.554636 -0.796399
H51   H     H_    0.159924 0.197452 0.525987 0.264527
H52   H     H_    0.049992 0.115559 0.605547 0.185843
H53   H     H_    0.994154 0.156071 0.502324 0.255222
O16   O     O_3   0.098667 0.416205 0.370370 -0.553859
C66   C     C_3   0.150682 0.437235 0.282768 0.092170
H54   H     H_    0.256754 0.453421 0.282944 0.173150
H55   H     H_    0.122663 0.496875 0.244686 0.130953
C67   C     C_3   0.105322 0.353003 0.235280 -0.831992
H56   H     H_    0.999953 0.338982 0.229384 0.245800
H57   H     H_    0.153943 0.366575 0.168741 0.215641
H58   H     H_    0.127461 0.290411 0.271508 0.255557
O17   O     O_3   0.152431 0.603547 0.612517 -0.609133
C68   C     C_3   0.088685 0.642322 0.674385 0.067674
H59   H     H_    0.002427 0.589894 0.704971 0.214732
H60   H     H_    0.062003 0.706422 0.646830 0.116547
C69   C     C_3   0.177129 0.667991 0.746739 -0.797335
H61   H     H_    0.266627 0.719181 0.719110 0.273696
H62   H     H_    0.128737 0.699044 0.795661 0.205257
H63   H     H_    0.200721 0.604478 0.779623 0.248450

loop_
_geom_bond_atom_site_label_1
_geom_bond_atom_site_label_2
_ccdc_geom_bond_type
C9    C56   S    
C12   O3    A    
C61   H44   S    
C69   H62   S    
C55   H37   S    
O11   C52   S    
C25   H10   S    
C67   H56   S    
O6    Zn2   S    
C54   H35   S    
C57   H39   S    
C7    C8    A    
O9    C47   S    
C7    C11   A    
C16   C51   S    
C51   N3    T    
N1    Zn2   S    
O8    Zn2   S    
C30   C35   A    
C1    C5    S    
C28   C29   A    
C67   H57   S    
C62   H46   S    
C64   C65   S    
O10   C49   S    
C30   C31   A    
C65   H53   S    
C47   H20   S    
N2    Zn1   S    
O16   C66   S    
C6    C22   A    
C52   C53   S    
C29   C33   A    
C3    H2    S    
C1    O2    A    
C18   C19   A    
C42   C46   S    
C43   H12   S    
C20   C24   A    
C52   H30   S    
O17   C68   S    
C50   H27   S    
C9    C10   A    
C22   H4    S    
C62   H48   S    
C2    C34   S    
O15   C64   S    
C40   N2    A    
C21   C22   A    
C69   H63   S    
O7    Zn1   S    
C66   C67   S    
C17   H6    S    
C54   H34   S    
C48   H22   S    
C44   C46   S    
C18   H5    S    
C48   H21   S    
C4    C45   S    
C25   C29   A    
C39   H15   S    
C3    C44   S    
C69   H61   S    
C23   O5    A    
C60   N6    T    
C67   H58   S    
C3    O16   S    
C38   C41   A    
C66   H55   S    
C27   H11   S    
C58   H43   S    
C39   C40   A    
C47   H19   S    
C64   H49   S    
C61   C62   S    
C44   H16   S    
C25   C26   A    
C45   C46   S    
C45   H17   S    
C49   C50   S    
C35   H14   S    
C35   C36   A    
C21   C60   S    
C2    C4    S    
C5    C9    A    
C37   C38   A    
C27   N1    A    
C14   C20   A    
C11   C16   A    
C42   O13   S    
C53   H31   S    
C68   C69   S    
C2    C43   S    
C55   H36   S    
C6    C24   A    
C52   H29   S    
C33   O14   S    
C17   C18   A    
C50   H28   S    
C43   O15   S    
C41   H7    S    
C59   N5    T    
C34   O8    A    
C12   C46   S    
C53   H32   S    
C68   H60   S    
C40   H8    S    
O4    Zn2   S    
O14   C61   S    
C55   H38   S    
O1    Zn1   S    
C42   C43   S    
C44   O10   S    
O12   C54   S    
C48   H23   S    
C64   H50   S    
O13   C57   S    
C24   H3    S    
C4    O17   S    
C12   O4    A    
C36   C37   A    
C61   H45   S    
C15   C59   S    
C56   N4    T    
C19   C21   A    
C49   H24   S    
C26   N1    A    
C23   O6    A    
C31   C32   A    
C66   H54   S    
C10   C13   A    
C5    C8    A    
C57   H40   S    
C65   H51   S    
C41   N2    A    
O2    Zn2   S    
C7    O11   S    
C45   H18   S    
C31   C38   A    
C13   C17   A    
C32   C33   A    
C19   C20   A    
C58   H42   S    
C2    C3    S    
C4    O9    S    
C37   C39   A    
C36   H9    S    
C58   H41   S    
O5    Zn1   S    
C65   H52   S    
C47   C48   S    
C63   N7    T    
C6    C23   S    
C28   C30   A    
C1    O1    A    
O3    Zn1   S    
C49   H25   S    
C42   H1    S    
C8    O12   S    
C57   C58   S    
C10   C11   A    
C34   O7    A    
C53   H33   S    
C68   H59   S    
C27   C28   A    
C26   C63   S    
C14   C15   A    
C32   H13   S    
C50   H26   S    
C13   C14   A    
C54   C55   S    
C15   C16   A    
C62   H47   S    
