data_mof_unit_46457.cif
_audit_creation_date              2013-03-05T15:40:11-0500
_audit_creation_method            fapswitch 2.2
_symmetry_space_group_name_H-M    P1
_symmetry_Int_Tables_number       1
_space_group_crystal_system       triclinic
_cell_length_a                    33.926892
_cell_length_b                    33.942783
_cell_length_c                    33.941392
_cell_angle_alpha                 60.013453
_cell_angle_beta                  60.009435
_cell_angle_gamma                 60.014271
_cell_volume                      27645.7330288

loop_
_atom_site_label
_atom_site_type_symbol
_atom_site_description
_atom_site_fract_x
_atom_site_fract_y
_atom_site_fract_z
_atom_type_partial_charge
O1    O     O_R   0.716970 0.488630 0.223920 -0.566702
O2    O     O_R   0.223920 0.716970 0.488630 -0.565555
O3    O     O_R   0.488630 0.223920 0.716970 -0.589408
O4    O     O_R   0.223920 0.488630 0.716970 -0.579607
O5    O     O_R   0.488630 0.716970 0.223920 -0.566627
O6    O     O_R   0.716970 0.223920 0.488630 -0.565377
O7    O     O_R   0.783170 0.487770 0.157850 -0.570793
O8    O     O_R   0.157850 0.783170 0.487770 -0.568555
O9    O     O_R   0.487770 0.157850 0.783170 -0.594236
O10   O     O_R   0.157850 0.487770 0.783170 -0.581608
O11   O     O_R   0.487770 0.783170 0.157850 -0.570320
O12   O     O_R   0.783170 0.157850 0.487770 -0.568738
C1    C     C_R   0.735341 0.499411 0.175906 0.753029
C2    C     C_R   0.175848 0.735355 0.499493 0.751483
C3    C     C_R   0.479110 0.182691 0.741928 0.745043
C4    C     C_R   0.175778 0.499943 0.735264 0.739861
C5    C     C_R   0.499238 0.735413 0.175906 0.745259
C6    C     C_R   0.735263 0.175852 0.499692 0.752245
C7    C     C_R   0.709436 0.503099 0.149478 -0.065875
C8    C     C_R   0.149445 0.709629 0.502858 -0.067031
C9    C     C_R   0.475436 0.158512 0.718766 -0.055871
C10   C     C_R   0.149245 0.503827 0.709325 -0.062632
C11   C     C_R   0.502081 0.709913 0.149653 -0.063654
C12   C     C_R   0.709198 0.149378 0.503641 -0.066731
C13   C     C_R   0.731728 0.507390 0.100418 -0.198747
C14   C     C_R   0.100627 0.732314 0.506034 -0.190781
C15   C     C_R   0.476469 0.110305 0.742254 -0.196550
C16   C     C_R   0.100140 0.508084 0.731632 -0.196292
C17   C     C_R   0.503914 0.733103 0.101248 -0.191976
C18   C     C_R   0.731831 0.100584 0.506869 -0.192230
H1    H     H_    0.768113 0.508793 0.081563 0.143729
H2    H     H_    0.081951 0.768959 0.506647 0.146948
H3    H     H_    0.477924 0.091312 0.778600 0.149531
H4    H     H_    0.081287 0.509302 0.768068 0.145725
H5    H     H_    0.503921 0.769955 0.082770 0.146775
H6    H     H_    0.768643 0.082020 0.507047 0.146319
O13   O     O_R   0.224060 0.570410 0.716850 -0.583079
O14   O     O_R   0.716850 0.224060 0.570410 -0.581052
O15   O     O_R   0.570410 0.716850 0.224060 -0.568000
O16   O     O_R   0.716850 0.570410 0.224060 -0.581120
O17   O     O_R   0.570410 0.224060 0.716850 -0.576197
O18   O     O_R   0.224060 0.716850 0.570410 -0.581344
O19   O     O_R   0.157990 0.571150 0.783050 -0.586702
O20   O     O_R   0.783050 0.157990 0.571150 -0.586169
O21   O     O_R   0.571150 0.783050 0.157990 -0.571025
O22   O     O_R   0.783050 0.571150 0.157990 -0.584318
O23   O     O_R   0.571150 0.157990 0.783050 -0.580565
O24   O     O_R   0.157990 0.783050 0.571150 -0.585252
C19   C     C_R   0.176131 0.589892 0.735444 0.731753
C20   C     C_R   0.735243 0.175997 0.589418 0.728289
C21   C     C_R   0.589087 0.735171 0.175926 0.742375
C22   C     C_R   0.735350 0.589688 0.176074 0.731714
C23   C     C_R   0.589090 0.175891 0.735185 0.791290
C24   C     C_R   0.175952 0.735262 0.589337 0.728260
C25   C     C_R   0.149690 0.638866 0.710009 -0.057418
C26   C     C_R   0.709661 0.149549 0.638345 -0.054858
C27   C     C_R   0.637765 0.709352 0.149306 -0.062292
C28   C     C_R   0.709661 0.638493 0.149497 -0.057217
C29   C     C_R   0.638325 0.149593 0.709816 -0.066471
C30   C     C_R   0.149444 0.709745 0.638239 -0.055206
C31   C     C_R   0.100932 0.661941 0.732938 -0.199139
C32   C     C_R   0.732549 0.100781 0.661291 -0.198599
C33   C     C_R   0.659940 0.731514 0.100041 -0.197801
C34   C     C_R   0.732222 0.661286 0.100486 -0.195669
C35   C     C_R   0.661803 0.101151 0.733065 -0.194334
C36   C     C_R   0.100401 0.732307 0.660847 -0.201429
H7    H     H_    0.083127 0.643507 0.770020 0.143189
H8    H     H_    0.768544 0.082191 0.641621 0.138693
H9    H     H_    0.639739 0.767027 0.081300 0.136677
H10   H     H_    0.769234 0.642793 0.082572 0.142302
H11   H     H_    0.643380 0.083444 0.770189 0.142962
H12   H     H_    0.081658 0.768033 0.640937 0.138066
O25   O     O_R   0.488840 0.570440 0.223920 -0.568499
O26   O     O_R   0.223920 0.488840 0.570440 -0.570488
O27   O     O_R   0.570440 0.223920 0.488840 -0.561936
O28   O     O_R   0.223920 0.570440 0.488840 -0.568190
O29   O     O_R   0.570440 0.488840 0.223920 -0.568040
O30   O     O_R   0.488840 0.223920 0.570440 -0.587976
O31   O     O_R   0.487980 0.571180 0.157850 -0.567950
O32   O     O_R   0.157850 0.487980 0.571180 -0.567625
O33   O     O_R   0.571180 0.157850 0.487980 -0.559657
O34   O     O_R   0.157850 0.571180 0.487980 -0.566052
O35   O     O_R   0.571180 0.487980 0.157850 -0.565293
O36   O     O_R   0.487980 0.157850 0.571180 -0.587801
C37   C     C_R   0.498970 0.589699 0.176022 0.744504
C38   C     C_R   0.175931 0.499431 0.589436 0.745289
C39   C     C_R   0.588525 0.175697 0.500835 0.799740
C40   C     C_R   0.175957 0.589503 0.499299 0.747162
C41   C     C_R   0.589052 0.500018 0.175825 0.746569
C42   C     C_R   0.480100 0.182369 0.596135 0.777062
C43   C     C_R   0.501478 0.638704 0.149892 -0.064354
C44   C     C_R   0.149526 0.502935 0.638142 -0.065421
C45   C     C_R   0.637400 0.149373 0.504097 -0.074494
C46   C     C_R   0.149683 0.638350 0.502307 -0.063184
C47   C     C_R   0.637590 0.503995 0.149266 -0.067301
C48   C     C_R   0.476548 0.158209 0.647046 -0.065220
C49   C     C_R   0.502822 0.662170 0.101672 -0.189458
C50   C     C_R   0.100636 0.506499 0.660859 -0.195788
C51   C     C_R   0.660411 0.100726 0.506858 -0.185903
C52   C     C_R   0.101048 0.661333 0.504989 -0.193902
C53   C     C_R   0.659803 0.508952 0.100008 -0.191202
C54   C     C_R   0.478225 0.109872 0.670393 -0.194414
H13   H     H_    0.503006 0.643672 0.083182 0.155658
H14   H     H_    0.081895 0.507424 0.642119 0.151517
H15   H     H_    0.641565 0.081978 0.507961 0.155927
H16   H     H_    0.082390 0.642577 0.505813 0.151600
H17   H     H_    0.640786 0.510619 0.081074 0.152147
H18   H     H_    0.480099 0.090810 0.651384 0.156548
H19   H     H_    0.035844 0.241485 0.579434 0.133048
H20   H     H_    0.548413 0.044557 0.252270 0.134026
H21   H     H_    0.241634 0.579573 0.035676 0.134264
H22   H     H_    0.460972 0.281857 0.070233 0.127807
H23   H     H_    0.241407 0.035549 0.579716 0.134779
H24   H     H_    0.035619 0.579838 0.241224 0.139727
C55   C     C_R   0.209887 0.209698 0.517972 0.110152
C56   C     C_R   0.499494 0.216094 0.215613 0.110854
C57   C     C_R   0.209793 0.518008 0.209775 0.109493
H25   H     H_    0.194685 0.290208 0.560462 0.140742
H26   H     H_    0.547035 0.196274 0.294174 0.141660
H27   H     H_    0.290149 0.560576 0.194821 0.142827
H28   H     H_    0.447471 0.326455 0.228587 0.126998
H29   H     H_    0.319883 0.224971 0.457580 0.128345
H30   H     H_    0.224887 0.457607 0.319811 0.128143
C58   C     C_R   0.058082 0.205698 0.530171 0.111604
C59   C     C_R   0.499069 0.068553 0.215846 0.111226
C60   C     C_R   0.205787 0.530342 0.057931 0.111401
C61   C     C_R   0.511813 0.211972 0.063941 0.111714
C62   C     C_R   0.205908 0.057896 0.530145 0.111158
C63   C     C_R   0.057957 0.530278 0.205732 0.109705
H31   H     H_    0.150814 0.245904 0.568713 0.133749
H32   H     H_    0.548859 0.154320 0.251960 0.134847
H33   H     H_    0.245997 0.568792 0.150820 0.135413
H34   H     H_    0.449890 0.284471 0.185815 0.127835
H35   H     H_    0.275950 0.180637 0.465808 0.131135
H36   H     H_    0.180695 0.465813 0.275748 0.131203
H37   H     H_    0.067220 0.176567 0.480940 0.127294
H38   H     H_    0.449338 0.079663 0.186107 0.128514
H39   H     H_    0.176581 0.481156 0.067079 0.126788
H40   H     H_    0.563897 0.148274 0.044067 0.133618
H41   H     H_    0.176989 0.067134 0.480679 0.127351
H42   H     H_    0.067199 0.480807 0.176832 0.126055
C64   C     C_R   0.213104 0.141868 0.141462 -0.197528
C65   C     C_R   0.141709 0.213337 0.141405 -0.200208
C66   C     C_R   0.143720 0.144006 0.214509 -0.202757
H43   H     H_    0.248919 0.122339 0.122349 0.127541
H44   H     H_    0.122706 0.249647 0.122586 0.124861
H45   H     H_    0.126700 0.127067 0.252513 0.125628
C67   C     C_R   0.265488 0.054466 0.209758 -0.172794
C68   C     C_R   0.186262 0.240029 0.032257 -0.169478
C69   C     C_R   0.035040 0.192663 0.247551 -0.172959
C70   C     C_R   0.192039 0.035386 0.247891 -0.171662
C71   C     C_R   0.054653 0.265694 0.210041 -0.173482
C72   C     C_R   0.261459 0.207429 0.046649 -0.175893
C73   C     C_R   0.289474 0.007325 0.234237 -0.176348
C74   C     C_R   0.208592 0.262118 0.983347 -0.173542
C75   C     C_R   0.987965 0.216730 0.271900 -0.167822
C76   C     C_R   0.216030 0.988252 0.272200 -0.166670
C77   C     C_R   0.007571 0.289753 0.234574 -0.176622
C78   C     C_R   0.283763 0.229486 0.997796 -0.171587
O37   O     O_R   0.283280 0.775980 0.511290 -0.587774
O38   O     O_R   0.511290 0.283280 0.775980 -0.567405
O39   O     O_R   0.775980 0.511290 0.283280 -0.586371
O40   O     O_R   0.511290 0.775980 0.283280 -0.567090
O41   O     O_R   0.775980 0.283280 0.511290 -0.586803
O42   O     O_R   0.283280 0.511290 0.775980 -0.568691
O43   O     O_R   0.217080 0.842050 0.512160 -0.592464
O44   O     O_R   0.512160 0.217080 0.842050 -0.574855
O45   O     O_R   0.842050 0.512160 0.217080 -0.592536
O46   O     O_R   0.512160 0.842050 0.217080 -0.572670
O47   O     O_R   0.842050 0.217080 0.512160 -0.592382
O48   O     O_R   0.217080 0.512160 0.842050 -0.574512
C79   C     C_R   0.257626 0.816300 0.522483 0.777108
C80   C     C_R   0.520920 0.258288 0.817125 0.805304
C81   C     C_R   0.816313 0.522474 0.257623 0.778255
C82   C     C_R   0.500730 0.823955 0.264868 0.745018
C83   C     C_R   0.816338 0.257639 0.522434 0.776537
C84   C     C_R   0.257648 0.522425 0.816331 0.804294
C85   C     C_R   0.280400 0.839471 0.528185 -0.061299
C86   C     C_R   0.525415 0.281234 0.840943 -0.067423
C87   C     C_R   0.839502 0.528148 0.280400 -0.060388
C88   C     C_R   0.497616 0.850217 0.290569 -0.061119
C89   C     C_R   0.839557 0.280415 0.528075 -0.060144
C90   C     C_R   0.280378 0.528216 0.839484 -0.068153
C91   C     C_R   0.255564 0.886161 0.531234 -0.198499
C92   C     C_R   0.525274 0.257465 0.888847 -0.196712
C93   C     C_R   0.886187 0.531250 0.255549 -0.197502
C94   C     C_R   0.496261 0.898449 0.267250 -0.196892
C95   C     C_R   0.886255 0.255572 0.531151 -0.198697
C96   C     C_R   0.255505 0.531357 0.886149 -0.194913
H46   H     H_    0.218339 0.903963 0.532390 0.145387
H47   H     H_    0.523394 0.221290 0.907863 0.145649
H48   H     H_    0.903965 0.532471 0.218317 0.145829
H49   H     H_    0.497360 0.916445 0.230055 0.144190
H50   H     H_    0.904016 0.218339 0.532390 0.145020
H51   H     H_    0.218264 0.532562 0.903923 0.144711
O49   O     O_R   0.511420 0.429400 0.283150 -0.567415
O50   O     O_R   0.283150 0.511420 0.429400 -0.566595
O51   O     O_R   0.429400 0.283150 0.511420 -0.579597
O52   O     O_R   0.283150 0.429400 0.511420 -0.568975
O53   O     O_R   0.429400 0.511420 0.283150 -0.567230
O54   O     O_R   0.511420 0.283150 0.429400 -0.566563
O55   O     O_R   0.512280 0.428670 0.216950 -0.569927
O56   O     O_R   0.216950 0.512280 0.428670 -0.569795
O57   O     O_R   0.428670 0.216950 0.512280 -0.583950
O58   O     O_R   0.216950 0.428670 0.512280 -0.572685
O59   O     O_R   0.428670 0.512280 0.216950 -0.572733
O60   O     O_R   0.512280 0.216950 0.428670 -0.568774
C97   C     C_R   0.500812 0.410433 0.264706 0.744099
C98   C     C_R   0.264550 0.501443 0.410027 0.744605
C99   C     C_R   0.409932 0.264510 0.501615 0.729471
C100  C     C_R   0.264566 0.410071 0.501390 0.742017
C101  C     C_R   0.410021 0.501484 0.264544 0.741591
C102  C     C_R   0.500614 0.264749 0.410558 0.748426
C103  C     C_R   0.498203 0.361437 0.290114 -0.060830
C104  C     C_R   0.289246 0.500415 0.360511 -0.058444
C105  C     C_R   0.360422 0.289234 0.500557 -0.052753
C106  C     C_R   0.289225 0.360540 0.500489 -0.056271
C107  C     C_R   0.360501 0.500515 0.289249 -0.054200
C108  C     C_R   0.498025 0.290163 0.361556 -0.059239
C109  C     C_R   0.496999 0.337854 0.266683 -0.192608
C110  C     C_R   0.264697 0.502428 0.335869 -0.187890
C111  C     C_R   0.335768 0.264735 0.502533 -0.194485
C112  C     C_R   0.264644 0.336016 0.502433 -0.197156
C113  C     C_R   0.335945 0.502482 0.264699 -0.197341
C114  C     C_R   0.496555 0.266803 0.338111 -0.198384
H52   H     H_    0.497806 0.356088 0.229581 0.146242
H53   H     H_    0.227248 0.504328 0.353723 0.149528
H54   H     H_    0.353600 0.227292 0.504475 0.147864
H55   H     H_    0.227606 0.354378 0.502975 0.145630
H56   H     H_    0.354287 0.503083 0.227656 0.144993
H57   H     H_    0.495559 0.230306 0.357037 0.142726
H58   H     H_    0.952091 0.282362 0.581055 0.133815
H59   H     H_    0.545994 0.962439 0.294928 0.139086
H60   H     H_    0.282387 0.581294 0.951922 0.134191
H61   H     H_    0.468722 0.320887 0.985019 0.133255
H62   H     H_    0.282171 0.951812 0.581426 0.133424
H63   H     H_    0.951866 0.581456 0.282087 0.137483
O61   O     O_R   0.511410 0.775980 0.429490 -0.561818
O62   O     O_R   0.429490 0.511410 0.775980 -0.568968
O63   O     O_R   0.775980 0.429490 0.511410 -0.570548
O64   O     O_R   0.429490 0.775980 0.511410 -0.588375
O65   O     O_R   0.775980 0.511410 0.429490 -0.570308
O66   O     O_R   0.511410 0.429490 0.775980 -0.568705
O67   O     O_R   0.512270 0.842050 0.428760 -0.565309
O68   O     O_R   0.428760 0.512270 0.842050 -0.573758
O69   O     O_R   0.842050 0.428760 0.512270 -0.572524
O70   O     O_R   0.428760 0.842050 0.512270 -0.590388
O71   O     O_R   0.842050 0.512270 0.428760 -0.571499
O72   O     O_R   0.512270 0.428760 0.842050 -0.574129
C115  C     C_R   0.499352 0.824231 0.411452 0.801328
C116  C     C_R   0.403641 0.521980 0.816632 0.804616
C117  C     C_R   0.816719 0.403642 0.521819 0.804839
C118  C     C_R   0.403630 0.816579 0.522086 0.775805
C119  C     C_R   0.816683 0.521885 0.403639 0.807626
C120  C     C_R   0.521359 0.403713 0.816944 0.807028
C121  C     C_R   0.496573 0.850443 0.362434 -0.068217
C122  C     C_R   0.351934 0.527844 0.839764 -0.068443
C123  C     C_R   0.839889 0.351972 0.527597 -0.069765
C124  C     C_R   0.351950 0.839733 0.527853 -0.060890
C125  C     C_R   0.839826 0.527697 0.351958 -0.069508
C126  C     C_R   0.525643 0.352542 0.840793 -0.067482
C127  C     C_R   0.495001 0.898748 0.339000 -0.195665
C128  C     C_R   0.326938 0.530673 0.886598 -0.196461
C129  C     C_R   0.886766 0.326994 0.530366 -0.195131
C130  C     C_R   0.326978 0.886586 0.530610 -0.198467
C131  C     C_R   0.886682 0.530509 0.326961 -0.193712
C132  C     C_R   0.525596 0.328638 0.888617 -0.193795
H64   H     H_    0.493783 0.917412 0.357981 0.143669
H65   H     H_    0.345629 0.529884 0.905281 0.145700
H66   H     H_    0.905482 0.345672 0.529545 0.146477
H67   H     H_    0.345659 0.905271 0.529835 0.146506
H68   H     H_    0.905397 0.529719 0.345621 0.147210
H69   H     H_    0.525296 0.347273 0.907033 0.147424
O73   O     O_R   0.429600 0.775990 0.283160 -0.566061
O74   O     O_R   0.283160 0.429600 0.775990 -0.567806
O75   O     O_R   0.775990 0.283160 0.429600 -0.559629
O76   O     O_R   0.283160 0.775990 0.429600 -0.559790
O77   O     O_R   0.775990 0.429600 0.283160 -0.559671
O78   O     O_R   0.429600 0.283160 0.775990 -0.572813
O79   O     O_R   0.428860 0.842070 0.216970 -0.571124
O80   O     O_R   0.216970 0.428860 0.842070 -0.574386
O81   O     O_R   0.842070 0.216970 0.428860 -0.565921
O82   O     O_R   0.216970 0.842070 0.428860 -0.565472
O83   O     O_R   0.842070 0.428860 0.216970 -0.566128
O84   O     O_R   0.428860 0.216970 0.842070 -0.580543
C133  C     C_R   0.410479 0.823949 0.264737 0.745896
C134  C     C_R   0.258373 0.403845 0.817370 0.810032
C135  C     C_R   0.824237 0.265048 0.411479 0.803623
C136  C     C_R   0.265003 0.824230 0.411456 0.803093
C137  C     C_R   0.824222 0.411382 0.265016 0.802753
C138  C     C_R   0.403839 0.258272 0.817225 0.775414
C139  C     C_R   0.361570 0.850197 0.290434 -0.061396
C140  C     C_R   0.281400 0.352685 0.841327 -0.068929
C141  C     C_R   0.850459 0.290882 0.362486 -0.068709
C142  C     C_R   0.290556 0.850420 0.362371 -0.068228
C143  C     C_R   0.850466 0.362393 0.290835 -0.070533
C144  C     C_R   0.352733 0.281364 0.841185 -0.059532
C145  C     C_R   0.338002 0.898466 0.267158 -0.194684
C146  C     C_R   0.257685 0.328767 0.889317 -0.195243
C147  C     C_R   0.898772 0.267657 0.339004 -0.197170
C148  C     C_R   0.267274 0.898762 0.338985 -0.197165
C149  C     C_R   0.898733 0.338778 0.267541 -0.193965
C150  C     C_R   0.328905 0.257555 0.889078 -0.196328
H70   H     H_    0.356102 0.916474 0.229969 0.144612
H71   H     H_    0.221503 0.347811 0.908339 0.146131
H72   H     H_    0.917361 0.231142 0.357874 0.141639
H73   H     H_    0.230900 0.917439 0.358046 0.141507
H74   H     H_    0.916841 0.356969 0.230438 0.144176
H75   H     H_    0.347579 0.220835 0.907489 0.145864
H76   H     H_    0.983917 0.217734 0.482013 0.130080
H77   H     H_    0.446460 0.997503 0.229215 0.123327
H78   H     H_    0.217628 0.482319 0.983785 0.131957
H79   H     H_    0.571651 0.187397 0.958645 0.132415
H80   H     H_    0.218021 0.983819 0.481876 0.129688
H81   H     H_    0.983871 0.481915 0.217959 0.127698
C151  C     C_R   0.187544 0.241367 0.543996 -0.171288
C152  C     C_R   0.526282 0.191785 0.246899 -0.169793
C153  C     C_R   0.241425 0.544063 0.187531 -0.168506
C154  C     C_R   0.471395 0.264984 0.209222 -0.170942
C155  C     C_R   0.257964 0.204137 0.486968 -0.170890
C156  C     C_R   0.204175 0.486992 0.257835 -0.168874
C157  C     C_R   0.212665 0.266796 0.539210 -0.165509
C158  C     C_R   0.525122 0.215813 0.271166 -0.164380
C159  C     C_R   0.266760 0.539300 0.212731 -0.161486
C160  C     C_R   0.470052 0.288998 0.233684 -0.175381
C161  C     C_R   0.283107 0.229573 0.482191 -0.176711
C162  C     C_R   0.229521 0.482233 0.283057 -0.174754
C163  C     C_R   0.260748 0.261210 0.508258 0.105194
C164  C     C_R   0.496959 0.264706 0.264921 0.105390
C165  C     C_R   0.261128 0.508328 0.260795 0.104709
Cu1   Cu    Cu3+1 0.500020 0.500020 0.260100 0.971533
Cu2   Cu    Cu3+1 0.260100 0.500020 0.500020 0.968796
Cu3   Cu    Cu3+1 0.500020 0.260100 0.500020 0.964016
Cu4   Cu    Cu3+1 0.500030 0.500030 0.180750 0.980337
Cu5   Cu    Cu3+1 0.180750 0.500030 0.500030 0.981473
Cu6   Cu    Cu3+1 0.500030 0.180750 0.500030 0.976084
Cu7   Cu    Cu3+1 0.260230 0.739800 0.500010 0.961730
Cu8   Cu    Cu3+1 0.500010 0.260230 0.739800 0.960477
Cu9   Cu    Cu3+1 0.739800 0.500010 0.260230 0.964655
Cu10  Cu    Cu3+1 0.500010 0.739800 0.260230 0.970281
Cu11  Cu    Cu3+1 0.739800 0.260230 0.500010 0.964293
Cu12  Cu    Cu3+1 0.260230 0.500010 0.739800 0.961288
Cu13  Cu    Cu3+1 0.180880 0.819150 0.500010 0.954098
Cu14  Cu    Cu3+1 0.500010 0.180880 0.819150 0.952510
Cu15  Cu    Cu3+1 0.819150 0.500010 0.180880 0.954595
Cu16  Cu    Cu3+1 0.500010 0.819150 0.180880 0.961346
Cu17  Cu    Cu3+1 0.819150 0.180880 0.500010 0.954063
Cu18  Cu    Cu3+1 0.180880 0.500010 0.819150 0.955156
C166  C     C_R   0.190842 0.119066 0.190425 0.064877
C167  C     C_R   0.188788 0.188955 0.116534 0.064492
C168  C     C_R   0.118857 0.191121 0.190363 0.066076
C169  C     C_R   0.662251 0.502065 0.173402 -0.210169
C170  C     C_R   0.173373 0.662433 0.501928 -0.211052
C171  C     C_R   0.474624 0.182394 0.671573 -0.223631
C172  C     C_R   0.173326 0.502268 0.662325 -0.214352
C173  C     C_R   0.501776 0.662520 0.173372 -0.212550
C174  C     C_R   0.661756 0.173176 0.503219 -0.207628
H82   H     H_    0.644961 0.498879 0.211195 0.170864
H83   H     H_    0.210839 0.644688 0.500009 0.169881
H84   H     H_    0.474078 0.219433 0.653336 0.170481
H85   H     H_    0.211003 0.499590 0.644834 0.170102
H86   H     H_    0.500857 0.644416 0.210526 0.169133
H87   H     H_    0.644086 0.210658 0.501174 0.170001
C175  C     C_R   0.707064 0.510487 0.075309 0.101001
C176  C     C_R   0.076170 0.708421 0.506873 0.099279
C177  C     C_R   0.478447 0.085529 0.718008 0.093984
C178  C     C_R   0.075588 0.509197 0.707660 0.099131
C179  C     C_R   0.503966 0.709513 0.077043 0.098780
C180  C     C_R   0.707721 0.076007 0.508236 0.100339
C181  C     C_R   0.173403 0.662816 0.662677 -0.219182
C182  C     C_R   0.662348 0.173256 0.662446 -0.217257
C183  C     C_R   0.662439 0.662589 0.173361 -0.214399
H88   H     H_    0.210933 0.645103 0.645019 0.169765
H89   H     H_    0.644412 0.210565 0.644512 0.169362
H90   H     H_    0.645080 0.645153 0.211091 0.170068
C184  C     C_R   0.075537 0.708900 0.708640 0.078881
C185  C     C_R   0.709136 0.075985 0.709094 0.080369
C186  C     C_R   0.707634 0.708049 0.075001 0.082149
C187  C     C_R   0.328201 0.816226 0.527404 -0.220603
C188  C     C_R   0.526341 0.328393 0.817004 -0.215439
C189  C     C_R   0.816285 0.527282 0.328216 -0.214734
C190  C     C_R   0.497017 0.826758 0.338290 -0.211678
C191  C     C_R   0.816342 0.328222 0.527211 -0.216878
C192  C     C_R   0.328187 0.527402 0.816254 -0.212294
H91   H     H_    0.347518 0.780351 0.524727 0.170813
H92   H     H_    0.525925 0.346932 0.780284 0.169279
H93   H     H_    0.780406 0.524569 0.347547 0.170853
H94   H     H_    0.497904 0.789617 0.356365 0.168270
H95   H     H_    0.780453 0.347540 0.524528 0.170440
H96   H     H_    0.347524 0.524672 0.780397 0.170212
C193  C     C_R   0.278668 0.910313 0.532080 0.075135
C194  C     C_R   0.524933 0.281104 0.913218 0.075401
C195  C     C_R   0.910371 0.532061 0.278641 0.076381
C196  C     C_R   0.495121 0.923086 0.291154 0.077539
C197  C     C_R   0.910465 0.278671 0.531925 0.076391
C198  C     C_R   0.278599 0.532214 0.910313 0.077584
C199  C     C_R   0.497998 0.337647 0.337664 -0.214636
C200  C     C_R   0.337210 0.498780 0.337219 -0.218853
C201  C     C_R   0.337180 0.337195 0.498856 -0.222822
H97   H     H_    0.498723 0.355847 0.355839 0.168331
H98   H     H_    0.356233 0.496965 0.356246 0.166176
H99   H     H_    0.356234 0.356180 0.497059 0.166365
C202  C     C_R   0.496318 0.290292 0.290393 0.076630
C203  C     C_R   0.287741 0.503814 0.287642 0.072861
C204  C     C_R   0.287565 0.287816 0.503808 0.072113
C205  C     C_R   0.337906 0.826717 0.338158 -0.210084
C206  C     C_R   0.328554 0.328542 0.817373 -0.216625
C207  C     C_R   0.826868 0.338464 0.338472 -0.205509
H100  H     H_    0.356078 0.789561 0.356203 0.168324
H101  H     H_    0.347046 0.347073 0.780590 0.169155
H102  H     H_    0.789697 0.356582 0.356568 0.168582
C208  C     C_R   0.290624 0.923140 0.291123 0.078215
C209  C     C_R   0.281381 0.281149 0.913728 0.074973
C210  C     C_R   0.923242 0.291201 0.291289 0.079375
O85   O     O_R   0.488840 0.716740 0.570530 -0.581829
O86   O     O_R   0.570530 0.488840 0.716740 -0.582281
O87   O     O_R   0.716740 0.570530 0.488840 -0.581242
O88   O     O_R   0.570530 0.716740 0.488840 -0.567990
O89   O     O_R   0.716740 0.488840 0.570530 -0.582704
O90   O     O_R   0.488840 0.570530 0.716740 -0.582401
O91   O     O_R   0.487970 0.782940 0.571270 -0.583860
O92   O     O_R   0.571270 0.487970 0.782940 -0.581109
O93   O     O_R   0.782940 0.571270 0.487970 -0.580579
O94   O     O_R   0.571270 0.782940 0.487970 -0.568265
O95   O     O_R   0.782940 0.487970 0.571270 -0.584234
O96   O     O_R   0.487970 0.571270 0.782940 -0.585069
C211  C     C_R   0.499161 0.735262 0.589661 0.730723
C212  C     C_R   0.589268 0.499797 0.735124 0.736953
C213  C     C_R   0.735106 0.589279 0.499804 0.735799
C214  C     C_R   0.589157 0.735073 0.499950 0.751150
C215  C     C_R   0.735127 0.499681 0.589348 0.733486
C216  C     C_R   0.499316 0.589571 0.735221 0.733526
C217  C     C_R   0.501912 0.709879 0.638581 -0.056330
C218  C     C_R   0.637845 0.503624 0.709288 -0.059673
C219  C     C_R   0.709183 0.637783 0.503824 -0.059546
C220  C     C_R   0.637683 0.709138 0.503869 -0.063295
C221  C     C_R   0.709319 0.503405 0.637944 -0.056838
C222  C     C_R   0.502008 0.638513 0.709842 -0.055996
C223  C     C_R   0.503740 0.733127 0.661929 -0.195992
C224  C     C_R   0.660327 0.507929 0.731619 -0.195273
C225  C     C_R   0.731467 0.660268 0.508212 -0.191888
C226  C     C_R   0.660011 0.731428 0.508343 -0.199293
C227  C     C_R   0.731698 0.507683 0.660373 -0.202139
C228  C     C_R   0.504018 0.661758 0.733040 -0.199840
H103  H     H_    0.503273 0.770120 0.643566 0.147126
H104  H     H_    0.641541 0.508702 0.768203 0.146684
H105  H     H_    0.768112 0.641584 0.508846 0.147621
H106  H     H_    0.640624 0.767531 0.510415 0.143508
H107  H     H_    0.767885 0.509584 0.641098 0.143338
H108  H     H_    0.505191 0.642760 0.769476 0.145440
C229  C     C_R   0.265041 0.973609 0.265719 0.107974
C230  C     C_R   0.257627 0.257074 0.965532 0.106448
C231  C     C_R   0.973627 0.265564 0.265773 0.107448
C232  C     C_R   0.216484 0.069023 0.216342 0.112920
C233  C     C_R   0.212436 0.212448 0.064498 0.111816
C234  C     C_R   0.068902 0.216866 0.216300 0.111611
H109  H     H_    0.327033 0.997424 0.228945 0.122890
H110  H     H_    0.187631 0.282679 0.959322 0.133855
H111  H     H_    0.962508 0.197274 0.294869 0.138069
H112  H     H_    0.196372 0.962982 0.295405 0.138447
H113  H     H_    0.997899 0.327164 0.229557 0.126224
H114  H     H_    0.321330 0.225692 0.985445 0.132616
H115  H     H_    0.285104 0.079766 0.186168 0.125455
H116  H     H_    0.148633 0.243980 0.044726 0.134508
H117  H     H_    0.044745 0.155252 0.252520 0.132327
H118  H     H_    0.154489 0.045297 0.253123 0.132154
H119  H     H_    0.080150 0.285101 0.186688 0.129340
H120  H     H_    0.282418 0.187094 0.070659 0.126616
Cu19  Cu    Cu3+1 0.500070 0.739800 0.500070 0.960407
Cu20  Cu    Cu3+1 0.500070 0.500070 0.739800 0.961304
Cu21  Cu    Cu3+1 0.739800 0.500070 0.500070 0.960767
Cu22  Cu    Cu3+1 0.500070 0.819140 0.500070 0.963958
Cu23  Cu    Cu3+1 0.500070 0.500070 0.819140 0.963774
Cu24  Cu    Cu3+1 0.819140 0.500070 0.500070 0.968101
C235  C     C_R   0.501785 0.662469 0.662469 -0.219332
C236  C     C_R   0.662233 0.502211 0.662289 -0.217240
C237  C     C_R   0.662125 0.662128 0.502486 -0.212743
H121  H     H_    0.500644 0.644436 0.644414 0.169424
H122  H     H_    0.644817 0.499268 0.644903 0.170446
H123  H     H_    0.644790 0.644761 0.499408 0.170487
C238  C     C_R   0.504667 0.709347 0.709416 0.077235
C239  C     C_R   0.707470 0.509920 0.707413 0.078764
C240  C     C_R   0.707121 0.707334 0.510384 0.080439
C241  C     C_R   0.875188 0.805650 0.805934 0.342256
C242  C     C_R   0.806268 0.876058 0.806613 0.342750
C243  C     C_R   0.804499 0.804913 0.874578 0.344434
N1    N     N_R   0.850705 0.781798 0.851124 -0.389215
N2    N     N_R   0.852813 0.852860 0.784104 -0.391854
N3    N     N_R   0.782489 0.851933 0.851948 -0.392060
C244  C     C_R   0.944092 0.730518 0.792144 -0.166263
C245  C     C_R   0.808032 0.958254 0.746446 -0.171231
C246  C     C_R   0.743266 0.806533 0.956187 -0.170387
C247  C     C_R   0.790857 0.729578 0.943369 -0.159629
C248  C     C_R   0.731236 0.944930 0.793195 -0.163271
C249  C     C_R   0.957297 0.807344 0.745628 -0.171000
C250  C     C_R   0.992109 0.707321 0.768297 -0.181655
C251  C     C_R   0.784643 0.006421 0.723288 -0.177254
C252  C     C_R   0.720499 0.783288 0.004499 -0.175933
C253  C     C_R   0.767228 0.706331 0.991491 -0.173979
C254  C     C_R   0.707932 0.992759 0.769239 -0.175437
C255  C     C_R   0.005541 0.784105 0.722556 -0.177392
C256  C     C_R   0.023770 0.733700 0.733326 0.111943
C257  C     C_R   0.734187 0.024461 0.734073 0.109364
C258  C     C_R   0.731928 0.732779 0.023028 0.109593
C259  C     C_R   0.926093 0.780822 0.780934 0.107341
C260  C     C_R   0.781563 0.927063 0.781884 0.104959
C261  C     C_R   0.779018 0.779966 0.925164 0.105346
H124  H     H_    0.004142 0.668699 0.777017 0.122276
H125  H     H_    0.806254 0.029608 0.697432 0.132139
H126  H     H_    0.694633 0.805101 0.027478 0.134736
H127  H     H_    0.776497 0.667610 0.003736 0.127491
H128  H     H_    0.669321 0.004548 0.777966 0.130932
H129  H     H_    0.028689 0.805789 0.696864 0.132679
H130  H     H_    0.920801 0.709124 0.818861 0.143585
H131  H     H_    0.846837 0.945635 0.737232 0.143266
H132  H     H_    0.733762 0.845365 0.943443 0.149369
H133  H     H_    0.818044 0.708153 0.920222 0.144690
H134  H     H_    0.709902 0.921592 0.819954 0.150843
H135  H     H_    0.944670 0.846116 0.736512 0.144171
C262  C     C_R   0.877173 0.805496 0.512089 0.101095
C263  C     C_R   0.498672 0.882510 0.809837 0.112058
C264  C     C_R   0.802359 0.521339 0.874600 0.112200
C265  C     C_R   0.500585 0.809957 0.881061 0.108719
C266  C     C_R   0.805367 0.877488 0.512235 0.107566
C267  C     C_R   0.875525 0.517593 0.803907 0.107212
C268  C     C_R   0.803385 0.804067 0.517192 0.044861
C269  C     C_R   0.502542 0.809301 0.808430 0.039852
C270  C     C_R   0.802842 0.519497 0.803198 0.043041
C271  C     C_R   0.853645 0.853732 0.510606 -0.167198
C272  C     C_R   0.498782 0.858267 0.857579 -0.177340
C273  C     C_R   0.850746 0.519594 0.850958 -0.179315
H136  H     H_    0.873373 0.873246 0.506808 0.135883
H137  H     H_    0.497117 0.877148 0.876645 0.130603
H138  H     H_    0.869398 0.519107 0.869505 0.130140
C274  C     C_R   0.780328 0.852188 0.516276 -0.116490
C275  C     C_R   0.503480 0.785485 0.855909 -0.097585
C276  C     C_R   0.850904 0.518867 0.779892 -0.115769
C277  C     C_R   0.499804 0.857967 0.785793 -0.110924
C278  C     C_R   0.851620 0.780730 0.516002 -0.115406
C279  C     C_R   0.778950 0.520490 0.850717 -0.107405
H139  H     H_    0.742809 0.870238 0.518389 0.141474
H140  H     H_    0.506474 0.747740 0.873474 0.143451
H141  H     H_    0.869474 0.519037 0.742984 0.135104
H142  H     H_    0.497782 0.877089 0.749662 0.137683
H143  H     H_    0.869886 0.743677 0.516642 0.141050
H144  H     H_    0.742426 0.519504 0.869645 0.138136
C280  C     C_R   0.943135 0.782582 0.540423 -0.224821
C281  C     C_R   0.459765 0.967038 0.810200 -0.219109
C282  C     C_R   0.800756 0.486772 0.959401 -0.221342
C283  C     C_R   0.532390 0.786212 0.944732 -0.200266
C284  C     C_R   0.782828 0.943246 0.540662 -0.212383
C285  C     C_R   0.942058 0.546028 0.779619 -0.221320
C286  C     C_R   0.990868 0.759066 0.539794 -0.168540
C287  C     C_R   0.454211 0.016091 0.788374 -0.169072
C288  C     C_R   0.778122 0.483605 0.007814 -0.164174
C289  C     C_R   0.533901 0.761775 0.991709 -0.162612
C290  C     C_R   0.759065 0.990842 0.540401 -0.157282
C291  C     C_R   0.990079 0.544567 0.756312 -0.174670
C292  C     C_R   0.025283 0.733122 0.508012 0.043603
C293  C     C_R   0.483824 0.033533 0.741212 0.042712
C294  C     C_R   0.731051 0.514277 0.023675 0.041558
C295  C     C_R   0.503081 0.734947 0.026875 0.043369
C296  C     C_R   0.732562 0.025226 0.509108 0.043691
C297  C     C_R   0.024427 0.511276 0.732099 0.043365
C298  C     C_R   0.011223 0.731658 0.476385 -0.224517
C299  C     C_R   0.519721 0.000909 0.716514 -0.233671
C300  C     C_R   0.707201 0.548756 0.990013 -0.237455
C301  C     C_R   0.470264 0.733486 0.014379 -0.217711
C302  C     C_R   0.730826 0.011299 0.477558 -0.217863
C303  C     C_R   0.010070 0.478945 0.732227 -0.226502
C304  C     C_R   0.963617 0.756203 0.475697 0.343216
C305  C     C_R   0.526708 0.951209 0.738500 0.346799
C306  C     C_R   0.730065 0.553351 0.940768 0.347864
C307  C     C_R   0.467431 0.758907 0.967598 0.348009
C308  C     C_R   0.755596 0.963851 0.476490 0.350221
C309  C     C_R   0.962224 0.478973 0.756751 0.346294
C310  C     C_R   0.928744 0.781317 0.508867 -0.011475
C311  C     C_R   0.495629 0.934040 0.785779 -0.015172
C312  C     C_R   0.777310 0.521219 0.925298 -0.015092
C313  C     C_R   0.499591 0.784989 0.931924 -0.013457
C314  C     C_R   0.781245 0.928981 0.509212 -0.008597
C315  C     C_R   0.927343 0.513709 0.780017 -0.012989
H145  H     H_    0.000759 0.760499 0.564736 0.139148
H146  H     H_    0.426182 0.040610 0.808065 0.144945
H147  H     H_    0.797104 0.456399 0.033167 0.150341
H148  H     H_    0.559712 0.763227 0.000420 0.141204
H149  H     H_    0.760750 0.000649 0.565247 0.140608
H150  H     H_    0.000278 0.570016 0.756524 0.137010
H151  H     H_    0.037967 0.712949 0.450690 0.180318
H152  H     H_    0.543735 0.014003 0.680623 0.173949
H153  H     H_    0.671287 0.573387 0.001896 0.171968
H154  H     H_    0.445308 0.714077 0.041774 0.178550
H155  H     H_    0.711713 0.038046 0.452205 0.178687
H156  H     H_    0.036773 0.452149 0.714861 0.179060
H157  H     H_    0.917097 0.801419 0.566144 0.150413
H158  H     H_    0.435418 0.954862 0.846197 0.161906
H159  H     H_    0.836601 0.461530 0.948658 0.162331
H160  H     H_    0.557430 0.805704 0.918030 0.161277
H161  H     H_    0.802051 0.917206 0.566054 0.150767
H162  H     H_    0.916093 0.572961 0.796977 0.156301
C316  C     C_R   0.783276 0.730314 0.544271 -0.156866
C317  C     C_R   0.531546 0.789594 0.734096 -0.145594
C318  C     C_R   0.729457 0.545089 0.783235 -0.151524
C319  C     C_R   0.476125 0.752766 0.807455 -0.149068
C320  C     C_R   0.748853 0.804175 0.487515 -0.126160
C321  C     C_R   0.803547 0.487744 0.749903 -0.150731
C322  C     C_R   0.760203 0.706962 0.542459 -0.163137
C323  C     C_R   0.532227 0.765335 0.710285 -0.174394
C324  C     C_R   0.706496 0.542799 0.760119 -0.174090
C325  C     C_R   0.476685 0.728657 0.783648 -0.167438
C326  C     C_R   0.725859 0.780882 0.485696 -0.166725
C327  C     C_R   0.780633 0.485493 0.726799 -0.170075
C328  C     C_R   0.731258 0.731990 0.513082 0.099712
C329  C     C_R   0.504747 0.734600 0.734772 0.101815
C330  C     C_R   0.731831 0.512957 0.731617 0.101021
C331  C     C_R   0.777882 0.779214 0.516767 0.107255
C332  C     C_R   0.503500 0.783547 0.782971 0.092552
C333  C     C_R   0.778284 0.517577 0.778392 0.090882
H163  H     H_    0.764599 0.669438 0.564441 0.130194
H164  H     H_    0.554737 0.770194 0.672828 0.134715
H165  H     H_    0.669041 0.564867 0.764054 0.135430
H166  H     H_    0.454359 0.706035 0.803335 0.141069
H167  H     H_    0.704621 0.800963 0.461976 0.145881
H168  H     H_    0.800934 0.461469 0.705870 0.142315
H169  H     H_    0.804992 0.710225 0.567532 0.131799
H170  H     H_    0.553496 0.812592 0.714448 0.168122
H171  H     H_    0.709156 0.568880 0.804416 0.166527
H172  H     H_    0.453520 0.747995 0.844888 0.171140
H173  H     H_    0.744771 0.841557 0.465089 0.176124
H174  H     H_    0.840905 0.465370 0.746168 0.173615
C334  C     C_R   0.109085 0.180895 0.528933 0.064720
C335  C     C_R   0.500887 0.118453 0.189808 0.066103
C336  C     C_R   0.181002 0.529086 0.108925 0.064968
C337  C     C_R   0.506968 0.188312 0.115948 0.064382
C338  C     C_R   0.181181 0.108896 0.528812 0.064078
C339  C     C_R   0.108972 0.528953 0.181000 0.063351
C340  C     C_R   0.183046 0.182763 0.523019 0.065915
C341  C     C_R   0.500979 0.190427 0.189765 0.064523
C342  C     C_R   0.182881 0.523098 0.182888 0.066664
C343  C     C_R   0.134502 0.205661 0.525187 -0.200314
C344  C     C_R   0.499031 0.143349 0.213902 -0.201761
C345  C     C_R   0.205791 0.525310 0.134344 -0.201212
C346  C     C_R   0.504865 0.212642 0.140826 -0.196644
C347  C     C_R   0.205985 0.134279 0.525073 -0.199258
C348  C     C_R   0.134372 0.525169 0.205806 -0.196355
H175  H     H_    0.116884 0.243345 0.522384 0.127125
H176  H     H_    0.494976 0.126401 0.251908 0.127067
H177  H     H_    0.243492 0.522515 0.116733 0.126224
H178  H     H_    0.507709 0.248443 0.121700 0.128859
H179  H     H_    0.243342 0.116302 0.523485 0.125760
H180  H     H_    0.116385 0.523559 0.243155 0.127760
C349  C     C_R   0.132764 0.132540 0.530709 -0.199332
C350  C     C_R   0.504782 0.141247 0.140843 -0.200866
C351  C     C_R   0.132617 0.530875 0.132598 -0.197532
H181  H     H_    0.113128 0.112916 0.534570 0.127356
H182  H     H_    0.506271 0.122228 0.122047 0.124367
H183  H     H_    0.112969 0.534764 0.112971 0.128241
C352  C     C_R   0.024882 0.236218 0.557908 -0.168624
C353  C     C_R   0.525699 0.034816 0.247281 -0.171635
C354  C     C_R   0.236313 0.558083 0.024721 -0.167518
C355  C     C_R   0.485637 0.260969 0.046167 -0.174831
C356  C     C_R   0.236237 0.024642 0.558081 -0.170119
C357  C     C_R   0.024704 0.558190 0.236077 -0.165772
C358  C     C_R   0.976953 0.259624 0.558810 -0.170248
C359  C     C_R   0.524201 0.987815 0.271806 -0.166070
C360  C     C_R   0.259644 0.559046 0.976788 -0.170785
C361  C     C_R   0.490161 0.283344 0.997318 -0.170368
C362  C     C_R   0.259565 0.976719 0.559046 -0.172096
C363  C     C_R   0.976777 0.559101 0.259463 -0.168212
C364  C     C_R   0.961176 0.253170 0.531858 0.106871
C365  C     C_R   0.495893 0.973431 0.265630 0.108040
C366  C     C_R   0.253117 0.532143 0.961016 0.105973
C367  C     C_R   0.521021 0.257302 0.964989 0.106758
C368  C     C_R   0.253208 0.961004 0.531975 0.107577
C369  C     C_R   0.961064 0.532002 0.253142 0.106759
C370  C     C_R   0.994511 0.222708 0.504041 -0.172216
C371  C     C_R   0.469128 0.007242 0.234264 -0.177254
C372  C     C_R   0.222653 0.504319 0.994366 -0.171309
C373  C     C_R   0.547206 0.208286 0.982729 -0.173851
C374  C     C_R   0.222916 0.994383 0.503983 -0.173270
C375  C     C_R   0.994439 0.504040 0.222828 -0.172365
C376  C     C_R   0.042307 0.199189 0.503308 -0.174021
C377  C     C_R   0.470767 0.054257 0.209582 -0.173302
C378  C     C_R   0.199208 0.503528 0.042162 -0.174912
C379  C     C_R   0.542682 0.185882 0.031642 -0.169933
C380  C     C_R   0.199483 0.042177 0.503176 -0.174767
C381  C     C_R   0.042237 0.503287 0.199338 -0.174767
N4    N     N_R   0.952087 0.756990 0.439825 0.110986
O97   O     O_R   0.974106 0.720141 0.425005 -0.355082
O98   O     O_R   0.924548 0.796561 0.417318 -0.311817
N5    N     N_R   0.566603 0.918840 0.713215 0.103122
O99   O     O_R   0.592349 0.877698 0.736168 -0.353786
O100  O     O_R   0.581369 0.933079 0.666323 -0.369036
N6    N     N_R   0.705666 0.591842 0.907098 0.104067
O101  O     O_R   0.729499 0.615731 0.865037 -0.356901
O102  O     O_R   0.658760 0.607406 0.920697 -0.366595
N7    N     N_R   0.430490 0.759503 0.957742 0.104091
O103  O     O_R   0.406608 0.799173 0.931532 -0.357573
O104  O     O_R   0.416154 0.722303 0.980147 -0.362284
N8    N     N_R   0.756023 0.952473 0.440707 0.103948
O105  O     O_R   0.795476 0.925062 0.417954 -0.323959
O106  O     O_R   0.718998 0.974587 0.426133 -0.361001
N9    N     N_R   0.950445 0.442220 0.759498 0.102804
O107  O     O_R   0.922672 0.420678 0.799793 -0.355896
O108  O     O_R   0.972670 0.425511 0.723944 -0.368562

loop_
_geom_bond_atom_site_label_1
_geom_bond_atom_site_label_2
_geom_bond_distance
_ccdc_geom_bond_type
C53   H17   1.083601 S    
O40   Cu10  1.999021 S    
C176  C292  1.484539 S    
O69   Cu24  2.018314 S    
C325  H166  1.082708 S    
C121  C127  1.405429 A    
C275  H140  1.083538 S    
C147  C210  1.405682 A    
O11   Cu16  2.015097 S    
C122  C192  1.397400 A    
O74   C134  1.330711 S    
C309  N9    1.438539 S    
C58   C334  1.487016 S    
C88   C94   1.405240 A    
C117  C123  1.471227 S    
O47   C83   1.324089 S    
C24   C30   1.470782 S    
C34   C186  1.410294 A    
C285  C291  1.397363 A    
O29   C41   1.340645 S    
O20   Cu17  2.013305 S    
Cu10  Cu16  2.693851 S    
C339  C348  1.405212 A    
C73   C229  1.406745 A    
O47   Cu17  2.016055 S    
C48   C54   1.405421 A    
C303  H156  1.083440 S    
C150  C209  1.404082 A    
O92   C212  1.330803 S    
C54   C177  1.402062 A    
C267  C315  1.488495 S    
C80   C86   1.467914 S    
C289  C295  1.401723 A    
C248  C254  1.400708 A    
C33   C186  1.410151 A    
O66   C120  1.330641 S    
C93   C195  1.405467 A    
C206  H101  1.083655 S    
C246  C252  1.399167 A    
N6    O101  1.301371 A    
O32   C38   1.330553 S    
O89   Cu21  1.998272 S    
C36   H12   1.082229 S    
H19   C352  1.082920 S    
C168  C234  1.485926 S    
C266  C271  1.403540 A    
C72   H120  1.082889 S    
C4    C10   1.469852 S    
C160  C164  1.406626 A    
C296  C302  1.403789 A    
C25   C181  1.394698 A    
C155  C161  1.399029 A    
C268  C278  1.406150 A    
O1    Cu9   1.999290 S    
O63   C117  1.330838 S    
C255  H129  1.081875 S    
C320  C326  1.396761 A    
C242  C260  1.484807 S    
C23   C29   1.472566 S    
O23   C23   1.331681 S    
C334  C343  1.405225 A    
C184  C256  1.500430 S    
O83   C137  1.335206 S    
O93   C213  1.330713 S    
C198  C366  1.489810 S    
O49   Cu1   2.002172 S    
C115  C121  1.470299 S    
O37   Cu7   1.998864 S    
C249  H135  1.083101 S    
O85   C211  1.339745 S    
C140  C206  1.395405 A    
O6    C6    1.340385 S    
C55   C155  1.406547 A    
C90   C96   1.405265 A    
C244  C259  1.404880 A    
C141  C207  1.399154 A    
C56   C154  1.405448 A    
H31   C151  1.082872 S    
C102  C108  1.467724 S    
C178  C297  1.484110 S    
C172  H85   1.083428 S    
C123  C129  1.406737 A    
C138  C144  1.466658 S    
N9    O107  1.301413 A    
C191  H95   1.083478 S    
C14   C176  1.404630 A    
C317  C332  1.405798 A    
O50   Cu2   2.002014 S    
C350  H182  1.083118 S    
C341  C344  1.404226 A    
O81   Cu17  2.013683 S    
C156  C162  1.399050 A    
C247  H133  1.083063 S    
C327  C330  1.405720 A    
C361  C367  1.406256 A    
C13   C175  1.404650 A    
C316  C322  1.400689 A    
C83   C89   1.470463 S    
C300  C306  1.408529 A    
C346  H178  1.083271 S    
C70   H118  1.082964 S    
C300  H153  1.083412 S    
C47   C169  1.397204 A    
C287  H146  1.083124 S    
C139  C145  1.405699 A    
O37   C79   1.331662 S    
C220  C237  1.396154 A    
C318  C324  1.400345 A    
O51   Cu3   2.001089 S    
C289  H148  1.083124 S    
C319  H172  1.083047 S    
C324  C330  1.406643 A    
C322  H163  1.082847 S    
O53   Cu1   2.001057 S    
C283  H160  1.083295 S    
C326  C328  1.405716 A    
H37   C376  1.082978 S    
C250  H124  1.082038 S    
C135  C141  1.472682 S    
C305  C311  1.419297 A    
C265  C313  1.485815 S    
C26   C32   1.407375 A    
H40   C379  1.082762 S    
C246  C261  1.404317 A    
C125  C131  1.406557 A    
H20   C353  1.082996 S    
C357  C363  1.399606 A    
O42   Cu12  1.998862 S    
O31   C37   1.329035 S    
C77   C231  1.406629 A    
C186  C258  1.501224 S    
Cu3   Cu6   2.693021 S    
O20   C20   1.330873 S    
C17   H5    1.083481 S    
C132  H69   1.083187 S    
C59   C335  1.485720 S    
C122  C128  1.406699 A    
C62   C380  1.404967 A    
C146  H71   1.083155 S    
C342  C348  1.406294 A    
C149  H74   1.083069 S    
C108  C199  1.395722 A    
C183  H90   1.083456 S    
C293  C299  1.404075 A    
O88   C214  1.339638 S    
C35   C185  1.409888 A    
C110  H53   1.083116 S    
C52   H16   1.083573 S    
C262  C271  1.404221 A    
C55   C340  1.487995 S    
O62   Cu20  2.000391 S    
C18   H6    1.083494 S    
C249  C255  1.400007 A    
C285  H162  1.083235 S    
O9    C3    1.319249 S    
O10   C4    1.332463 S    
C61   C355  1.405294 A    
C111  C204  1.404495 A    
C70   C232  1.405208 A    
C269  C332  1.486802 S    
H27   C159  1.082800 S    
C171  H84   1.083694 S    
C69   C234  1.404940 A    
C318  H171  1.082899 S    
O90   C216  1.339874 S    
C317  H170  1.083012 S    
C226  H106  1.083274 S    
C243  N1    1.361664 A    
O2    C2    1.340441 S    
C295  C301  1.403652 A    
H38   C377  1.082890 S    
N5    O99   1.301394 A    
O59   C101  1.327562 S    
C301  H154  1.083367 S    
O7    C1    1.331083 S    
C58   C376  1.404982 A    
C163  C204  1.487832 S    
O63   Cu21  2.001338 S    
H42   C381  1.083004 S    
C213  C219  1.469648 S    
C247  C261  1.404774 A    
C103  C109  1.405844 A    
C218  C224  1.406325 A    
C235  H121  1.083565 S    
O88   Cu19  1.997349 S    
C106  C112  1.405982 A    
O15   C21   1.341918 S    
O59   Cu4   2.018550 S    
O43   C79   1.323971 S    
C112  C204  1.404205 A    
C169  H82   1.083412 S    
C375  C381  1.397288 A    
C209  C230  1.488053 S    
O42   C84   1.331540 S    
C370  C376  1.397456 A    
C224  C239  1.405894 A    
O74   Cu12  1.997034 S    
O40   C82   1.339423 S    
H58   C358  1.082713 S    
O3    Cu8   1.999451 S    
C291  H150  1.083217 S    
Cu11  Cu17  2.693310 S    
O96   C216  1.329418 S    
C15   H3    1.083490 S    
C305  N5    1.438895 S    
O45   C81   1.324158 S    
C142  C205  1.397349 A    
C136  C142  1.470848 S    
C285  C315  1.406666 A    
C125  C189  1.397640 A    
C219  C237  1.396450 A    
C129  C197  1.406090 A    
C137  C143  1.472841 S    
C334  C349  1.405145 A    
C11   C17   1.405975 A    
C282  H159  1.083260 S    
O34   Cu5   2.014470 S    
C63   C357  1.405879 A    
O4    Cu12  1.999077 S    
C33   H9    1.082112 S    
H25   C157  1.082802 S    
C99   C105  1.465644 S    
N7    O104  1.301347 A    
O76   C136  1.342707 S    
C290  C296  1.401931 A    
C291  C297  1.401752 A    
C265  C275  1.404227 A    
O61   Cu19  2.001279 S    
C253  H127  1.081917 S    
C243  N3    1.360699 A    
C189  H93   1.083475 S    
C263  C311  1.487555 S    
O84   Cu14  2.013014 S    
C10   C172  1.397626 A    
C17   C179  1.403853 A    
C106  C201  1.393944 A    
O56   Cu5   2.019299 S    
C157  C163  1.406219 A    
C120  C126  1.467313 S    
C51   C180  1.404340 A    
C340  C343  1.406553 A    
O81   C135  1.335944 S    
O73   C133  1.339499 S    
C131  C195  1.405936 A    
C321  C327  1.397777 A    
O93   Cu24  2.015664 S    
C364  C370  1.406776 A    
C82   C88   1.468929 S    
O8    Cu13  2.014949 S    
H63   C363  1.082733 S    
C65   C167  1.406325 A    
N4    O98   1.301564 A    
O95   Cu24  2.015452 S    
O87   Cu21  1.998443 S    
C228  H108  1.083135 S    
C262  C310  1.486559 S    
C356  C362  1.399707 A    
C255  C256  1.409398 A    
C227  H107  1.083259 S    
C9    C171  1.395532 A    
C318  C333  1.406475 A    
C67   C232  1.405705 A    
C107  C200  1.394012 A    
O36   C42   1.318107 S    
H24   C357  1.082871 S    
C66   H45   1.083397 S    
C369  C375  1.406680 A    
C320  C331  1.405763 A    
C367  C373  1.405616 A    
C26   C182  1.395509 A    
C27   C33   1.406635 A    
C28   C34   1.408631 A    
O52   Cu2   2.002185 S    
O35   C41   1.331715 S    
C40   C46   1.467974 S    
O30   Cu3   1.997510 S    
O14   C20   1.341590 S    
H39   C378  1.082980 S    
H33   C153  1.082876 S    
H34   C154  1.082961 S    
C29   C182  1.395657 A    
C228  C238  1.405640 A    
C59   C353  1.405096 A    
H78   C372  1.082656 S    
O22   Cu15  2.013511 S    
C227  C239  1.406166 A    
C288  C294  1.401021 A    
C287  C293  1.400598 A    
H76   C370  1.082677 S    
C294  C300  1.403877 A    
C338  C349  1.405217 A    
C20   C26   1.471298 S    
C7    C169  1.396922 A    
C134  C140  1.467831 S    
N8    O105  1.301426 A    
C268  C274  1.406103 A    
O49   C97   1.339996 S    
C34   H10   1.082065 S    
C360  C366  1.406706 A    
C343  H175  1.083232 S    
O45   Cu15  2.016043 S    
C324  H165  1.082859 S    
C31   H7    1.082152 S    
C64   C166  1.405363 A    
C268  C331  1.488202 S    
C46   C52   1.404861 A    
C182  H89   1.083503 S    
C326  H167  1.082794 S    
O75   Cu11  1.996758 S    
C84   C90   1.470626 S    
O86   C212  1.340401 S    
C63   C339  1.486536 S    
C109  H52   1.083053 S    
C89   C95   1.404998 A    
C55   C151  1.405536 A    
O17   C23   1.342981 S    
C170  H83   1.083483 S    
C87   C93   1.404813 A    
C307  N7    1.438783 S    
C158  C164  1.406362 A    
O27   C39   1.342079 S    
C269  C275  1.405293 A    
C366  C372  1.406757 A    
O9    Cu14  2.015081 S    
C252  H126  1.081728 S    
C368  C374  1.406678 A    
C62   C338  1.486797 S    
O64   C118  1.331474 S    
C95   C197  1.405662 A    
O7    Cu15  2.014736 S    
C81   C87   1.470389 S    
C337  C346  1.406436 A    
C241  C259  1.485904 S    
C62   C356  1.405879 A    
C49   C179  1.403463 A    
C129  H66   1.083054 S    
O72   C120  1.320371 S    
C345  H177  1.083228 S    
C196  C365  1.487814 S    
C15   C177  1.403278 A    
C286  C292  1.401799 A    
Cu20  Cu23  2.692912 S    
C42   C48   1.465308 S    
C144  C206  1.395190 A    
C108  C114  1.405086 A    
C74   H110  1.082838 S    
H80   C374  1.082688 S    
O84   C138  1.319625 S    
H26   C158  1.082686 S    
H62   C362  1.082726 S    
C254  C257  1.409736 A    
C133  C139  1.469722 S    
C290  H149  1.083118 S    
C166  C232  1.486688 S    
C342  C345  1.406745 A    
C52   C176  1.403850 A    
C316  C331  1.406483 A    
C36   C184  1.409912 A    
C29   C35   1.408195 A    
C7    C13   1.405220 A    
C321  H174  1.082919 S    
C340  C347  1.406470 A    
C217  C223  1.406270 A    
C281  H158  1.083242 S    
O33   Cu6   2.013371 S    
O34   C40   1.329820 S    
C25   C31   1.408084 A    
O35   Cu4   2.013335 S    
C302  H155  1.083358 S    
C32   H8    1.082126 S    
C16   C178  1.404507 A    
C323  H164  1.082775 S    
C78   C230  1.406460 A    
C280  C286  1.396586 A    
Cu1   Cu4   2.692912 S    
N6    O102  1.301434 A    
C60   C378  1.405035 A    
O14   Cu11  1.996564 S    
C151  C157  1.398007 A    
C69   H117  1.083008 S    
C128  H65   1.083051 S    
O1    C1    1.339634 S    
C179  C295  1.483721 S    
C253  C258  1.410763 A    
C254  H128  1.081885 S    
C45   C174  1.398258 A    
O48   C84   1.323606 S    
C161  C163  1.405691 A    
C337  C350  1.406407 A    
O94   C214  1.331969 S    
C241  N1    1.362056 A    
C94   H49   1.083110 S    
O57   Cu6   2.018625 S    
N5    O100  1.301418 A    
C174  H87   1.083415 S    
C65   H44   1.083123 S    
C250  C256  1.410263 A    
C266  C314  1.486606 S    
O28   Cu2   1.997569 S    
C92   C194  1.404541 A    
C270  C279  1.406962 A    
C298  H151  1.083386 S    
O78   Cu8   1.996177 S    
C177  C293  1.483498 S    
O41   Cu11  1.998645 S    
C249  C259  1.404701 A    
C272  H137  1.083757 S    
C281  C287  1.396261 A    
O48   Cu18  2.015832 S    
C64   H43   1.083229 S    
Cu2   Cu5   2.691756 S    
C284  H161  1.083332 S    
O43   Cu13  2.015830 S    
C319  C332  1.405411 A    
C284  C314  1.405987 A    
C221  C227  1.405572 A    
C76   H112  1.082693 S    
O30   C42   1.329510 S    
C109  C202  1.405156 A    
C277  H142  1.083423 S    
O21   Cu16  2.012754 S    
C114  C202  1.405264 A    
C266  C274  1.404623 A    
C67   C73   1.399402 A    
C68   C233  1.406742 A    
O21   C21   1.332245 S    
C244  C250  1.402024 A    
C70   C76   1.397525 A    
C288  H147  1.083152 S    
O16   C22   1.340906 S    
C339  C351  1.405112 A    
H29   C161  1.082864 S    
C242  N2    1.360009 A    
C193  C368  1.489276 S    
C281  C311  1.406974 A    
O5    C5    1.340257 S    
C57   C153  1.405394 A    
C280  C310  1.406119 A    
C12   C18   1.405749 A    
C347  H179  1.083098 S    
C149  C210  1.405587 A    
C104  C110  1.407191 A    
C215  C221  1.468739 S    
C271  H136  1.083871 S    
C143  C207  1.399317 A    
C78   H114  1.082802 S    
C245  C251  1.400961 A    
C50   C178  1.404242 A    
C76   C229  1.406350 A    
C77   H113  1.082749 S    
H61   C361  1.082808 S    
C226  C240  1.405607 A    
C154  C160  1.399048 A    
O66   Cu20  2.001403 S    
O73   Cu10  1.996224 S    
C30   C36   1.407519 A    
C72   C233  1.405291 A    
C45   C51   1.405226 A    
O44   C80   1.319749 S    
O23   Cu14  2.012707 S    
C61   C337  1.487522 S    
O68   C116  1.322564 S    
C279  H144  1.083276 S    
C56   C341  1.485642 S    
C248  C260  1.404592 A    
C351  H183  1.083366 S    
C323  C329  1.406841 A    
C354  C360  1.399902 A    
C217  C235  1.395076 A    
Cu9   Cu15  2.693057 S    
C223  H103  1.083086 S    
C10   C16   1.406172 A    
C124  C187  1.397515 A    
C263  C277  1.406299 A    
C92   H47   1.083173 S    
C358  C364  1.406583 A    
C61   C379  1.406575 A    
C65   C168  1.405309 A    
C100  C106  1.465347 S    
C316  H169  1.082751 S    
C1    C7    1.469246 S    
C44   C50   1.405176 A    
C239  C330  1.489025 S    
C2    C8    1.468955 S    
C91   C193  1.405586 A    
C71   C77   1.399241 A    
C21   C27   1.471359 S    
C199  H97   1.083557 S    
H35   C155  1.082765 S    
O24   C24   1.330652 S    
C280  H157  1.083379 S    
C14   H2    1.083483 S    
O2    Cu7   1.999074 S    
C299  C305  1.406292 A    
C325  C329  1.406275 A    
O72   Cu23  2.018310 S    
C114  H57   1.083110 S    
C32   C185  1.409481 A    
O82   C136  1.334210 S    
H60   C360  1.082708 S    
C41   C47   1.469404 S    
C143  C149  1.405806 A    
N9    O108  1.301353 A    
C283  C289  1.396466 A    
C113  H56   1.083184 S    
C49   H13   1.083566 S    
O38   C80   1.331001 S    
O38   Cu8   1.999010 S    
C118  C124  1.470890 S    
O91   Cu22  2.015593 S    
C30   C181  1.394681 A    
C75   C231  1.406394 A    
C126  C188  1.395527 A    
C111  H54   1.083131 S    
C264  C273  1.405596 A    
O86   Cu20  1.997316 S    
C140  C146  1.407316 A    
C208  C229  1.488911 S    
C221  C236  1.395701 A    
C144  C150  1.405424 A    
C5    C11   1.467650 S    
C130  H67   1.083072 S    
C43   C49   1.404924 A    
C317  C323  1.399704 A    
C86   C188  1.395747 A    
O54   C102  1.340190 S    
O33   C39   1.334454 S    
O6    Cu11  1.999301 S    
C297  C303  1.403208 A    
O44   Cu14  2.016198 S    
C219  C225  1.406854 A    
C79   C85   1.470418 S    
C283  C313  1.405984 A    
C175  C294  1.484477 S    
C348  H180  1.083109 S    
H32   C152  1.082998 S    
C6    C12   1.470622 S    
O29   Cu1   1.996622 S    
C71   C234  1.405556 A    
C12   C174  1.398329 A    
O75   C135  1.342102 S    
C147  H72   1.083122 S    
C270  C276  1.406288 A    
O11   C5    1.330245 S    
C97   C103  1.467835 S    
C74   C230  1.405562 A    
C67   H115  1.082938 S    
C251  C257  1.410344 A    
H23   C356  1.082866 S    
C220  C226  1.404291 A    
C8    C170  1.396914 A    
C103  C199  1.395873 A    
Cu7   Cu13  2.693312 S    
O79   Cu16  2.012967 S    
C107  C113  1.405614 A    
C86   C92   1.406926 A    
C153  C159  1.397983 A    
C43   C173  1.395990 A    
H36   C156  1.082763 S    
C173  H86   1.083545 S    
C371  C377  1.399074 A    
C98   C104  1.466098 S    
C307  C313  1.419032 A    
C373  C379  1.399301 A    
O67   Cu22  2.018170 S    
O78   C138  1.330265 S    
O77   Cu9   1.996965 S    
O94   Cu22  2.014783 S    
C355  C361  1.397422 A    
O25   C37   1.338691 S    
C131  H68   1.083077 S    
C132  C194  1.404178 A    
O18   C24   1.341905 S    
C31   C184  1.409508 A    
C28   C183  1.395303 A    
C282  C288  1.394923 A    
O25   Cu1   1.997635 S    
O16   Cu9   1.996724 S    
H28   C160  1.082744 S    
N7    O103  1.301390 A    
O18   Cu7   1.996445 S    
C58   C352  1.405947 A    
C60   C336  1.487157 S    
Cu8   Cu14  2.693856 S    
C188  H92   1.083636 S    
C68   H116  1.082756 S    
H30   C162  1.082855 S    
C240  C328  1.488572 S    
O41   C83   1.331487 S    
C27   C183  1.395158 A    
C194  C367  1.487619 S    
C16   H4    1.083571 S    
O58   C100  1.327333 S    
C242  N3    1.359731 A    
C353  C359  1.397094 A    
C181  H88   1.083512 S    
C145  H70   1.083070 S    
C142  C148  1.405616 A    
H41   C380  1.082994 S    
C262  C278  1.406258 A    
C148  H73   1.083117 S    
H22   C355  1.082896 S    
C211  C217  1.467149 S    
Cu12  Cu18  2.693062 S    
C245  C260  1.404143 A    
C236  H122  1.083458 S    
C112  H55   1.083183 S    
O77   C137  1.342041 S    
C299  H152  1.083452 S    
O91   C211  1.328824 S    
C201  H99   1.083759 S    
C87   C189  1.397395 A    
C265  C272  1.403535 A    
C127  C196  1.405528 A    
O85   Cu19  1.998298 S    
O22   C22   1.329212 S    
C338  C347  1.405444 A    
O31   Cu4   2.014466 S    
C89   C191  1.397274 A    
C105  C201  1.394177 A    
C145  C208  1.405357 A    
C349  H181  1.083362 S    
C336  C345  1.405436 A    
C225  H105  1.083198 S    
O89   C215  1.339847 S    
C223  C238  1.405405 A    
C298  C304  1.405879 A    
O24   Cu13  2.013421 S    
C319  C325  1.397524 A    
O70   Cu22  2.017212 S    
O69   C117  1.322212 S    
C264  C312  1.489219 S    
C278  H143  1.083214 S    
C263  C272  1.404647 A    
C374  C380  1.397403 A    
O27   Cu3   1.996706 S    
C187  H91   1.083480 S    
C306  N6    1.438890 S    
O53   C101  1.339566 S    
O67   C115  1.334379 S    
C164  C202  1.488312 S    
C274  H139  1.083473 S    
C218  C236  1.396052 A    
C71   H119  1.082892 S    
C126  C132  1.405470 A    
C237  H123  1.083433 S    
C127  H64   1.083146 S    
C128  C198  1.406015 A    
C113  C203  1.403965 A    
C150  H75   1.083178 S    
O71   C119  1.322426 S    
C57   C156  1.406654 A    
C88   C190  1.397139 A    
H77   C371  1.082829 S    
C159  C165  1.406360 A    
O60   Cu6   2.019440 S    
C225  C240  1.406312 A    
C39   C45   1.471005 S    
O60   C102  1.330877 S    
C73   H109  1.082793 S    
O13   C19   1.340204 S    
C90   C192  1.397075 A    
N8    O106  1.301368 A    
C167  C233  1.487970 S    
O55   Cu4   2.019571 S    
C96   H51   1.083054 S    
C284  C290  1.396757 A    
O54   Cu3   2.002039 S    
O80   C134  1.318704 S    
O12   Cu17  2.014728 S    
C94   C196  1.404836 A    
C344  H176  1.083421 S    
C64   C167  1.406774 A    
C292  C298  1.404011 A    
C238  C329  1.489119 S    
C35   H11   1.082013 S    
C152  C158  1.397209 A    
O70   C118  1.322974 S    
C205  H100  1.083488 S    
C85   C91   1.405066 A    
H59   C359  1.082728 S    
C54   H18   1.083572 S    
O83   Cu15  2.013845 S    
H79   C373  1.082842 S    
C119  C125  1.471194 S    
O28   C40   1.338757 S    
O52   C100  1.339825 S    
O19   Cu18  2.013584 S    
C210  C231  1.488567 S    
C286  H145  1.083147 S    
O96   Cu23  2.015720 S    
C123  C191  1.397500 A    
C185  C257  1.500730 S    
C95   H50   1.083068 S    
C222  C235  1.394889 A    
O55   C97   1.330121 S    
C200  H98   1.083761 S    
C267  C276  1.404742 A    
C66   C166  1.404694 A    
C320  H173  1.082993 S    
O51   C99   1.339861 S    
O17   Cu8   1.995912 S    
O4    C4    1.340991 S    
C302  C308  1.405820 A    
O79   C133  1.331002 S    
O46   C82   1.331125 S    
C51   H15   1.083573 S    
C246  H132  1.083098 S    
C247  C253  1.402865 A    
O62   C116  1.331256 S    
C335  C344  1.404577 A    
C308  C314  1.419251 A    
C273  H138  1.083675 S    
O50   C98   1.340279 S    
C304  N4    1.438515 S    
Cu21  Cu24  2.691763 S    
C60   C354  1.405913 A    
O19   C19   1.328163 S    
C269  C277  1.406027 A    
O90   Cu20  1.998431 S    
H81   C375  1.082708 S    
C75   H111  1.082689 S    
O65   Cu21  2.001136 S    
C252  C258  1.409481 A    
C365  C371  1.406596 A    
C44   C172  1.397129 A    
C18   C180  1.404487 A    
C359  C365  1.406059 A    
C96   C198  1.405843 A    
C141  C147  1.404923 A    
C124  C130  1.406554 A    
C192  H96   1.083487 S    
O87   C213  1.340412 S    
C306  C312  1.420575 A    
O26   Cu2   1.997365 S    
C207  H102  1.083420 S    
C190  H94   1.083498 S    
C19   C25   1.470539 S    
O46   Cu16  2.016185 S    
O95   C215  1.330446 S    
C148  C208  1.405805 A    
C222  C228  1.405574 A    
O26   C38   1.338997 S    
O82   Cu13  2.013569 S    
C303  C309  1.405811 A    
C57   C342  1.487960 S    
O92   Cu23  2.014704 S    
C68   C74   1.399382 A    
C22   C28   1.471937 S    
C352  C358  1.399794 A    
C130  C193  1.405858 A    
C224  H104  1.083224 S    
N4    O97   1.301850 A    
O15   Cu10  1.995865 S    
C309  C315  1.419846 A    
O58   Cu5   2.019508 S    
C104  C200  1.394112 A    
C9    C15   1.407430 A    
C91   H46   1.083075 S    
O32   Cu5   2.014300 S    
C251  H125  1.081788 S    
O12   C6    1.332590 S    
C243  C261  1.485565 S    
C37   C43   1.466986 S    
C245  H131  1.083118 S    
C214  C220  1.468428 S    
C241  N2    1.361121 A    
O3    C3    1.331761 S    
C72   C78   1.397689 A    
O71   Cu24  2.018146 S    
C165  C203  1.487874 S    
C212  C218  1.468759 S    
C244  H130  1.083062 S    
C363  C369  1.406441 A    
C372  C378  1.397485 A    
C321  C333  1.406305 A    
O80   Cu18  2.013775 S    
O8    C2    1.331169 S    
C13   H1    1.083591 S    
C139  C205  1.397342 A    
O56   C98   1.327006 S    
C335  C350  1.405524 A    
C197  C364  1.489565 S    
O76   Cu7   1.996875 S    
C146  C209  1.404841 A    
C48   C171  1.395124 A    
C162  C165  1.405577 A    
C121  C190  1.397204 A    
C56   C152  1.404939 A    
C327  H168  1.082808 S    
O39   C81   1.331320 S    
C270  C333  1.489180 S    
C336  C351  1.405164 A    
C264  C279  1.406599 A    
O36   Cu6   2.014325 S    
C46   C170  1.396485 A    
O64   Cu19  2.000471 S    
C53   C175  1.404456 A    
C11   C173  1.396357 A    
C216  C222  1.467162 S    
O10   Cu18  2.014941 S    
C38   C44   1.469376 S    
H21   C354  1.082920 S    
C304  C310  1.418985 A    
C267  C273  1.403880 A    
C8    C14   1.406198 A    
C341  C346  1.404807 A    
C50   H14   1.083626 S    
O68   Cu23  2.017180 S    
C282  C312  1.406301 A    
C180  C296  1.484590 S    
C116  C122  1.470979 S    
C301  C307  1.405365 A    
C93   H48   1.083091 S    
C59   C377  1.405508 A    
C105  C111  1.406795 A    
Cu19  Cu22  2.693022 S    
O65   C119  1.330750 S    
C248  H134  1.083084 S    
O39   Cu9   1.998649 S    
C362  C368  1.406538 A    
C276  H141  1.083348 S    
C47   C53   1.406191 A    
O13   Cu12  1.996653 S    
C3    C9    1.467059 S    
C110  C203  1.404735 A    
C308  N8    1.438787 S    
O57   C99   1.327143 S    
C195  C369  1.489001 S    
O5    Cu10  1.999442 S    
C63   C381  1.404889 A    
C66   C168  1.404739 A    
C69   C75   1.397247 A    
O61   C115  1.342708 S    
C85   C187  1.397199 A    
C322  C328  1.406610 A    
C101  C107  1.464939 S    
