data_mof_unit_25491.cif
_audit_creation_date              2012-12-10T18:10:53-0500
_audit_creation_method            fapswitch 2.2
_symmetry_space_group_name_H-M    P1
_symmetry_Int_Tables_number       1
_space_group_crystal_system       triclinic
_cell_length_a                    12.738559
_cell_length_b                    13.16756
_cell_length_c                    15.717503
_cell_angle_alpha                 92.003675
_cell_angle_beta                  101.253446
_cell_angle_gamma                 82.783198
_cell_volume                      2565.06657391

loop_
_atom_site_label
_atom_site_type_symbol
_atom_type_description
_atom_site_fract_x
_atom_site_fract_y
_atom_site_fract_z
_atom_type_partial_charge
C1    C     C_R   0.440333 0.690028 0.483569 0.872976
C2    C     C_3   0.380947 0.547617 0.029115 0.251029
C3    C     C_3   0.494982 0.504607 0.082367 -0.022041
C4    C     C_3   0.529505 0.393150 0.051011 0.304647
C5    C     C_3   0.542115 0.395482 0.955141 -0.413868
C6    C     C_1   0.495847 0.503524 0.174330 0.107005
C7    C     C_1   0.498742 0.498907 0.824619 -0.023887
C8    C     C_1   0.500594 0.498832 0.749630 -0.199090
C9    C     C_R   0.731086 0.052137 0.507533 0.016982
C10   C     C_R   0.595207 0.199862 0.503604 -0.087566
C11   C     C_R   0.298138 0.837234 0.469552 -0.374695
C12   C     C_R   0.500307 0.499665 0.660891 0.883576
C13   C     C_R   0.270199 0.941624 0.482815 0.543645
C14   C     C_R   0.353978 0.003698 0.504562 -0.122920
C15   C     C_R   0.456681 0.968963 0.481655 -0.092573
C16   C     C_R   0.478546 0.866017 0.457645 0.077708
C17   C     C_R   0.539523 0.031649 0.483856 0.060676
C18   C     C_R   0.646500 0.990014 0.478759 0.060162
C19   C     C_R   0.660683 0.891419 0.440784 -0.082806
C20   C     C_R   0.575289 0.832121 0.428490 -0.233837
C21   C     C_R   0.515581 0.136237 0.482936 -0.300392
C22   C     C_R   0.703554 0.157865 0.519808 -0.127338
C23   C     C_R   0.560109 0.309133 0.507488 0.906097
C24   C     C_R   0.404300 0.798449 0.466063 -0.158297
C25   C     C_R   0.111004 0.310962 0.424413 -0.302289
C26   C     C_R   0.798069 0.629204 0.605951 0.508830
C27   C     C_R   0.905216 0.646772 0.638867 0.338186
C28   C     C_R   0.987815 0.589605 0.605425 -0.292175
C29   C     C_R   0.965953 0.519713 0.537085 0.010929
C30   C     C_R   0.858895 0.496032 0.511494 -0.008400
C31   C     C_R   0.048615 0.466177 0.497534 0.004258
C32   C     C_R   0.032209 0.368835 0.461230 0.034950
C33   C     C_R   0.932997 0.333755 0.454290 -0.195943
C34   C     C_R   0.499516 0.500317 0.338993 0.896913
C35   C     C_R   0.844154 0.404302 0.461483 0.013922
C36   C     C_R   0.146464 0.504096 0.492093 -0.013563
C37   C     C_R   0.204859 0.351670 0.418841 0.614675
C38   C     C_3   0.376163 0.527096 0.930294 0.185497
C39   C     C_3   0.570290 0.584194 0.961624 0.354132
C40   C     C_3   0.579914 0.574209 0.063342 -0.323421
C41   C     C_1   0.497754 0.501997 0.249924 -0.161183
C42   C     C_3   0.496074 0.502155 0.916092 0.026694
H1    H     H_    0.378014 0.631838 0.036137 0.199920
H2    H     H_    0.765819 0.207221 0.541038 0.200718
H3    H     H_    0.432859 0.168309 0.464113 0.222368
H4    H     H_    0.239046 0.785786 0.469211 0.219518
H5    H     H_    0.336163 0.598442 0.895645 0.099083
H6    H     H_    0.584773 0.758543 0.395954 0.170620
H7    H     H_    0.920724 0.260691 0.421777 0.191720
H8    H     H_    0.099163 0.234959 0.399250 0.169009
H9    H     H_    0.069622 0.595305 0.637821 0.154842
H10   H     H_    0.660223 0.531716 0.089466 0.188520
H11   H     H_    0.499544 0.334261 0.917887 0.161234
H12   H     H_    0.628509 0.377574 0.950304 0.233667
H13   H     H_    0.464616 0.345830 0.054490 0.070973
N1    N     N_R   0.222200 0.444690 0.455710 -0.178044
N2    N     N_R   0.776960 0.554780 0.543830 -0.192802
O1    O     O_R   0.366740 0.627160 0.478850 -0.633655
O2    O     O_R   0.544830 0.662520 0.507140 -0.608667
O3    O     O_R   0.410920 0.482310 0.608710 -0.651115
O4    O     O_R   0.589010 0.517670 0.637000 -0.546029
O5    O     O_R   0.455170 0.337480 0.492860 -0.569115
O6    O     O_R   0.633260 0.372840 0.521150 -0.602106
O7    O     O_R   0.410990 0.482330 0.363000 -0.598176
O8    O     O_R   0.589080 0.517690 0.391290 -0.644294
Zn1   Zn    Zn3+2 0.381090 0.476390 0.481110 0.971815
Zn2   Zn    Zn3+2 0.618910 0.523610 0.518890 0.979356
O9    O     O_3   0.314784 0.444580 0.903994 -0.635359
C43   C     C_3   0.276748 0.438871 0.813501 0.112483
H14   H     H_    0.336453 0.386858 0.784698 0.169035
H15   H     H_    0.263125 0.514445 0.780818 0.107659
C44   C     C_3   0.170291 0.392617 0.796628 -0.385275
H16   H     H_    0.175820 0.327443 0.841025 0.237558
H17   H     H_    0.104655 0.451763 0.809366 0.225336
C45   C     C_3   0.143268 0.353524 0.703443 -0.849944
H18   H     H_    0.152530 0.412700 0.658138 0.249752
H19   H     H_    0.058997 0.334723 0.688582 0.277541
H20   H     H_    0.198580 0.283625 0.694097 0.292197
O10   O     O_3   0.285805 0.530862 0.059555 -0.588929
C46   C     C_3   0.276017 0.429017 0.080058 0.190699
H21   H     H_    0.332718 0.404567 0.140525 0.064924
H22   H     H_    0.288914 0.372928 0.028076 0.173859
C47   C     C_3   0.162024 0.424735 0.096192 -0.379214
H23   H     H_    0.156249 0.348077 0.120881 0.164897
H24   H     H_    0.144716 0.482785 0.146290 0.228668
C48   C     C_3   0.077115 0.443740 0.013519 -0.782817
H25   H     H_    0.083734 0.517388 0.983907 0.296437
H26   H     H_    0.995547 0.446560 0.029288 0.231860
H27   H     H_    0.087305 0.380638 0.966049 0.238433
O11   O     O_3   0.628061 0.351111 0.103999 -0.634795
C49   C     C_3   0.639229 0.242594 0.103252 0.080452
H28   H     H_    0.726887 0.215120 0.116082 0.174369
H29   H     H_    0.604626 0.209815 0.039027 0.121218
C50   C     C_3   0.589071 0.203188 0.174913 -0.390535
H30   H     H_    0.622108 0.238675 0.237670 0.288235
H31   H     H_    0.500589 0.225161 0.161043 0.202592
C51   C     C_3   0.612210 0.087014 0.182920 -0.852140
H32   H     H_    0.577585 0.049490 0.121207 0.260456
H33   H     H_    0.575086 0.061481 0.235588 0.280044
H34   H     H_    0.700526 0.063088 0.199019 0.276529
C52   C     C_2   0.755533 0.851445 0.402642 0.349383
H35   H     H_    0.778586 0.769398 0.399001 0.071720
O12   O     O_2   0.804706 0.908832 0.370351 -0.586089
C53   C     C_2   0.845197 0.007717 0.536174 0.410882
H36   H     H_    0.866260 0.925803 0.543614 0.042146
O13   O     O_2   0.917102 0.062550 0.554493 -0.562158
C54   C     C_2   0.338074 0.093961 0.562780 0.441489
H37   H     H_    0.406796 0.119392 0.606744 0.043645
O14   O     O_2   0.248939 0.140442 0.562955 -0.515842
O15   O     O_3   0.165353 0.980886 0.488798 -0.583122
C55   C     C_3   0.089784 0.957105 0.413909 0.162246
H38   H     H_    0.009594 0.994488 0.422806 0.232479
H39   H     H_    0.082797 0.873831 0.408222 0.167120
C56   C     C_3   0.113009 0.997633 0.329465 -0.450724
H40   H     H_    0.131441 0.077673 0.339276 0.233721
H41   H     H_    0.184230 0.950678 0.311277 0.228076
C57   C     C_3   0.016993 0.993814 0.254752 -0.877026
H42   H     H_    0.997331 0.914013 0.243472 0.280596
H43   H     H_    0.037051 0.021662 0.194680 0.254560
H44   H     H_    0.945411 0.043505 0.269448 0.275215
O16   O     O_3   0.286991 0.291742 0.388727 -0.619921
C58   C     C_3   0.257797 0.271868 0.298937 0.020670
H45   H     H_    0.271709 0.338468 0.263038 0.153594
H46   H     H_    0.172062 0.257721 0.278125 0.116884
C59   C     C_3   0.329660 0.176959 0.276079 -0.323917
H47   H     H_    0.415114 0.192576 0.289889 0.233919
H48   H     H_    0.322467 0.112138 0.317201 0.229359
C60   C     C_3   0.298217 0.145774 0.180999 -0.963114
H49   H     H_    0.213571 0.127904 0.166474 0.270233
H50   H     H_    0.351876 0.076479 0.167334 0.288273
H51   H     H_    0.306877 0.208079 0.138098 0.241542
C61   C     C_2   0.165010 0.609514 0.517868 0.400346
H52   H     H_    0.234272 0.624124 0.566682 0.091706
O17   O     O_2   0.099684 0.680964 0.486992 -0.629911
O18   O     O_3   0.715950 0.672490 0.647108 -0.600728
C62   C     C_3   0.701555 0.780878 0.642352 0.141878
H53   H     H_    0.621746 0.804183 0.601792 0.174591
H54   H     H_    0.762162 0.814022 0.612704 0.083174
C63   C     C_3   0.699271 0.828257 0.732287 -0.342954
H55   H     H_    0.636933 0.796739 0.760636 0.217418
H56   H     H_    0.778504 0.809126 0.775801 0.259599
C64   C     C_3   0.673522 0.944571 0.727262 -0.976109
H57   H     H_    0.735941 0.977890 0.700414 0.263346
H58   H     H_    0.672156 0.976949 0.793266 0.270713
H59   H     H_    0.593323 0.966155 0.685412 0.263678
O19   O     O_3   0.928335 0.709853 0.711021 -0.652360
C65   C     C_3   0.994368 0.784256 0.696593 0.059044
H60   H     H_    0.952673 0.860975 0.709266 0.161897
H61   H     H_    0.007825 0.786121 0.628540 0.169708
C66   C     C_3   0.102565 0.768724 0.760240 -0.356179
H62   H     H_    0.089141 0.786568 0.827190 0.230815
H63   H     H_    0.139071 0.687760 0.758519 0.210930
C67   C     C_3   0.181507 0.837449 0.738580 -0.878816
H64   H     H_    0.147405 0.919196 0.740665 0.283368
H65   H     H_    0.199073 0.818335 0.672945 0.268703
H66   H     H_    0.258259 0.825617 0.786695 0.270591
C68   C     C_2   0.758885 0.397003 0.385803 0.485196
H67   H     H_    0.742988 0.456967 0.337677 0.064326
O20   O     O_2   0.713951 0.319909 0.371399 -0.621145
O21   O     O_3   0.673708 0.557198 0.938729 -0.642667
C69   C     C_3   0.750981 0.624447 0.971988 0.028934
H68   H     H_    0.795792 0.597704 0.036785 0.144237
H69   H     H_    0.715319 0.705171 0.978314 0.131403
C70   C     C_3   0.830631 0.621602 0.910552 -0.284972
H70   H     H_    0.871902 0.542521 0.907033 0.228141
H71   H     H_    0.786030 0.642902 0.844352 0.254864
C71   C     C_3   0.914625 0.694870 0.940465 -0.954183
H72   H     H_    0.973774 0.687244 0.896637 0.289421
H73   H     H_    0.958327 0.676651 0.007530 0.269487
H74   H     H_    0.875296 0.775186 0.938706 0.262352
C72   C     C_2   0.521126 0.689358 0.922904 0.240657
H75   H     H_    0.538854 0.710033 0.861417 0.104504
O22   O     O_2   0.460073 0.749187 0.956880 -0.593068
C73   C     C_2   0.583449 0.676175 0.112245 0.444127
H76   H     H_    0.652199 0.717814 0.114554 0.052195
O23   O     O_2   0.511261 0.712818 0.149131 -0.546880

loop_
_geom_bond_atom_site_label_1
_geom_bond_atom_site_label_2
_ccdc_geom_bond_type
C5    C42   S    
C68   H67   S    
C39   O21   S    
C19   C52   S    
C55   H38   S    
C72   H75   S    
C3    C6    S    
C60   H49   S    
C69   C70   S    
C53   O13   D    
C56   H40   S    
C7    C8    T    
C71   H73   S    
C10   C22   A    
C72   O22   D    
C26   C27   A    
C52   H35   S    
C30   C35   A    
C5    H11   S    
C70   H70   S    
C65   H61   S    
C38   C42   S    
C57   H43   S    
C9    C53   S    
C28   H9    S    
C48   H26   S    
C9    C22   A    
C33   H7    S    
C15   C16   A    
C30   N2    A    
C51   H32   S    
C11   C24   A    
C18   C19   A    
C7    C42   S    
C43   H15   S    
C2    C38   S    
C25   H8    S    
C39   C72   S    
C2    O10   S    
C25   C37   A    
C73   H76   S    
C37   N1    A    
O1    Zn1   S    
C23   O5    A    
C22   H2    S    
C65   H60   S    
C61   H52   S    
O8    Zn2   S    
C6    C41   T    
C59   C60   S    
C54   H37   S    
C26   O18   S    
C39   C42   S    
C31   C36   A    
C21   H3    S    
C8    C12   S    
C44   H16   S    
O2    Zn2   S    
C25   C32   A    
C23   O6    A    
O3    Zn1   S    
C16   C24   A    
C13   C14   A    
C54   O14   D    
C64   H59   S    
C43   H14   S    
C34   C41   S    
N2    Zn2   S    
C62   C63   S    
C34   O8    A    
C53   H36   S    
C69   H69   S    
C69   H68   S    
C71   H74   S    
C4    O11   S    
C70   C71   S    
C10   C21   A    
O6    Zn2   S    
O5    Zn1   S    
C5    H12   S    
O18   C62   S    
C65   C66   S    
C44   H17   S    
C51   H33   S    
C57   H44   S    
C71   H72   S    
C48   H25   S    
O9    C43   S    
C50   C51   S    
C45   H20   S    
C40   H10   S    
C66   C67   S    
C17   C21   A    
O15   C55   S    
O7    Zn1   S    
C68   O20   D    
C43   C44   S    
C45   H18   S    
C35   C68   S    
C29   C30   A    
C36   N1    A    
C49   H29   S    
O4    Zn2   S    
C47   H23   S    
C2    H1    S    
C16   C20   A    
C34   O7    A    
C17   C18   A    
C38   H5    S    
C55   H39   S    
C63   H56   S    
C67   H66   S    
C50   H31   S    
C45   H19   S    
C13   O15   S    
O16   C58   S    
C20   H6    S    
C37   O16   S    
C12   O3    A    
C62   H54   S    
C14   C54   S    
C47   H24   S    
C1    O2    A    
C38   O9    S    
C3    C40   S    
C4    H13   S    
C59   H47   S    
C64   H58   S    
C67   H65   S    
C58   H46   S    
C3    C4    S    
C60   H51   S    
C49   H28   S    
C51   H34   S    
C46   C47   S    
O19   C65   S    
C52   O12   D    
C15   C17   A    
C28   C29   A    
C14   C15   A    
C31   C32   A    
C46   H21   S    
C48   H27   S    
C60   H50   S    
C56   H41   S    
C63   H55   S    
C10   C23   S    
C66   H62   S    
O21   C69   S    
C19   C20   A    
C36   C61   S    
C2    C3    S    
C67   H64   S    
C29   C31   A    
C1    O1    A    
C32   C33   A    
C49   C50   S    
C40   C73   S    
C12   O4    A    
C11   C13   A    
C44   C45   S    
O11   C49   S    
C63   C64   S    
C58   C59   S    
C27   O19   S    
N1    Zn1   S    
C70   H71   S    
C33   C35   A    
C46   H22   S    
C55   C56   S    
C66   H63   S    
C50   H30   S    
C26   N2    A    
C73   O23   D    
C56   C57   S    
O10   C46   S    
C39   C40   S    
C9    C18   A    
C4    C5    S    
C47   C48   S    
C1    C24   S    
C61   O17   D    
C27   C28   A    
C59   H48   S    
C64   H57   S    
C62   H53   S    
C11   H4    S    
C58   H45   S    
C57   H42   S    
