data_mof_unit_15096.cif
_audit_creation_date              2012-12-10T20:44:01-0500
_audit_creation_method            fapswitch 2.2
_symmetry_space_group_name_H-M    P1
_symmetry_Int_Tables_number       1
_space_group_crystal_system       triclinic
_cell_length_a                    17.50495
_cell_length_b                    10.661556
_cell_length_c                    9.903684
_cell_angle_alpha                 90.419147
_cell_angle_beta                  90.898091
_cell_angle_gamma                 90.20135
_cell_volume                      1848.03591103

loop_
_atom_site_label
_atom_site_type_symbol
_atom_type_description
_atom_site_fract_x
_atom_site_fract_y
_atom_site_fract_z
_atom_type_partial_charge
C1    C     C_R   0.503922 0.259921 0.499328 0.886667
C2    C     C_R   0.885914 0.455260 0.499433 0.166966
C3    C     C_1   0.966253 0.448332 0.501056 -0.071872
C4    C     C_1   0.034077 0.448946 0.502227 -0.075292
C5    C     C_R   0.151274 0.521890 0.608660 -0.165800
C6    C     C_R   0.229889 0.537271 0.606328 -0.217570
C7    C     C_R   0.271238 0.488194 0.498222 -0.018226
C8    C     C_R   0.233752 0.422933 0.393073 -0.217835
C9    C     C_R   0.155072 0.407704 0.395512 -0.167323
C10   C     C_R   0.114401 0.457198 0.503338 0.166628
C11   C     C_R   0.523696 0.065265 0.620186 -0.037438
C12   C     C_R   0.353653 0.498674 0.499223 0.844649
C13   C     C_R   0.519618 0.128526 0.498052 -0.272068
C14   C     C_R   0.532692 0.062125 0.376575 0.539377
C15   C     C_R   0.534566 0.931843 0.380049 -0.327176
C16   C     C_R   0.519934 0.870423 0.501531 -0.156377
C17   C     C_R   0.523375 0.937266 0.622490 0.030704
C18   C     C_3   0.474918 0.930871 0.745586 -0.529174
C19   C     C_3   0.474240 0.073545 0.742866 0.418181
C20   C     C_R   0.433211 0.508895 0.069079 0.196486
C21   C     C_R   0.566354 0.505063 0.074563 -0.225509
C22   C     C_R   0.566644 0.509037 0.931089 0.547828
C23   C     C_R   0.503857 0.739774 0.500543 0.909797
C24   C     C_R   0.433232 0.506710 0.927099 0.116849
C25   C     C_3   0.367848 0.417000 0.919887 -0.464069
C26   C     C_3   0.366231 0.422439 0.073180 -0.497670
C27   C     C_R   0.646472 0.498288 0.500790 0.851298
C28   C     C_R   0.845833 0.424891 0.615289 -0.180464
C29   C     C_R   0.767224 0.440340 0.616492 -0.205038
C30   C     C_R   0.729046 0.486906 0.501867 -0.031397
C31   C     C_R   0.769965 0.516487 0.385612 -0.197161
C32   C     C_R   0.848515 0.500843 0.384661 -0.162834
H1    H     H_    0.875325 0.390225 0.704452 0.137246
H2    H     H_    0.540975 0.880167 0.286328 0.179621
H3    H     H_    0.417852 0.888245 0.724520 0.166041
H4    H     H_    0.506301 0.890719 0.833534 0.203664
H5    H     H_    0.416605 0.111837 0.718916 0.077881
H6    H     H_    0.619988 0.506410 0.130061 0.171969
H7    H     H_    0.316297 0.458765 0.871669 0.198366
H8    H     H_    0.384456 0.323657 0.879253 0.227180
H9    H     H_    0.314733 0.470882 0.111413 0.196851
H10   H     H_    0.736427 0.414173 0.705918 0.199612
H11   H     H_    0.379227 0.331917 0.122731 0.199894
H12   H     H_    0.741413 0.552247 0.296092 0.147377
H13   H     H_    0.880135 0.525523 0.295390 0.132990
H14   H     H_    0.119219 0.561316 0.691455 0.132480
H15   H     H_    0.258260 0.588168 0.687928 0.141966
H16   H     H_    0.265345 0.381449 0.311182 0.142292
H17   H     H_    0.126033 0.357990 0.313705 0.133039
N1    N     N_R   0.499490 0.499140 0.142800 -0.124693
N2    N     N_R   0.499490 0.499180 0.857150 -0.140706
O1    O     O_R   0.500010 0.316790 0.614690 -0.607882
O2    O     O_R   0.500000 0.316760 0.385350 -0.558710
O3    O     O_R   0.389120 0.500020 0.614710 -0.620578
O4    O     O_R   0.389110 0.499990 0.385370 -0.618086
O5    O     O_R   0.500000 0.683240 0.614650 -0.620032
O6    O     O_R   0.499990 0.683210 0.385310 -0.625594
O7    O     O_R   0.610890 0.500010 0.614630 -0.562783
O8    O     O_R   0.610880 0.499980 0.385290 -0.628735
Zn1   Zn    Zn3+2 0.500010 0.500020 0.653130 0.974613
Zn2   Zn    Zn3+2 0.499990 0.499980 0.346870 0.957964
O9    O     O_3   0.506077 0.130360 0.861910 -0.624609
C33   C     C_3   0.586816 0.135639 0.865960 -0.234105
H18   H     H_    0.608459 0.202543 0.789851 0.186210
H19   H     H_    0.612505 0.041318 0.852147 0.147321
H20   H     H_    0.605438 0.171236 0.966759 0.201687
O10   O     O_3   0.635590 0.516869 0.866968 -0.603953
C34   C     C_3   0.660318 0.642944 0.871521 -0.334735
H21   H     H_    0.617535 0.706475 0.823654 0.174937
H22   H     H_    0.673447 0.674029 0.976874 0.140642
H23   H     H_    0.713775 0.650939 0.813474 0.193914
O11   O     O_3   0.540822 0.123426 0.255051 -0.594114
C35   C     C_3   0.473734 0.105824 0.176243 -0.247191
H24   H     H_    0.472137 0.179338 0.098178 0.234365
H25   H     H_    0.420612 0.116443 0.235982 0.121137
H26   H     H_    0.474388 0.013009 0.124501 0.170111

loop_
_geom_bond_atom_site_label_1
_geom_bond_atom_site_label_2
_ccdc_geom_bond_type
C33   H19   S    
C29   H10   S    
C32   H13   S    
C7    C8    A    
O3    Zn1   S    
C11   C19   S    
C29   C30   A    
C28   C29   A    
C25   H8    S    
C5    C6    A    
C19   O9    S    
O7    Zn1   S    
C15   C16   A    
C2    C32   A    
C18   C19   S    
C35   H24   S    
C1    O2    A    
C20   N1    A    
O1    Zn1   S    
C34   H21   S    
O2    Zn2   S    
C21   H6    S    
C20   C24   A    
C16   C17   A    
C19   H5    S    
C9    C10   A    
C15   H2    S    
C24   N2    A    
C33   H20   S    
C13   C14   A    
C27   C30   S    
C35   H25   S    
C21   N1    A    
C26   H11   S    
C7    C12   S    
O8    Zn2   S    
C31   H12   S    
O10   C34   S    
C23   O5    A    
C9    H17   S    
C24   C25   S    
C6    H15   S    
C8    C9    A    
C25   C26   S    
O5    Zn1   S    
C8    H16   S    
O9    C33   S    
C31   C32   A    
C17   C18   S    
C28   H1    S    
C16   C23   S    
C35   H26   S    
C1    C13   S    
C4    C10   S    
C3    C4    T    
C18   H3    S    
C23   O6    A    
C11   C17   A    
C14   O11   S    
O11   C35   S    
C27   O7    A    
O6    Zn2   S    
C6    C7    A    
C5    H14   S    
C2    C3    S    
C5    C10   A    
C27   O8    A    
C25   H7    S    
C11   C13   A    
C30   C31   A    
C20   C26   S    
C34   H23   S    
O4    Zn2   S    
C1    O1    A    
C22   O10   S    
C12   O4    A    
C33   H18   S    
C34   H22   S    
N1    Zn2   S    
C14   C15   A    
C2    C28   A    
N2    Zn1   S    
C21   C22   A    
C18   H4    S    
C12   O3    A    
C26   H9    S    
C22   N2    A    
