data_mof_unit_16038.cif
_audit_creation_date              2012-12-11T16:48:28-0500
_audit_creation_method            fapswitch 2.2
_symmetry_space_group_name_H-M    P1
_symmetry_Int_Tables_number       1
_space_group_crystal_system       triclinic
_cell_length_a                    17.260226
_cell_length_b                    24.344717
_cell_length_c                    14.932926
_cell_angle_alpha                 90.397029
_cell_angle_beta                  125.579753
_cell_angle_gamma                 89.579357
_cell_volume                      5103.12607543

loop_
_atom_site_label
_atom_site_type_symbol
_atom_type_description
_atom_site_fract_x
_atom_site_fract_y
_atom_site_fract_z
_atom_type_partial_charge
C1    C     C_R   0.309991 0.377441 0.907506 -0.146528
C2    C     C_R   0.548552 0.498144 0.722550 0.073618
C3    C     C_R   0.055040 0.847139 0.907502 -0.144585
C4    C     C_R   0.311810 0.362137 0.997273 0.069400
C5    C     C_R   0.615845 0.315205 0.998648 0.066293
C6    C     C_R   0.811810 0.862136 0.997273 0.069399
C7    C     C_R   0.115844 0.815204 0.998649 0.066294
C8    C     C_3   0.207781 0.609885 0.158285 -0.913911
C9    C     C_3   0.708685 0.679997 0.851148 -0.938617
C10   C     C_3   0.707751 0.109883 0.158260 -0.913944
C11   C     C_3   0.208683 0.179998 0.851145 -0.938625
C12   C     C_R   0.063441 0.998850 0.366413 0.080113
C13   C     C_R   0.048552 0.998144 0.722550 0.073617
C14   C     C_R   0.193022 0.499450 0.637562 0.141489
C15   C     C_R   0.823545 0.498421 0.268041 0.133038
C16   C     C_R   0.693022 0.999450 0.637562 0.141490
C17   C     C_R   0.323545 0.998421 0.268040 0.133038
C18   C     C_2   0.978812 0.454220 0.359759 -0.111994
C19   C     C_2   0.077864 0.457636 0.457280 -0.118480
C20   C     C_2   0.478812 0.954220 0.359759 -0.111995
C21   C     C_R   0.646523 0.347203 0.090007 -0.144864
C22   C     C_2   0.577864 0.957636 0.457280 -0.118479
C23   C     C_2   0.924710 0.499300 0.314673 -0.189434
C24   C     C_2   0.107982 0.501142 0.525293 -0.193655
C25   C     C_2   0.424710 0.999300 0.314673 -0.189433
C26   C     C_2   0.607983 0.001142 0.525293 -0.193655
C27   C     C_R   0.263537 0.689543 0.099152 0.062236
C28   C     C_R   0.630391 0.755474 0.895450 0.083851
C29   C     C_R   0.763531 0.189539 0.099151 0.062226
C30   C     C_R   0.130390 0.255474 0.895451 0.083852
C31   C     C_R   0.237303 0.665685 0.999850 0.080349
C32   C     C_R   0.809991 0.877441 0.907506 -0.146527
C33   C     C_R   0.648325 0.736835 0.994008 0.046420
C34   C     C_R   0.737301 0.165684 0.999849 0.080350
C35   C     C_R   0.148325 0.236835 0.994008 0.046421
C36   C     C_R   0.154058 0.683774 0.900914 -0.191811
C37   C     C_R   0.696724 0.771545 0.086755 -0.201307
C38   C     C_R   0.654058 0.183774 0.900911 -0.191824
C39   C     C_R   0.196725 0.271545 0.086755 -0.201307
C40   C     C_R   0.605743 0.229765 0.900792 -0.200004
C41   C     C_R   0.241612 0.318733 0.084808 -0.200552
C42   C     C_R   0.105740 0.729764 0.900795 -0.200007
C43   C     C_R   0.146522 0.847203 0.090007 -0.144864
C44   C     C_R   0.741612 0.818733 0.084807 -0.200552
C45   C     C_R   0.639844 0.257752 0.999745 0.071984
C46   C     C_R   0.236739 0.331077 0.989719 0.064700
C47   C     C_R   0.139843 0.757751 0.999748 0.071979
C48   C     C_R   0.736739 0.831077 0.989719 0.064700
C49   C     C_R   0.400335 0.623407 0.090943 -0.135198
C50   C     C_R   0.558462 0.650254 0.908952 -0.149897
C51   C     C_R   0.900335 0.123407 0.090943 -0.135195
C52   C     C_R   0.058462 0.150254 0.908952 -0.149898
C53   C     C_R   0.715515 0.235450 0.099044 0.078105
C54   C     C_R   0.310378 0.636458 0.998633 0.048085
C55   C     C_R   0.170105 0.303167 0.891655 0.101577
C56   C     C_R   0.215520 0.735453 0.099046 0.078105
C57   C     C_R   0.670106 0.803167 0.891655 0.101577
C58   C     C_3   0.711719 0.213458 0.189675 -0.534868
C59   C     C_3   0.176886 0.280624 0.802287 -0.562639
C60   C     C_3   0.211738 0.713461 0.189689 -0.534865
C61   C     C_3   0.676889 0.780623 0.802288 -0.562638
C62   C     C_3   0.264667 0.663350 0.190605 0.089011
C63   C     C_3   0.636121 0.727372 0.809307 0.088770
C64   C     C_3   0.764646 0.163345 0.190593 0.089022
C65   C     C_R   0.623668 0.680993 0.999553 0.091264
C66   C     C_3   0.136119 0.227373 0.809306 0.088771
C67   C     C_R   0.599219 0.446755 0.620337 0.165927
C68   C     C_R   0.602676 0.447207 0.530433 0.160640
C69   C     C_R   0.099218 0.946755 0.620336 0.165926
C70   C     C_R   0.102675 0.947206 0.530432 0.160641
C71   C     C_R   0.594097 0.496195 0.665277 0.034676
C72   C     C_R   0.600215 0.497011 0.482526 0.033114
C73   C     C_R   0.094097 0.996195 0.665276 0.034677
C74   C     C_R   0.100215 0.997011 0.482526 0.033114
C75   C     C_R   0.617485 0.545015 0.636125 -0.203508
C76   C     C_R   0.810377 0.136457 0.998633 0.048098
C77   C     C_R   0.620019 0.545499 0.544110 -0.203273
C78   C     C_R   0.117486 0.045015 0.636125 -0.203507
C79   C     C_R   0.120020 0.045498 0.544110 -0.203275
C80   C     C_3   0.540868 0.397445 0.480855 -0.524017
C81   C     C_3   0.536457 0.397054 0.578615 -0.523810
C82   C     C_3   0.040866 0.897446 0.480853 -0.524019
C83   C     C_3   0.036455 0.897055 0.578613 -0.523811
C84   C     C_R   0.549345 0.453624 0.302806 -0.158849
C85   C     C_R   0.520822 0.452852 0.752970 -0.145571
C86   C     C_R   0.049344 0.953624 0.302806 -0.158848
C87   C     C_R   0.123668 0.180993 0.999553 0.091264
C88   C     C_R   0.020822 0.952852 0.752971 -0.145570
C89   C     C_R   0.242182 0.545047 0.699106 -0.160179
C90   C     C_R   0.767957 0.544705 0.244989 -0.148305
C91   C     C_R   0.742182 0.045047 0.699106 -0.160178
C92   C     C_R   0.267957 0.044705 0.244989 -0.148304
C93   C     C_R   0.547466 0.544825 0.303406 -0.138450
C94   C     C_R   0.518285 0.544779 0.748774 -0.128830
C95   C     C_R   0.047466 0.044825 0.303406 -0.138453
C96   C     C_R   0.018285 0.044779 0.748774 -0.128829
C97   C     C_R   0.243824 0.453760 0.698398 -0.135683
C98   C     C_R   0.563441 0.498850 0.366413 0.080114
C99   C     C_R   0.767019 0.452839 0.244934 -0.117809
C100  C     C_R   0.743824 0.953760 0.698398 -0.135683
C101  C     C_R   0.267018 0.952839 0.244934 -0.117809
C102  C     C_R   0.308782 0.623968 0.906753 -0.122118
C103  C     C_R   0.651695 0.650752 0.091809 -0.147115
C104  C     C_R   0.808782 0.123968 0.906753 -0.122122
C105  C     C_R   0.151695 0.150752 0.091809 -0.147115
C106  C     C_R   0.401893 0.374300 0.091280 -0.130179
C107  C     C_R   0.555041 0.347140 0.907501 -0.144584
C108  C     C_R   0.901893 0.874300 0.091280 -0.130179
H1    H     H_    0.250412 0.375784 0.822284 0.113856
H2    H     H_    0.707960 0.759813 0.163261 0.124054
H3    H     H_    0.630655 0.165694 0.822642 0.120368
H4    H     H_    0.207961 0.259813 0.163262 0.124054
H5    H     H_    0.546684 0.245448 0.822345 0.119262
H6    H     H_    0.288114 0.341514 0.160515 0.125703
H7    H     H_    0.046678 0.745445 0.822349 0.119262
H8    H     H_    0.788113 0.841514 0.160514 0.125703
H9    H     H_    0.754934 0.238545 0.265964 0.159516
H10   H     H_    0.127659 0.302218 0.722753 0.164945
H11   H     H_    0.254954 0.738552 0.265974 0.159517
H12   H     H_    0.684148 0.332995 0.173990 0.096390
H13   H     H_    0.627662 0.802217 0.722753 0.164944
H14   H     H_    0.637575 0.205667 0.162749 0.208519
H15   H     H_    0.251262 0.276814 0.827147 0.213187
H16   H     H_    0.137597 0.705668 0.162773 0.208513
H17   H     H_    0.751265 0.776813 0.827150 0.213187
H18   H     H_    0.338090 0.659689 0.267378 0.120967
H19   H     H_    0.565165 0.717755 0.732485 0.115568
H20   H     H_    0.838064 0.159680 0.267372 0.120971
H21   H     H_    0.065162 0.217756 0.732485 0.115568
H22   H     H_    0.621532 0.583826 0.674253 0.133040
H23   H     H_    0.750412 0.875784 0.822284 0.113856
H24   H     H_    0.625904 0.584645 0.514798 0.124145
H25   H     H_    0.121534 0.083825 0.674254 0.133040
H26   H     H_    0.125906 0.084645 0.514799 0.124146
H27   H     H_    0.470456 0.406025 0.402279 0.200083
H28   H     H_    0.572471 0.360691 0.632435 0.190671
H29   H     H_    0.970454 0.906026 0.402278 0.200084
H30   H     H_    0.072467 0.860692 0.632432 0.190672
H31   H     H_    0.579935 0.361476 0.478909 0.188506
H32   H     H_    0.463346 0.405536 0.554869 0.200461
H33   H     H_    0.079931 0.861476 0.478906 0.188507
H34   H     H_    0.184146 0.832995 0.173990 0.096391
H35   H     H_    0.963344 0.905537 0.554868 0.200461
H36   H     H_    0.426459 0.628297 0.176084 0.095526
H37   H     H_    0.510728 0.664418 0.825026 0.089724
H38   H     H_    0.926458 0.128296 0.176083 0.095525
H39   H     H_    0.010728 0.164418 0.825026 0.089724
H40   H     H_    0.571838 0.411978 0.330944 0.101716
H41   H     H_    0.536045 0.410288 0.749454 0.110326
H42   H     H_    0.071838 0.911978 0.330944 0.101715
H43   H     H_    0.036045 0.910287 0.749454 0.110326
H44   H     H_    0.229511 0.586829 0.669317 0.091209
H45   H     H_    0.956893 0.539443 0.328577 0.128771
H46   H     H_    0.790241 0.586861 0.253349 0.100401
H47   H     H_    0.729511 0.086829 0.669317 0.091208
H48   H     H_    0.290241 0.086861 0.253349 0.100401
H49   H     H_    0.232560 0.411820 0.669207 0.081948
H50   H     H_    0.787255 0.410212 0.252259 0.090458
H51   H     H_    0.732560 0.911820 0.669207 0.081947
H52   H     H_    0.287255 0.910212 0.252259 0.090458
H53   H     H_    0.250862 0.629909 0.821477 0.091927
H54   H     H_    0.691124 0.665423 0.175820 0.086583
H55   H     H_    0.750862 0.129909 0.821476 0.091928
H56   H     H_    0.065793 0.538336 0.503222 0.128645
H57   H     H_    0.191124 0.165423 0.175820 0.086583
H58   H     H_    0.428266 0.367738 0.176061 0.094368
H59   H     H_    0.508048 0.333357 0.823116 0.084580
H60   H     H_    0.928266 0.867738 0.176061 0.094368
H61   H     H_    0.008047 0.833356 0.823117 0.084580
H62   H     H_    0.946988 0.413727 0.339815 0.115380
H63   H     H_    0.120318 0.420348 0.482427 0.116248
H64   H     H_    0.446987 0.913727 0.339815 0.115380
H65   H     H_    0.620318 0.920348 0.482428 0.116247
H66   H     H_    0.245985 0.576715 0.147105 0.242275
H67   H     H_    0.456893 0.039442 0.328577 0.128770
H68   H     H_    0.200889 0.597723 0.224859 0.246154
H69   H     H_    0.135370 0.614779 0.080482 0.258297
H70   H     H_    0.678114 0.641247 0.855761 0.241856
H71   H     H_    0.727983 0.673140 0.792789 0.243420
H72   H     H_    0.774577 0.689427 0.933809 0.261274
H73   H     H_    0.700812 0.097732 0.224802 0.246163
H74   H     H_    0.635361 0.114773 0.080428 0.258305
H75   H     H_    0.745976 0.076706 0.147129 0.242276
H76   H     H_    0.178114 0.141248 0.855761 0.241858
H77   H     H_    0.227978 0.173140 0.792784 0.243420
H78   H     H_    0.565793 0.038336 0.503221 0.128645
H79   H     H_    0.274577 0.189428 0.933804 0.261276
H80   H     H_    0.565562 0.586745 0.332378 0.083459
H81   H     H_    0.527610 0.587159 0.736467 0.093271
H82   H     H_    0.065562 0.086745 0.332378 0.083460
H83   H     H_    0.027610 0.087159 0.736467 0.093272
H84   H     H_    0.130653 0.665693 0.822645 0.120366
N1    N     N_R   0.395410 0.396350 0.944340 -0.039875
N2    N     N_R   0.474920 0.471030 0.794350 -0.040007
N3    N     N_R   0.025080 0.971030 0.205650 -0.037334
N4    N     N_R   0.974920 0.971030 0.794350 -0.040007
N5    N     N_R   0.320260 0.527820 0.794570 -0.038076
N6    N     N_R   0.679740 0.527820 0.205430 -0.041306
N7    N     N_R   0.820260 0.027820 0.794570 -0.038076
N8    N     N_R   0.179740 0.027820 0.205430 -0.041306
N9    N     N_R   0.524590 0.527840 0.205200 -0.037723
N10   N     N_R   0.475410 0.527840 0.794800 -0.038982
N11   N     N_R   0.024590 0.027840 0.205200 -0.037723
N12   N     N_R   0.604590 0.396350 0.055660 -0.038519
N13   N     N_R   0.975410 0.027840 0.794800 -0.038982
N14   N     N_R   0.320750 0.471000 0.795020 -0.041692
N15   N     N_R   0.679250 0.471000 0.204980 -0.044728
N16   N     N_R   0.820750 0.971000 0.795020 -0.041692
N17   N     N_R   0.179250 0.971000 0.204980 -0.044728
N18   N     N_R   0.393620 0.602490 0.942710 -0.040136
N19   N     N_R   0.606380 0.602490 0.057290 -0.037476
N20   N     N_R   0.893620 0.102490 0.942710 -0.040136
N21   N     N_R   0.106380 0.102490 0.057290 -0.037476
N22   N     N_R   0.451720 0.396350 0.057510 -0.038647
N23   N     N_R   0.895410 0.896350 0.944340 -0.039875
N24   N     N_R   0.548280 0.396350 0.942490 -0.037006
N25   N     N_R   0.951720 0.896350 0.057510 -0.038647
N26   N     N_R   0.048280 0.896350 0.942490 -0.037006
N27   N     N_R   0.104590 0.896350 0.055660 -0.038519
N28   N     N_R   0.449930 0.602500 0.055880 -0.040094
N29   N     N_R   0.550070 0.602500 0.944120 -0.038827
N30   N     N_R   0.949930 0.102500 0.055880 -0.040095
N31   N     N_R   0.050070 0.102500 0.944120 -0.038827
N32   N     N_R   0.525080 0.471030 0.205650 -0.037334
Ni1   Ni    Ni4+2 0.435420 0.434270 0.870230 0.206882
Ni2   Ni    Ni4+2 0.564580 0.434270 0.129770 0.207581
Ni3   Ni    Ni4+2 0.935420 0.934270 0.870230 0.206882
Ni4   Ni    Ni4+2 0.064580 0.934270 0.129770 0.207582
Ni5   Ni    Ni4+2 0.563430 0.564580 0.128740 0.209633
Ni6   Ni    Ni4+2 0.436570 0.564580 0.871260 0.210667
Ni7   Ni    Ni4+2 0.063430 0.064580 0.128740 0.209633
Ni8   Ni    Ni4+2 0.936570 0.064580 0.871260 0.210667

loop_
_geom_bond_atom_site_label_1
_geom_bond_atom_site_label_2
_ccdc_geom_bond_type
C76   C104  A    
C81   H32   S    
C83   H35   S    
C78   C79   A    
C50   N29   A    
C68   C80   S    
C55   C59   S    
N21   N31   A    
C88   N4    A    
C36   C42   A    
C41   H6    S    
C104  H55   S    
C100  N16   A    
N6    Ni5   S    
C33   C65   S    
C48   C57   A    
C39   C41   A    
C71   C75   A    
C72   C98   S    
C28   C57   A    
N8    N17   A    
C80   H27   S    
C6    C48   S    
N3    Ni4   S    
C2    C85   A    
C11   H79   S    
C106  H58   S    
N2    Ni1   S    
C60   C62   S    
N11   Ni7   S    
C19   H63   S    
C21   H12   S    
C12   C74   S    
C8    C62   S    
N23   N25   A    
C59   C66   S    
N20   Ni8   S    
C8    H66   S    
C85   N2    A    
N3    N11   A    
C20   C25   D    
C51   N30   A    
C95   N11   A    
C49   C54   A    
N2    N10   A    
C49   H36   S    
N18   N28   A    
C60   H11   S    
C61   H13   S    
C18   C19   S    
C14   C24   S    
N4    N13   A    
C61   C63   S    
C17   C101  A    
C95   H82   S    
C1    H1    S    
C3    H61   S    
C32   N23   A    
C35   C87   S    
C8    H69   S    
C89   H44   S    
C107  N24   A    
C101  H52   S    
C64   H20   S    
N29   Ni6   S    
C70   C74   A    
C41   C46   A    
C12   C95   A    
C69   C73   A    
C94   N10   A    
N8    Ni7   S    
C7    C43   A    
C97   N14   A    
C90   H46   S    
C93   N9    A    
C67   C71   A    
N21   Ni7   S    
C75   H22   S    
C82   H29   S    
N10   Ni6   S    
C66   H21   S    
C91   N7    A    
C15   C23   S    
C108  H60   S    
N4    Ni3   S    
C45   C53   A    
C16   C100  A    
C11   H77   S    
C59   H15   S    
C10   H75   S    
C21   N12   A    
N5    N14   A    
C24   H56   S    
C17   C92   A    
C82   H33   S    
N22   Ni2   S    
C50   C65   A    
C14   C97   A    
C84   H40   S    
C36   H84   S    
C16   C26   S    
C40   C45   A    
C106  N22   A    
C6    C32   A    
C107  H59   S    
C58   H14   S    
C105  N21   A    
C49   N28   A    
C27   C31   A    
C18   C23   D    
C2    C94   A    
C51   C76   A    
C84   N32   A    
C103  N19   A    
C62   H18   S    
C27   C56   A    
C102  N18   A    
N20   N30   A    
C13   C96   A    
C58   C64   S    
C101  N17   A    
N5    Ni6   S    
C73   C78   A    
C4    C106  A    
C29   C34   A    
C58   H9    S    
C33   C37   A    
C56   C60   S    
C99   N15   A    
C29   C53   A    
C77   H24   S    
C34   C38   A    
C46   C55   A    
C35   C39   A    
N7    Ni8   S    
C93   H80   S    
C14   C89   A    
C91   H47   S    
C72   C77   A    
C69   C83   S    
C27   C62   S    
C86   N3    A    
C25   H67   S    
N15   Ni2   S    
C40   H5    S    
C87   C105  A    
C68   C72   A    
N26   N27   A    
N14   Ni1   S    
N18   Ni6   S    
C92   H48   S    
C75   C77   A    
C37   H2    S    
C30   C66   S    
C9    H72   S    
C16   C91   A    
C108  N25   A    
N28   Ni5   S    
C50   H37   S    
C67   C68   A    
C20   H64   S    
C20   C22   S    
C28   C33   A    
C67   C81   S    
C59   H10   S    
C74   C79   A    
C23   H45   S    
N17   Ni4   S    
N27   Ni4   S    
C88   H43   S    
C99   H50   S    
C60   H16   S    
C65   C103  A    
N12   Ni2   S    
C2    C71   S    
N26   Ni3   S    
C22   H65   S    
N32   Ni2   S    
N31   Ni8   S    
C96   H83   S    
C81   H28   S    
C1    N1    A    
C5    C107  A    
C89   N5    A    
C79   H26   S    
C39   H4    S    
C103  H54   S    
N19   Ni5   S    
N1    N22   A    
N6    N15   A    
C9    C63   S    
C54   C102  A    
C52   C87   A    
C43   N27   A    
C11   H76   S    
C7    C47   S    
C15   C99   A    
C80   C81   S    
N13   Ni8   S    
C9    H71   S    
N30   Ni7   S    
C53   C58   S    
C8    H68   S    
C57   C61   S    
C90   N6    A    
C96   N13   A    
C52   H39   S    
C80   H31   S    
C30   C35   A    
C30   C55   A    
N12   N24   A    
C3    C7    A    
N24   Ni1   S    
C51   H38   S    
C12   C86   A    
C1    C4    A    
C84   C98   A    
C10   C64   S    
C104  N20   A    
C37   C44   A    
C86   H42   S    
C19   C24   D    
C94   H81   S    
C17   C25   S    
N16   Ni3   S    
C15   C90   A    
C38   C40   A    
C26   H78   S    
C100  H51   S    
C4    C46   S    
C5    C45   S    
C3    N26   A    
C10   H74   S    
C102  H53   S    
C13   C88   A    
N9    Ni5   S    
N7    N16   A    
C105  H57   S    
N23   Ni3   S    
C42   C47   A    
C83   H30   S    
C31   C54   S    
C69   C70   A    
C70   C82   S    
C78   H25   S    
C85   H41   S    
C29   C64   S    
N25   Ni4   S    
N1    Ni1   S    
C28   C63   S    
C42   H7    S    
C5    C21   A    
C44   H8    S    
C52   N31   A    
C82   C83   S    
C22   C26   D    
C18   H62   S    
C34   C76   S    
C10   H73   S    
C6    C108  A    
C31   C36   A    
C43   H34   S    
C61   H17   S    
C13   C73   S    
N9    N32   A    
C38   H3    S    
C92   N8    A    
C93   C98   A    
C32   H23   S    
C63   H19   S    
C9    H70   S    
C44   C48   A    
C97   H49   S    
C47   C56   A    
C11   C66   S    
N19   N29   A    
