data_mof_unit_44436.cif
_audit_creation_date              2012-12-10T17:49:33-0500
_audit_creation_method            fapswitch 2.2
_symmetry_space_group_name_H-M    P1
_symmetry_Int_Tables_number       1
_space_group_crystal_system       triclinic
_cell_length_a                    10.532767
_cell_length_b                    10.736418
_cell_length_c                    10.026518
_cell_angle_alpha                 91.454239
_cell_angle_beta                  88.031212
_cell_angle_gamma                 96.027875
_cell_volume                      1126.6355618

loop_
_atom_site_label
_atom_site_type_symbol
_atom_type_description
_atom_site_fract_x
_atom_site_fract_y
_atom_site_fract_z
_atom_type_partial_charge
C1    C     C_R   0.492424 0.259625 0.498911 0.947191
C2    C     C_R   0.383450 0.050300 0.569218 0.030409
C3    C     C_R   0.480159 0.124757 0.495235 -0.041907
C4    C     C_R   0.258849 0.509066 0.501536 1.018949
C5    C     C_R   0.575780 0.070336 0.422484 -0.170526
C6    C     C_R   0.580898 0.943353 0.425669 -0.122989
C7    C     C_R   0.493755 0.870445 0.506164 -0.039028
C8    C     C_R   0.287975 0.372752 0.137327 0.377427
C9    C     C_R   0.175229 0.348025 0.069181 -0.227551
C10   C     C_R   0.181054 0.338965 0.931896 0.443318
C11   C     C_R   0.296615 0.372742 0.863801 -0.154029
C12   C     C_3   0.964278 0.501273 0.369504 -0.255467
C13   C     C_R   0.399979 0.436353 0.929499 -0.021768
C14   C     C_R   0.398588 0.435803 0.073070 0.082131
C15   C     C_R   0.594342 0.564002 0.070242 -0.134464
C16   C     C_R   0.501294 0.739168 0.501673 0.863529
C17   C     C_R   0.593509 0.565848 0.928334 0.453495
C18   C     C_R   0.742353 0.508139 0.497913 0.960462
C19   C     C_3   0.036047 0.539073 0.623351 0.390206
C20   C     C_3   0.944645 0.427066 0.573740 -0.141166
C21   C     C_3   0.878020 0.518594 0.493272 -0.214590
C22   C     C_3   0.967644 0.629903 0.542638 0.332203
C23   C     C_3   0.032523 0.409045 0.449630 -0.168730
C24   C     C_3   0.057100 0.611025 0.421315 0.325626
C25   C     C_3   0.124093 0.519333 0.501938 -0.229200
C26   C     C_R   0.270161 0.095080 0.622969 0.355916
C27   C     C_R   0.185542 0.021036 0.705495 -0.079012
C28   C     C_R   0.206210 0.899214 0.729500 -0.109895
C29   C     C_R   0.306122 0.847572 0.663164 -0.150595
C30   C     C_R   0.396064 0.921927 0.581870 0.051599
Cl1   Cl    Cl    0.294836 0.252539 0.248621 -0.536761
Cl2   Cl    Cl    0.044720 0.274545 0.849393 -0.574197
Cl3   Cl    Cl    0.713689 0.663352 0.846818 -0.467636
Cl4   Cl    Cl    0.079413 0.576829 0.790596 -0.533991
Cl5   Cl    Cl    0.918417 0.777615 0.595565 -0.495834
Cl6   Cl    Cl    0.136375 0.732944 0.322321 -0.502835
Cl7   Cl    Cl    0.208932 0.223547 0.560189 -0.624338
H1    H     H_    0.655192 0.901910 0.367746 0.177285
H2    H     H_    0.305705 0.348360 0.761421 0.248014
H3    H     H_    0.648386 0.126896 0.364925 0.164668
H4    H     H_    0.932003 0.486423 0.265502 0.212681
H5    H     H_    0.054522 0.319119 0.402644 0.254905
H6    H     H_    0.097608 0.053851 0.743255 0.240879
H7    H     H_    0.894667 0.350930 0.634682 0.230249
H8    H     H_    0.138630 0.841999 0.791599 0.243040
H9    H     H_    0.307696 0.748570 0.675043 0.196424
H10   H     H_    0.671026 0.617321 0.122491 0.181411
H11   H     H_    0.088853 0.308617 0.121251 0.202313
N1    N     N_R   0.498800 0.498800 0.142780 -0.128920
N2    N     N_R   0.498760 0.498720 0.857170 -0.140770
O1    O     O_R   0.500000 0.316780 0.614690 -0.640110
O2    O     O_R   0.499990 0.316750 0.385360 -0.551288
O3    O     O_R   0.313960 0.499980 0.614650 -0.620155
O4    O     O_R   0.313940 0.499960 0.385310 -0.572912
O5    O     O_R   0.500010 0.683250 0.614640 -0.601623
O6    O     O_R   0.500000 0.683220 0.385310 -0.606694
O7    O     O_R   0.686060 0.500040 0.614690 -0.559032
O8    O     O_R   0.686040 0.500020 0.385350 -0.637678
Zn1   Zn    Zn3+2 0.500010 0.500020 0.653130 1.035127
Zn2   Zn    Zn3+2 0.499990 0.499980 0.346870 1.036235

loop_
_geom_bond_atom_site_label_1
_geom_bond_atom_site_label_2
_ccdc_geom_bond_type
C17   N2    A    
C6    H1    S    
C26   Cl7   S    
C12   H4    S    
O5    Zn1   S    
C4    O3    A    
C18   C21   S    
C11   C13   A    
C9    C10   A    
C12   C24   S    
C18   O7    A    
C23   H5    S    
C19   C20   S    
C20   C23   S    
C15   H10   S    
C29   H9    S    
C2    C30   A    
C3    C5    A    
C16   O6    A    
C2    C3    A    
O3    Zn1   S    
C16   O5    A    
C2    C26   A    
C7    C30   A    
O4    Zn2   S    
C21   C22   S    
C24   C25   S    
C15   N1    A    
C11   H2    S    
C22   Cl5   S    
C1    O1    A    
C12   C23   S    
C26   C27   A    
C24   Cl6   S    
N1    Zn2   S    
C17   Cl3   S    
N2    Zn1   S    
C28   C29   A    
C20   H7    S    
C4    C25   S    
C6    C7    A    
C23   C25   S    
C5    C6    A    
C19   C25   S    
C1    O2    A    
C22   C24   S    
C28   H8    S    
O7    Zn1   S    
C14   N1    A    
O1    Zn1   S    
C10   C11   A    
O8    Zn2   S    
C13   N2    A    
C10   Cl2   S    
C19   C22   S    
C20   C21   S    
C9    H11   S    
C5    H3    S    
C27   C28   A    
C15   C17   A    
C27   H6    S    
C7    C16   S    
C8    C14   A    
O2    Zn2   S    
C4    O4    A    
C13   C14   A    
C8    Cl1   S    
C12   C21   S    
C18   O8    A    
C29   C30   A    
O6    Zn2   S    
C8    C9    A    
C1    C3    S    
C19   Cl4   S    
