data_mof_unit_31343.cif
_audit_creation_date              2012-12-10T21:42:31-0500
_audit_creation_method            fapswitch 2.2
_symmetry_space_group_name_H-M    P1
_symmetry_Int_Tables_number       1
_space_group_crystal_system       triclinic
_cell_length_a                    10.683764
_cell_length_b                    16.096806
_cell_length_c                    16.685587
_cell_angle_alpha                 88.893632
_cell_angle_beta                  90.130076
_cell_angle_gamma                 92.165361
_cell_volume                      2866.90812172

loop_
_atom_site_label
_atom_site_type_symbol
_atom_type_description
_atom_site_fract_x
_atom_site_fract_y
_atom_site_fract_z
_atom_type_partial_charge
C1    C     C_R   0.490052 0.490030 0.652799 0.901268
C2    C     C_R   0.616677 0.454458 0.226955 -0.151684
C3    C     C_R   0.370844 0.546313 0.857064 -0.110916
C4    C     C_R   0.629155 0.453687 0.142936 -0.110916
C5    C     C_R   0.440238 0.490821 0.903766 0.236030
C6    C     C_R   0.559762 0.509178 0.096234 0.236030
C7    C     C_R   0.507622 0.428435 0.867705 -0.149118
C8    C     C_R   0.492378 0.571565 0.132295 -0.149118
C9    C     C_R   0.517106 0.425871 0.785282 -0.249080
C10   C     C_R   0.482894 0.574129 0.214717 -0.249079
C11   C     C_R   0.450709 0.762462 0.454952 -0.001794
C12   C     C_R   0.509948 0.509969 0.347201 0.901269
C13   C     C_R   0.549291 0.237537 0.545048 -0.001794
C14   C     C_R   0.453547 0.849728 0.457564 -0.272817
C15   C     C_R   0.546453 0.150272 0.542436 -0.272817
C16   C     C_R   0.740020 0.500015 0.498344 0.920665
C17   C     C_R   0.259980 0.499984 0.501656 0.920665
C18   C     C_R   0.523837 0.891141 0.517580 0.311758
C19   C     C_R   0.476163 0.108859 0.482419 0.311758
C20   C     C_R   0.589554 0.842339 0.572804 -0.251485
C21   C     C_R   0.410446 0.157661 0.427196 -0.251485
C22   C     C_R   0.584062 0.755288 0.568026 0.021131
C23   C     C_R   0.127595 0.499799 0.503100 -0.020124
C24   C     C_R   0.415938 0.244712 0.431974 0.021131
C25   C     C_R   0.781503 0.678942 0.290493 -0.112376
C26   C     C_R   0.218497 0.321058 0.709507 -0.112376
C27   C     C_R   0.841772 0.618353 0.335346 -0.149781
C28   C     C_R   0.158227 0.381647 0.664654 -0.149781
C29   C     C_R   0.883439 0.634382 0.413628 0.030273
C30   C     C_R   0.116561 0.365618 0.586372 0.030273
C31   C     C_R   0.866014 0.713903 0.446924 0.012956
C32   C     C_R   0.133986 0.286097 0.553076 0.012956
C33   C     C_R   0.805430 0.774197 0.400191 -0.168306
C34   C     C_R   0.872405 0.500201 0.496900 -0.020124
C35   C     C_R   0.194570 0.225803 0.599808 -0.168306
C36   C     C_R   0.762970 0.756581 0.322957 -0.129990
C37   C     C_R   0.237030 0.243419 0.677043 -0.129989
C38   C     C_R   0.070418 0.564945 0.462869 -0.177981
C39   C     C_R   0.929582 0.435055 0.537131 -0.177981
C40   C     C_2   0.906536 0.735973 0.529717 0.874528
C41   C     C_2   0.093464 0.264027 0.470283 0.874528
C42   C     C_2   0.680000 0.391069 0.276866 1.004202
C43   C     C_2   0.320000 0.608931 0.723134 1.004202
C44   C     C_2   0.713208 0.394872 0.103782 0.965783
C45   C     C_R   0.057952 0.434108 0.540795 0.056922
C46   C     C_2   0.286792 0.605128 0.896218 0.965783
C47   C     C_R   0.942048 0.565892 0.459205 0.056922
C48   C     C_R   0.461302 0.486451 0.737979 -0.116508
C49   C     C_R   0.538698 0.513549 0.262021 -0.116508
C50   C     C_R   0.383323 0.545542 0.773045 -0.151684
H1    H     H_    0.603699 0.269017 0.590882 0.132236
H2    H     H_    0.251031 0.334417 0.769547 0.151503
H3    H     H_    0.855992 0.558579 0.308968 0.182225
H4    H     H_    0.144008 0.441421 0.691033 0.182225
H5    H     H_    0.788991 0.835043 0.423726 0.186211
H6    H     H_    0.211009 0.164958 0.576274 0.186211
H7    H     H_    0.125736 0.614218 0.432936 0.141680
H8    H     H_    0.874264 0.385781 0.567064 0.141680
H9    H     H_    0.556458 0.383474 0.903917 0.206259
H10   H     H_    0.443542 0.616526 0.096083 0.206259
H11   H     H_    0.715636 0.803401 0.288155 0.145346
H12   H     H_    0.396301 0.730983 0.409118 0.132236
H13   H     H_    0.284364 0.196599 0.711845 0.145346
H14   H     H_    0.574189 0.379501 0.758667 0.164991
H15   H     H_    0.425811 0.620499 0.241333 0.164991
H16   H     H_    0.934780 0.826314 0.610851 0.353365
H17   H     H_    0.065221 0.173686 0.389149 0.353365
H18   H     H_    0.708690 0.269573 0.298587 0.353359
H19   H     H_    0.291310 0.730427 0.701413 0.353359
H20   H     H_    0.880722 0.340960 0.103831 0.354822
H21   H     H_    0.119278 0.659039 0.896169 0.354822
H22   H     H_    0.598931 0.116055 0.586794 0.164979
H23   H     H_    0.401068 0.883945 0.413206 0.164978
H24   H     H_    0.644828 0.871682 0.619594 0.170037
H25   H     H_    0.355172 0.128318 0.380406 0.170037
H26   H     H_    0.634960 0.718303 0.610981 0.154883
H27   H     H_    0.365040 0.281697 0.389019 0.154883
H28   H     H_    0.748969 0.665583 0.230453 0.151503
N1    N     N_2   0.445202 0.499897 0.987257 -0.141292
N2    N     N_2   0.554798 0.500103 0.012743 -0.141292
N3    N     N_R   0.515300 0.716920 0.509720 -0.095866
N4    N     N_R   0.484700 0.283080 0.490280 -0.095866
N5    N     N_2   0.531313 0.980036 0.525057 -0.173227
N6    N     N_2   0.468687 0.019964 0.474943 -0.173227
O1    O     O_R   0.494530 0.422540 0.612660 -0.627047
O2    O     O_R   0.906844 0.818945 0.553227 -0.817992
O3    O     O_2   0.061913 0.317513 0.422131 -0.601199
O4    O     O_R   0.093157 0.181055 0.446773 -0.817992
O5    O     O_2   0.748667 0.412599 0.331892 -0.631853
O6    O     O_R   0.661157 0.306685 0.260376 -0.781706
O7    O     O_2   0.251333 0.587401 0.668108 -0.631853
O8    O     O_R   0.338843 0.693314 0.739624 -0.781706
O9    O     O_2   0.678668 0.357692 0.043980 -0.623917
O10   O     O_R   0.832491 0.382330 0.135441 -0.785349
O11   O     O_2   0.321332 0.642308 0.956020 -0.623917
O12   O     O_R   0.505470 0.577460 0.387340 -0.627047
O13   O     O_R   0.167509 0.617670 0.864559 -0.785350
O14   O     O_R   0.504350 0.561840 0.618900 -0.614061
O15   O     O_R   0.495650 0.438160 0.381100 -0.614062
O16   O     O_R   0.678330 0.430350 0.496870 -0.598880
O17   O     O_R   0.321670 0.569650 0.503130 -0.598880
O18   O     O_R   0.688150 0.569660 0.503110 -0.624342
O19   O     O_R   0.311850 0.430340 0.496890 -0.624342
O20   O     O_2   0.938087 0.682487 0.577869 -0.601200
Zn1   Zn    Zn3+2 0.493440 0.406980 0.495830 0.981279
Zn2   Zn    Zn3+2 0.506560 0.593020 0.504170 0.981279

loop_
_geom_bond_atom_site_label_1
_geom_bond_atom_site_label_2
_ccdc_geom_bond_type
C33   H5    S    
C23   C45   A    
C27   C29   A    
C9    H14   S    
C14   C18   A    
C30   C45   S    
C22   H26   S    
C11   H12   S    
C33   C36   A    
C12   C49   S    
C26   C37   A    
C11   N3    A    
C15   C19   A    
C15   H22   S    
H21   O13   S    
O16   Zn1   S    
C17   C23   S    
C29   C47   S    
C35   C37   A    
C11   C14   A    
C41   O3    D    
C31   C40   S    
N4    Zn1   S    
C40   O2    S    
C17   O17   A    
C12   O15   A    
C24   N4    A    
C44   O9    D    
C16   C34   S    
C13   H1    S    
C46   O11   D    
H18   O6    S    
C32   C41   S    
C31   C33   A    
C5    N1    S    
H19   O8    S    
C39   C45   A    
C48   C50   A    
O1    Zn1   S    
C7    H9    S    
C37   H13   S    
C3    C50   A    
C22   N3    A    
C1    O1    A    
O15   Zn1   S    
C34   C39   A    
C32   C35   A    
C4    C6    A    
C5    C7    A    
C28   H4    S    
C16   O16   A    
C6    C8    A    
C4    C44   S    
C39   H8    S    
C13   N4    A    
C43   O7    D    
C25   H28   S    
C42   O6    S    
C2    C4    A    
C14   H23   S    
C2    C49   A    
C26   H2    S    
C40   O20   D    
C38   H7    S    
C6    N2    S    
N5    N6    D    
C18   N5    S    
H17   O4    S    
C20   H24   S    
O19   Zn1   S    
C38   C47   A    
C16   O18   A    
C46   O13   S    
C20   C22   A    
C13   C15   A    
C19   N6    S    
C43   C50   S    
C10   H15   S    
O17   Zn2   S    
C7    C9    A    
C41   O4    S    
O12   Zn2   S    
N3    Zn2   S    
H20   O10   S    
C35   H6    S    
C3    C5    A    
C1    O14   A    
H16   O2    S    
C27   H3    S    
C1    C48   S    
C25   C27   A    
C23   C38   A    
C21   H25   S    
C3    C46   S    
C26   C28   A    
C43   O8    S    
O14   Zn2   S    
C42   O5    D    
C28   C30   A    
C17   O19   A    
C29   C31   A    
C8    H10   S    
C30   C32   A    
C2    C42   S    
O18   Zn2   S    
C18   C20   A    
C44   O10   S    
C25   C36   A    
N1    N2    D    
C24   H27   S    
C9    C48   A    
C8    C10   A    
C21   C24   A    
C12   O12   A    
C34   C47   A    
C10   C49   A    
C36   H11   S    
C19   C21   A    
