data_mof_unit_57896.cif
_audit_creation_date              2013-03-05T16:23:13-0500
_audit_creation_method            fapswitch 2.2
_symmetry_space_group_name_H-M    P1
_symmetry_Int_Tables_number       1
_space_group_crystal_system       triclinic
_cell_length_a                    27.37677
_cell_length_b                    10.473988
_cell_length_c                    9.736584
_cell_angle_alpha                 90.553806
_cell_angle_beta                  89.464396
_cell_angle_gamma                 89.878833
_cell_volume                      2791.64747067

loop_
_atom_site_label
_atom_site_type_symbol
_atom_site_description
_atom_site_fract_x
_atom_site_fract_y
_atom_site_fract_z
_atom_type_partial_charge
O1    O     O_R   0.500000 0.313960 0.616610 -0.627310
O2    O     O_R   0.500000 0.686040 0.383390 -0.624471
O3    O     O_R   0.500020 0.313950 0.383350 -0.613820
O4    O     O_R   0.499980 0.686050 0.616650 -0.622796
C1    C     C_R   0.499948 0.257467 0.499291 0.883825
C2    C     C_R   0.499896 0.742556 0.500693 0.873050
O5    O     O_R   0.428750 0.500030 0.616610 -0.630956
O6    O     O_R   0.571250 0.499970 0.383390 -0.637700
O7    O     O_R   0.428770 0.500020 0.383360 -0.572928
O8    O     O_R   0.571230 0.499980 0.616640 -0.566318
C3    C     C_R   0.406001 0.495197 0.500249 0.913591
C4    C     C_R   0.594369 0.499041 0.499218 0.911249
Zn1   Zn    Zn3+2 0.499990 0.500010 0.655740 0.967460
Zn2   Zn    Zn3+2 0.500010 0.499990 0.344260 0.965382
C5    C     C_R   0.174879 0.352681 0.513893 0.509164
C6    C     C_R   0.826311 0.555872 0.412969 0.522562
O9    O     O_2   0.197474 0.264386 0.591124 -0.543772
O10   O     O_2   0.802911 0.668931 0.402336 -0.523462
N1    N     N_R   0.200316 0.455025 0.466543 -0.360856
N2    N     N_R   0.801049 0.449684 0.450246 -0.359165
C7    C     C_R   0.179317 0.546749 0.387303 0.551469
C8    C     C_R   0.822976 0.333141 0.463573 0.547042
C9    C     C_R   0.272692 0.536256 0.589874 0.221732
C10   C     C_R   0.719136 0.433207 0.351332 0.208413
C11   C     C_R   0.323949 0.545014 0.594705 -0.252643
C12   C     C_R   0.668826 0.446497 0.367481 -0.273964
C13   C     C_R   0.331605 0.395478 0.402373 0.244723
C14   C     C_R   0.678574 0.514320 0.605508 0.255775
C15   C     C_R   0.281227 0.387626 0.396304 -0.141101
C16   C     C_R   0.728974 0.499135 0.590091 -0.145489
C17   C     C_R   0.251896 0.458842 0.486511 0.198311
C18   C     C_R   0.749230 0.458931 0.464474 0.230636
C19   C     C_R   0.102751 0.432067 0.400697 -0.104730
C20   C     C_R   0.899776 0.427983 0.393681 -0.106175
C21   C     C_R   0.125675 0.338765 0.481789 0.007025
C22   C     C_R   0.876170 0.547594 0.384871 -0.003018
C23   C     C_R   0.098906 0.234809 0.531254 -0.112571
C24   C     C_R   0.902876 0.656875 0.350781 -0.110091
C25   C     C_R   0.129404 0.538704 0.352154 -0.136441
C26   C     C_R   0.873266 0.317700 0.432598 -0.142291
C27   C     C_R   0.353195 0.478042 0.499242 -0.154477
C28   C     C_R   0.647904 0.487499 0.492923 -0.148355
H1    H     H_    0.264407 0.326726 0.319689 0.181515
H2    H     H_    0.752790 0.520406 0.675524 0.173874
H3    H     H_    0.115639 0.163634 0.595806 0.195933
H4    H     H_    0.885632 0.749939 0.346822 0.216429
C29   C     C_R   0.975323 0.305234 0.392943 -0.049641
C30   C     C_R   0.028026 0.520971 0.307607 -0.050396
C31   C     C_R   0.976921 0.530198 0.328212 0.082137
C32   C     C_R   0.026064 0.312464 0.418374 0.081905
C33   C     C_R   0.950511 0.420593 0.369538 0.062643
C34   C     C_R   0.052477 0.420955 0.373691 0.061087
C35   C     C_R   0.948029 0.190573 0.399756 0.071421
C36   C     C_R   0.055844 0.611778 0.233679 0.070027
C37   C     C_R   0.897649 0.197239 0.432742 0.311780
C38   C     C_R   0.105620 0.628680 0.266368 0.308993
O11   O     O_2   0.795482 0.233908 0.504614 -0.482102
O12   O     O_2   0.207447 0.643060 0.341754 -0.492131
C39   C     C_R   0.049743 0.222371 0.500917 -0.242506
C40   C     C_R   0.952635 0.648538 0.324750 -0.253630
H5    H     H_    0.645928 0.423864 0.280349 0.178906
H6    H     H_    0.341616 0.605944 0.669425 0.170904
H7    H     H_    0.029906 0.144760 0.548100 0.158060
H8    H     H_    0.972344 0.736465 0.307926 0.158148
C41   C     C_3   0.540006 0.043005 0.563645 -0.171577
C42   C     C_3   0.459617 0.957072 0.436228 -0.152024
C43   C     C_3   0.540042 0.956550 0.434363 -0.172814
C44   C     C_3   0.459578 0.043580 0.565499 -0.155542
H9    H     H_    0.572741 0.916096 0.381341 0.153642
H10   H     H_    0.426874 0.084141 0.618401 0.156242
H11   H     H_    0.572670 0.083054 0.615146 0.152523
H12   H     H_    0.426943 0.917108 0.384704 0.155802
C45   C     C_3   0.499801 0.877632 0.501887 0.006992
C46   C     C_3   0.499837 0.122446 0.498008 0.017066
C47   C     C_3   0.499754 0.961391 0.631316 -0.144997
C48   C     C_3   0.499864 0.038722 0.368566 -0.126522
H13   H     H_    0.499710 0.925710 0.738340 0.146527
H14   H     H_    0.499877 0.074470 0.261568 0.149994
C49   C     C_3   0.487106 0.389837 0.047832 -0.066488
C50   C     C_3   0.512911 0.610148 0.952169 -0.057565
C51   C     C_3   0.530050 0.415495 0.949564 -0.068113
C52   C     C_3   0.469961 0.584505 0.050431 -0.079182
H15   H     H_    0.555339 0.344570 0.901788 0.142881
H16   H     H_    0.444705 0.655512 0.098199 0.136208
H17   H     H_    0.476248 0.297176 0.093214 0.153220
H18   H     H_    0.523832 0.702751 0.906765 0.138190
N3    N     N_3   0.499960 0.500030 0.863290 -0.080578
N4    N     N_3   0.500040 0.499970 0.136710 -0.081996
C53   C     C_3   0.457013 0.474376 0.952346 -0.054961
C54   C     C_3   0.542996 0.525602 0.047669 -0.047041
H19   H     H_    0.420836 0.452771 0.907214 0.146101
H20   H     H_    0.579189 0.547121 0.092778 0.144490
Br1   Br    Br    0.368560 0.286343 0.279614 -0.532271
Br2   Br    Br    0.655200 0.577091 0.780320 -0.549012
C55   C     C_3   0.739448 0.392225 0.212440 -0.422711
C56   C     C_3   0.734450 0.498799 0.107532 -0.757957
H21   H     H_    0.695407 0.523665 0.092425 0.271430
H22   H     H_    0.754514 0.585134 0.142630 0.282868
H23   H     H_    0.750098 0.466755 0.007324 0.260943
H24   H     H_    0.778541 0.364980 0.217531 0.214873
H25   H     H_    0.719464 0.306304 0.175642 0.221754
C57   C     C_3   0.239136 0.607560 0.689843 -0.392778
C58   C     C_3   0.264526 0.680674 0.805555 -0.805828
H26   H     H_    0.287294 0.614971 0.867089 0.263143
H27   H     H_    0.287424 0.758571 0.763064 0.259014
H28   H     H_    0.236532 0.724379 0.874737 0.281315
H29   H     H_    0.216590 0.676379 0.631657 0.236372
H30   H     H_    0.213965 0.537519 0.738021 0.221494
Br3   Br    Br    0.865122 0.039032 0.480555 -0.434499
Br4   Br    Br    0.137597 0.780671 0.197183 -0.456547
C59   C     C_3   0.970372 0.064577 0.349521 -0.402884
C60   C     C_3   0.949102 0.023580 0.211168 -0.802966
H31   H     H_    0.909525 0.002804 0.219494 0.288232
H32   H     H_    0.954747 0.100015 0.134322 0.263365
H33   H     H_    0.967929 0.935918 0.173446 0.231502
H34   H     H_    0.010185 0.072337 0.330581 0.225925
H35   H     H_    0.965035 0.988554 0.426882 0.230625
C61   C     C_3   0.034902 0.675560 0.106658 -0.400018
C62   C     C_3   0.058777 0.623398 0.974820 -0.780807
H36   H     H_    0.098555 0.642668 0.971658 0.285768
H37   H     H_    0.052934 0.518656 0.966755 0.254134
H38   H     H_    0.041945 0.669359 0.884438 0.246186
H39   H     H_    0.995430 0.656218 0.094569 0.215771
H40   H     H_    0.039195 0.780790 0.113333 0.233220

loop_
_geom_bond_atom_site_label_1
_geom_bond_atom_site_label_2
_geom_bond_distance
_ccdc_geom_bond_type
C42   C44   1.543737 S    
C13   C15   1.383576 A    
C55   C56   1.527118 S    
N1    C17   1.427815 S    
C8    O11   1.346184 S    
C60   H32   1.111116 S    
C19   C34   1.408484 A    
C30   C36   1.417311 A    
C20   C33   1.408389 A    
C19   C25   1.417940 A    
C52   C53   1.534598 S    
C46   C48   1.528401 S    
O1    C1    1.281367 A    
C32   C39   1.406555 A    
C48   H14   1.110434 S    
C21   C23   1.400536 A    
C12   H5    1.084241 S    
C10   C12   1.391363 A    
C50   N3    1.480892 S    
C9    C57   1.521670 S    
C44   C46   1.526342 S    
C56   H23   1.110570 S    
C1    C46   1.414152 S    
C14   Br2   1.922244 S    
C5    C21   1.393290 A    
O4    Zn1   1.989009 S    
C61   C62   1.530594 S    
C49   N4    1.480894 S    
C4    C28   1.470990 S    
C5    N1    1.361353 A    
C42   H12   1.110363 S    
C59   C60   1.530565 S    
C14   C16   1.395129 A    
C41   C43   1.543515 S    
C56   H22   1.111683 S    
C32   C34   1.417934 A    
C57   H30   1.111691 S    
C59   H34   1.107034 S    
C43   C45   1.526436 S    
C53   H19   1.110120 S    
O6    C4    1.298494 A    
C29   C35   1.417548 A    
C35   C59   1.527574 S    
C35   C37   1.414639 A    
C42   C48   1.542965 S    
C15   H1    1.083454 S    
C45   C47   1.528498 S    
C16   H2    1.083442 S    
O2    C2    1.281302 A    
C38   Br4   1.941651 S    
C60   H31   1.107964 S    
C51   H15   1.110253 S    
C29   C32   1.415359 A    
C62   H37   1.111143 S    
C36   C38   1.413389 A    
C24   H4    1.083341 S    
C50   C52   1.534729 S    
C10   C55   1.515247 S    
C11   C27   1.402918 A    
C49   C51   1.534662 S    
C55   H24   1.108722 S    
C29   C33   1.406415 A    
C31   C33   1.417592 A    
C41   H11   1.110392 S    
C42   C45   1.526701 S    
C41   C46   1.526321 S    
C44   C47   1.543153 S    
C9    C17   1.411148 A    
O5    C3    1.298555 A    
O7    Zn2   1.983630 S    
C10   C18   1.406093 A    
O7    C3    1.293963 A    
C13   C27   1.408401 A    
C54   H20   1.110235 S    
C25   C38   1.425679 A    
C7    C25   1.414236 A    
C30   C34   1.406268 A    
C6    N2    1.361399 A    
C26   C37   1.426189 A    
C8    C26   1.415266 A    
C56   H21   1.111057 S    
Zn1   N3    2.020818 S    
C31   C40   1.406169 A    
C57   H29   1.110877 S    
C58   H27   1.110683 S    
C6    O10   1.350474 S    
C61   H40   1.110016 S    
C61   H39   1.107029 S    
C47   H13   1.110422 S    
C23   C39   1.386779 A    
O3    Zn2   1.989011 S    
O8    C4    1.301816 A    
C24   C40   1.385703 A    
C51   C54   1.534541 S    
O4    C2    1.279821 A    
C30   C31   1.414507 A    
N4    C54   1.481034 S    
C52   H16   1.110226 S    
N3    C53   1.480957 S    
C20   C26   1.418258 A    
C13   Br1   1.924811 S    
O1    Zn1   1.981963 S    
C23   H3    1.083338 S    
C49   H17   1.110218 S    
C12   C28   1.407127 A    
C2    C45   1.414723 S    
N2    C18   1.427086 S    
C62   H38   1.110568 S    
C5    O9    1.350212 S    
O6    Zn2   1.990681 S    
C14   C28   1.413442 A    
N1    C7    1.367120 A    
N2    C8    1.366974 A    
O3    C1    1.279539 A    
O8    Zn1   1.983633 S    
C62   H36   1.108142 S    
C39   H7    1.082221 S    
C41   C47   1.542886 S    
C59   H35   1.110299 S    
C40   H8    1.081421 S    
C36   C61   1.527133 S    
Zn2   N4    2.020818 S    
C7    O12   1.346443 S    
C15   C17   1.394348 A    
C6    C22   1.391973 A    
C16   C18   1.398986 A    
C51   N3    1.480684 S    
C52   N4    1.480544 S    
C22   C24   1.400415 A    
C19   C21   1.412047 A    
C3    C27   1.457274 S    
C58   H28   1.110657 S    
C20   C22   1.412160 A    
C11   H6    1.081385 S    
C9    C11   1.407616 A    
C50   C54   1.534371 S    
C57   C58   1.529432 S    
O2    Zn2   1.981961 S    
C49   C53   1.534364 S    
C50   H18   1.110232 S    
O5    Zn1   1.990675 S    
C44   H10   1.110387 S    
C58   H26   1.110946 S    
C43   C48   1.543022 S    
C43   H9    1.110359 S    
C60   H33   1.109740 S    
C37   Br3   1.941370 S    
C55   H25   1.112252 S    
