data_mof_unit_24959.cif
_audit_creation_date              2012-12-11T14:04:16-0500
_audit_creation_method            fapswitch 2.2
_symmetry_space_group_name_H-M    P1
_symmetry_Int_Tables_number       1
_space_group_crystal_system       triclinic
_cell_length_a                    19.035269
_cell_length_b                    10.927804
_cell_length_c                    18.790915
_cell_angle_alpha                 89.938393
_cell_angle_beta                  90.28316
_cell_angle_gamma                 90.335886
_cell_volume                      3908.65050528

loop_
_atom_site_label
_atom_site_type_symbol
_atom_type_description
_atom_site_fract_x
_atom_site_fract_y
_atom_site_fract_z
_atom_type_partial_charge
C1    C     C_R   0.227263 0.511954 0.637623 0.565640
C2    C     C_R   0.993219 0.668479 0.575261 -0.040970
C3    C     C_3   0.505313 0.840517 0.083268 -0.294205
C4    C     C_3   0.563719 0.747602 0.095480 -0.451374
C5    C     C_3   0.439756 0.945902 0.914174 -0.208629
C6    C     C_3   0.487345 0.835229 0.897199 -0.278397
C7    C     C_3   0.445752 0.715178 0.895370 -0.472981
C8    C     C_R   0.505276 0.157815 0.425844 -0.036350
C9    C     C_R   0.493290 0.168467 0.575213 -0.040696
C10   C     C_R   0.035346 0.875806 0.422776 -0.087368
C11   C     C_R   0.005934 0.894965 0.567475 -0.068845
C12   C     C_R   0.535419 0.375797 0.422721 -0.087471
C13   C     C_R   0.506016 0.394962 0.567423 -0.068732
C14   C     C_R   0.043604 0.987538 0.457266 -0.132477
C15   C     C_R   0.027068 0.997929 0.529033 -0.126027
C16   C     C_R   0.543678 0.487531 0.457207 -0.132362
C17   C     C_R   0.760615 0.467494 0.353536 0.560842
C18   C     C_R   0.527148 0.497925 0.528976 -0.125927
C19   C     C_R   0.003919 0.778028 0.535269 0.012951
C20   C     C_R   0.013803 0.770799 0.460676 0.006896
C21   C     C_R   0.504002 0.278020 0.535222 0.013010
C22   C     C_R   0.513884 0.270794 0.460628 0.007061
C23   C     C_R   0.980507 0.557918 0.538774 0.012587
C24   C     C_R   0.000502 0.549252 0.467356 0.021225
C25   C     C_R   0.480605 0.057900 0.538716 0.012507
C26   C     C_R   0.500612 0.049253 0.467301 0.021681
C27   C     C_R   0.955385 0.451922 0.573958 -0.068887
C28   C     C_R   0.727263 0.011955 0.637621 0.564754
C29   C     C_R   0.012652 0.431305 0.438975 -0.084973
C30   C     C_R   0.455470 0.951891 0.573876 -0.068908
C31   C     C_R   0.512764 0.931320 0.438902 -0.084936
C32   C     C_R   0.962360 0.336987 0.543010 -0.132420
C33   C     C_R   0.993069 0.326590 0.476394 -0.151862
C34   C     C_R   0.462439 0.836968 0.542908 -0.132311
C35   C     C_R   0.493164 0.826592 0.476297 -0.151710
C36   C     C_2   0.245606 0.903089 0.927446 -0.124163
C37   C     C_2   0.775281 0.851059 0.065279 -0.113220
C38   C     C_2   0.753639 0.430541 0.916770 -0.108993
C39   C     C_R   0.260620 0.967508 0.353545 0.559318
C40   C     C_2   0.277041 0.344869 0.064991 -0.104266
C41   C     C_2   0.243061 0.900657 0.084137 -0.100704
C42   C     C_2   0.755939 0.890866 0.912179 -0.105375
C43   C     C_2   0.751309 0.435338 0.074246 -0.100302
C44   C     C_2   0.256093 0.392377 0.912626 -0.108717
C45   C     C_R   0.226887 0.874178 0.647431 0.549187
C46   C     C_R   0.771675 0.878862 0.350143 0.568989
C47   C     C_R   0.726883 0.374167 0.647424 0.547215
C48   C     C_R   0.271681 0.378846 0.350155 0.569927
C49   C     C_2   0.291850 0.846391 0.044854 -0.170605
C50   C     C_2   0.288381 0.842244 0.536896 -0.163763
C51   C     C_2   0.816630 0.911288 0.946871 -0.153871
C52   C     C_2   0.728402 0.523656 0.029832 -0.151928
C53   C     C_2   0.316536 0.414944 0.947556 -0.159618
C54   C     C_2   0.277382 0.820243 0.969802 -0.177279
C55   C     C_2   0.827664 0.879939 0.021368 -0.182124
C56   C     C_2   0.711913 0.500390 0.955867 -0.162221
C57   C     C_2   0.327749 0.386740 0.022505 -0.178235
C58   C     C_2   0.986929 0.644808 0.916824 -0.111098
C59   C     C_2   0.938114 0.634074 0.063827 -0.117196
C60   C     C_2   0.495275 0.157219 0.918249 -0.110938
C61   C     C_2   0.692596 0.894341 0.451300 -0.165975
C62   C     C_2   0.450172 0.145773 0.065615 -0.110566
C63   C     C_2   0.943068 0.526167 0.024644 -0.008741
C64   C     C_2   0.962652 0.535683 0.946638 0.002810
C65   C     C_2   0.480935 0.052690 0.029871 -0.010392
C66   C     C_2   0.475184 0.053816 0.951959 -0.016177
C67   C     C_R   0.026628 0.656124 0.646431 0.524330
C68   C     C_R   0.973216 0.654265 0.353782 0.548217
C69   C     C_R   0.526645 0.156123 0.646413 0.523440
C70   C     C_R   0.473239 0.154267 0.353761 0.544253
C71   C     C_R   0.239918 0.462584 0.849233 0.563144
C72   C     C_2   0.788348 0.342173 0.536877 -0.163476
C73   C     C_R   0.761285 0.468995 0.147994 0.535596
C74   C     C_R   0.739874 0.962412 0.849201 0.565460
C75   C     C_R   0.260249 0.964463 0.149793 0.540207
C76   C     C_R   0.226133 0.869293 0.855074 0.555777
C77   C     C_R   0.790277 0.827704 0.139425 0.544521
C78   C     C_R   0.728068 0.375663 0.851808 0.555587
C79   C     C_R   0.290993 0.325883 0.139770 0.550557
C80   C     C_R   0.027141 0.649620 0.850007 0.543955
C81   C     C_R   0.934122 0.643639 0.142406 0.553654
C82   C     C_R   0.526893 0.151824 0.848874 0.551724
C83   C     C_2   0.192595 0.394334 0.451309 -0.165689
C84   C     C_R   0.438497 0.146018 0.141835 0.554433
C85   C     C_2   0.248232 0.915329 0.577210 -0.108667
C86   C     C_2   0.744785 0.941836 0.412212 -0.113844
C87   C     C_2   0.748221 0.415292 0.577195 -0.108140
C88   C     C_2   0.244792 0.441816 0.412227 -0.112107
C89   C     C_2   0.246258 0.908548 0.421115 -0.119383
C90   C     C_2   0.736350 0.969272 0.565294 -0.111507
C91   C     C_2   0.746242 0.408518 0.421098 -0.120645
C92   C     C_2   0.236349 0.469258 0.565301 -0.111909
C93   C     C_2   0.298769 0.866108 0.461308 -0.161781
C94   C     C_R   0.005197 0.657813 0.425893 -0.036253
C95   C     C_2   0.681539 0.935178 0.524688 -0.164621
C96   C     C_2   0.798742 0.366031 0.461288 -0.162213
C97   C     C_2   0.181536 0.435177 0.524695 -0.164907
C98   C     C_3   0.944955 0.397831 0.063011 -0.226862
C99   C     C_3   0.910770 0.276764 0.035981 -0.355125
C100  C     C_3   0.899613 0.184881 0.096704 -0.446685
C101  C     C_3   0.959785 0.416862 0.902797 -0.181346
C102  C     C_3   0.027447 0.338194 0.910523 -0.265890
C103  C     C_3   0.023702 0.224735 0.863319 -0.444019
C104  C     C_3   0.535544 0.966690 0.062265 -0.197840
Cr1   Cr    Cr6+3 0.113970 0.508630 0.747920 0.997333
Cr2   Cr    Cr6+3 0.887700 0.820070 0.250200 1.011547
Cr3   Cr    Cr6+3 0.612300 0.320070 0.749800 1.006527
Cr4   Cr    Cr6+3 0.387700 0.320070 0.250200 1.014137
Cr5   Cr    Cr6+3 0.886030 0.508630 0.252080 0.988009
Cr6   Cr    Cr6+3 0.613970 0.008630 0.747920 0.999792
Cr7   Cr    Cr6+3 0.386030 0.008630 0.252080 0.994057
Cr8   Cr    Cr6+3 0.269200 0.666740 0.749850 0.988479
Cr9   Cr    Cr6+3 0.730800 0.666740 0.250150 0.991989
Cr10  Cr    Cr6+3 0.769200 0.166740 0.749850 0.996304
Cr11  Cr    Cr6+3 0.230800 0.166740 0.250150 1.007824
Cr12  Cr    Cr6+3 0.112300 0.820070 0.749800 1.009056
H1    H     H_    0.350710 0.852586 0.439348 0.172582
H2    H     H_    0.714862 0.832492 0.933496 0.087032
H3    H     H_    0.759573 0.342140 0.057059 0.093386
H4    H     H_    0.214961 0.334259 0.933837 0.083259
H5    H     H_    0.227422 0.989817 0.948527 0.100277
H6    H     H_    0.721330 0.842049 0.047285 0.093610
H7    H     H_    0.803612 0.402468 0.937189 0.091162
H8    H     H_    0.224978 0.321842 0.045593 0.104984
H9    H     H_    0.936164 0.721206 0.038215 0.066412
H10   H     H_    0.987896 0.730750 0.944804 0.078592
H11   H     H_    0.421867 0.214505 0.036041 0.063250
H12   H     H_    0.629006 0.929878 0.546781 0.170312
H13   H     H_    0.508429 0.238929 0.948676 0.090613
H14   H     H_    0.313643 0.761849 0.559083 0.149251
H15   H     H_    0.661045 0.818182 0.431818 0.146966
H16   H     H_    0.813592 0.261760 0.559063 0.149147
H17   H     H_    0.161037 0.318186 0.431824 0.146935
H18   H     H_    0.193702 0.916820 0.442849 0.119020
H19   H     H_    0.789509 0.968908 0.544452 0.113236
H20   H     H_    0.693689 0.416818 0.442834 0.119085
H21   H     H_    0.289510 0.468870 0.544463 0.113103
H22   H     H_    0.223615 0.996380 0.554947 0.114883
H23   H     H_    0.850679 0.352471 0.439327 0.172455
H24   H     H_    0.774092 0.021407 0.430734 0.109072
H25   H     H_    0.723619 0.496358 0.554933 0.115157
H26   H     H_    0.274104 0.521378 0.430752 0.109298
H27   H     H_    0.062728 0.065970 0.427898 0.108688
H28   H     H_    0.031448 0.085645 0.555328 0.109282
H29   H     H_    0.562798 0.565961 0.427835 0.108574
H30   H     H_    0.531525 0.585644 0.555266 0.109525
H31   H     H_    0.048965 0.870754 0.366983 0.126795
H32   H     H_    0.990651 0.908331 0.622238 0.132529
H33   H     H_    0.549027 0.370740 0.366925 0.125923
H34   H     H_    0.129000 0.429899 0.546783 0.170264
H35   H     H_    0.490728 0.408340 0.622182 0.132517
H36   H     H_    0.037346 0.419412 0.387690 0.136746
H37   H     H_    0.932728 0.457627 0.626628 0.126290
H38   H     H_    0.537452 0.919456 0.387609 0.134651
H39   H     H_    0.432789 0.957577 0.626535 0.127230
H40   H     H_    0.945121 0.255998 0.571293 0.103936
H41   H     H_    0.999643 0.237818 0.452553 0.107490
H42   H     H_    0.445177 0.755971 0.571168 0.104355
H43   H     H_    0.499729 0.737832 0.452440 0.107374
H44   H     H_    0.343737 0.827441 0.066170 0.139652
H45   H     H_    0.295736 0.733770 0.948675 0.163410
H46   H     H_    0.858429 0.964775 0.922545 0.149306
H47   H     H_    0.715922 0.614292 0.049416 0.142989
H48   H     H_    0.357850 0.469356 0.923098 0.149781
H49   H     H_    0.950564 0.162441 0.122512 0.152937
H50   H     H_    0.863037 0.221553 0.137185 0.169366
H51   H     H_    0.876029 0.099957 0.075102 0.170303
H52   H     H_    0.859411 0.293367 0.011596 0.155362
H53   H     H_    0.943003 0.227257 0.997329 0.170552
H54   H     H_    0.999609 0.379340 0.080849 0.155073
H55   H     H_    0.912516 0.406461 0.109195 0.227980
H56   H     H_    0.880264 0.893701 0.042384 0.129273
H57   H     H_    0.977223 0.167715 0.877070 0.139597
H58   H     H_    0.020134 0.252088 0.806469 0.152099
H59   H     H_    0.071824 0.169168 0.870996 0.147064
H60   H     H_    0.075785 0.389155 0.897507 0.212830
H61   H     H_    0.037610 0.310592 0.966134 0.135147
H62   H     H_    0.913075 0.362962 0.915413 0.114589
H63   H     H_    0.946659 0.435206 0.846186 0.157943
H64   H     H_    0.594611 0.734671 0.046082 0.134980
H65   H     H_    0.599171 0.779149 0.138883 0.181376
H66   H     H_    0.540455 0.658092 0.110943 0.148035
H67   H     H_    0.662820 0.536367 0.935087 0.149753
H68   H     H_    0.473905 0.845838 0.132550 0.195803
H69   H     H_    0.469645 0.805378 0.041511 0.155866
H70   H     H_    0.578114 0.954022 0.022664 0.128785
H71   H     H_    0.562704 0.009587 0.108455 0.170447
H72   H     H_    0.422820 0.694289 0.948159 0.137988
H73   H     H_    0.402909 0.720638 0.855193 0.180731
H74   H     H_    0.481152 0.638965 0.880643 0.137786
H75   H     H_    0.510996 0.844968 0.843799 0.192768
H76   H     H_    0.531134 0.826834 0.935753 0.166078
H77   H     H_    0.397292 0.915620 0.949661 0.150635
H78   H     H_    0.378979 0.410330 0.044523 0.140302
H79   H     H_    0.413481 0.977148 0.864441 0.141734
H80   H     H_    0.190577 0.913894 0.062326 0.119406
O1    O     O_R   0.043230 0.549300 0.667990 -0.528021
O2    O     O_R   0.832470 0.905110 0.169660 -0.517364
O3    O     O_R   0.667530 0.405110 0.830340 -0.513657
O4    O     O_R   0.332470 0.405110 0.169660 -0.510585
O5    O     O_R   0.054010 0.748440 0.822860 -0.492284
O6    O     O_R   0.945990 0.748440 0.177140 -0.503329
O7    O     O_R   0.554010 0.248440 0.822860 -0.498946
O8    O     O_R   0.445990 0.248440 0.177140 -0.511960
O9    O     O_3   0.165160 0.665150 0.749190 -0.250193
O10   O     O_3   0.834840 0.665150 0.250810 -0.277247
O11   O     O_3   0.665160 0.165150 0.749190 -0.251026
O12   O     O_R   0.956770 0.549300 0.332010 -0.516505
O13   O     O_3   0.334840 0.165150 0.250810 -0.279599
O14   O     O_R   0.178620 0.457600 0.674100 -0.487741
O15   O     O_R   0.821380 0.457600 0.325900 -0.488547
O16   O     O_R   0.678620 0.957600 0.674100 -0.489694
O17   O     O_R   0.321380 0.957600 0.325900 -0.489483
O18   O     O_R   0.284680 0.542100 0.669460 -0.524495
O19   O     O_R   0.715320 0.542100 0.330540 -0.519274
O20   O     O_R   0.784680 0.042100 0.669460 -0.524970
O21   O     O_R   0.215320 0.042100 0.330540 -0.520649
O22   O     O_R   0.262860 0.790390 0.676650 -0.516407
O23   O     O_R   0.543230 0.049300 0.667990 -0.529353
O24   O     O_R   0.737140 0.790390 0.323350 -0.491691
O25   O     O_R   0.762860 0.290390 0.676650 -0.517887
O26   O     O_R   0.237140 0.290390 0.323350 -0.491507
O27   O     O_R   0.167460 0.907030 0.670940 -0.508629
O28   O     O_R   0.832540 0.907030 0.329060 -0.506414
O29   O     O_R   0.667460 0.407030 0.670940 -0.509448
O30   O     O_R   0.332540 0.407030 0.329060 -0.506260
O31   O     O_R   0.053950 0.750220 0.675100 -0.505914
O32   O     O_R   0.946050 0.750220 0.324900 -0.489174
O33   O     O_R   0.553950 0.250220 0.675100 -0.506716
O34   O     O_R   0.456770 0.049300 0.332010 -0.519372
O35   O     O_R   0.446050 0.250220 0.324900 -0.490099
O36   O     O_R   0.043300 0.547370 0.827390 -0.532962
O37   O     O_R   0.956700 0.547370 0.172610 -0.532994
O38   O     O_R   0.543300 0.047370 0.827390 -0.523649
O39   O     O_R   0.456700 0.047370 0.172610 -0.527162
O40   O     O_R   0.178690 0.455820 0.821860 -0.507515
O41   O     O_R   0.821310 0.455820 0.178140 -0.544967
O42   O     O_R   0.678690 0.955820 0.821860 -0.499371
O43   O     O_R   0.321310 0.955820 0.178140 -0.515915
O44   O     O_R   0.284750 0.540170 0.828860 -0.522626
O45   O     O_R   0.262920 0.788600 0.824420 -0.506703
O46   O     O_R   0.715250 0.540170 0.171140 -0.517144
O47   O     O_R   0.784750 0.040170 0.828860 -0.514060
O48   O     O_R   0.215250 0.040170 0.171140 -0.524856
O49   O     O_R   0.737080 0.788600 0.175580 -0.513921
O50   O     O_R   0.762920 0.288600 0.824420 -0.504315
O51   O     O_R   0.237080 0.288600 0.175580 -0.496306
O52   O     O_R   0.167530 0.905110 0.830340 -0.512385

loop_
_geom_bond_atom_site_label_1
_geom_bond_atom_site_label_2
_ccdc_geom_bond_type
C3    C104  S    
C27   H37   S    
C63   C98   S    
C43   C73   S    
C101  C102  S    
C29   C33   A    
C8    C26   A    
Cr11  O26   S    
C75   O43   A    
C19   C20   A    
C17   C91   S    
C37   C55   D    
C72   C87   D    
C96   H23   S    
C70   O34   A    
Cr4   O13   S    
C9    C25   A    
C90   C95   D    
Cr10  O50   S    
C73   O41   A    
C11   C19   A    
Cr4   O30   S    
C13   C18   A    
C51   H46   S    
C100  H51   S    
Cr11  O48   S    
C9    C69   S    
Cr8   O9    S    
C41   H80   S    
C69   O33   A    
C5    C6    S    
C43   C52   D    
Cr2   O6    S    
C44   H4    S    
C102  H60   S    
C49   C54   S    
C80   O5    A    
C12   C22   A    
C103  H57   S    
C98   H54   S    
C46   O28   A    
Cr10  O11   S    
C44   C71   S    
C100  H50   S    
C34   C35   A    
C41   C49   D    
C70   O35   A    
C20   C94   A    
C75   O48   A    
C50   H14   S    
C50   C85   D    
C78   O50   A    
C91   C96   D    
C24   C29   A    
C60   C82   S    
C44   C53   D    
Cr2   O28   S    
C91   H20   S    
C12   C16   A    
Cr2   O32   S    
C10   C20   A    
Cr8   O44   S    
C36   H5    S    
C6    H75   S    
C68   O12   A    
Cr7   O39   S    
C97   H34   S    
C48   C88   S    
C49   H44   S    
Cr6   O11   S    
C101  H62   S    
C23   C27   A    
C4    H65   S    
C36   C76   S    
C3    H68   S    
Cr9   O24   S    
Cr3   O11   S    
Cr12  O9    S    
C58   C80   S    
C42   C51   D    
Cr2   O2    S    
C84   O8    A    
C11   C15   A    
Cr1   O1    S    
C83   C88   D    
C47   O25   A    
C60   C66   D    
C26   C31   A    
C54   H45   S    
C32   H40   S    
C21   C22   A    
C45   O22   A    
C76   O52   A    
C93   H1    S    
Cr5   O10   S    
C80   O36   A    
C92   H21   S    
C3    H69   S    
C88   H26   S    
C33   H41   S    
C92   C97   D    
C72   H16   S    
Cr11  O51   S    
C58   C64   D    
C64   C101  S    
C40   H8    S    
C42   C74   S    
C46   O24   A    
C30   C34   A    
Cr12  O31   S    
C45   O27   A    
Cr1   O36   S    
Cr12  O52   S    
C7    H72   S    
C84   O39   A    
Cr4   O4    S    
C13   H35   S    
C2    C67   S    
C10   C14   A    
C28   O20   A    
Cr11  O13   S    
C68   O32   A    
C42   H2    S    
C38   C78   S    
C95   H12   S    
C67   O1    A    
C25   C26   A    
C2    C19   A    
C37   C77   S    
C103  H58   S    
C68   C94   S    
Cr1   O14   S    
C63   C64   S    
C32   C33   A    
C100  H49   S    
C47   C87   S    
C74   O42   A    
Cr5   O12   S    
C45   C85   S    
Cr7   O13   S    
Cr3   O7    S    
C101  H63   S    
C24   C94   A    
C41   C75   S    
C48   O30   A    
C8    C22   A    
C99   C100  S    
C47   O29   A    
C67   O31   A    
C23   C24   A    
C2    C23   A    
C103  H59   S    
C1    O14   A    
C40   C79   S    
C13   C21   A    
C7    H74   S    
Cr12  O5    S    
C71   O40   A    
C87   H25   S    
Cr6   O23   S    
C79   O51   A    
C6    C7    S    
C50   C93   S    
C98   H55   S    
C34   H42   S    
C30   H39   S    
Cr11  O21   S    
Cr10  O20   S    
C58   H10   S    
C1    C92   S    
Cr8   O18   S    
Cr3   O33   S    
Cr1   O40   S    
C81   O37   A    
C59   H9    S    
C78   O3    A    
C74   O47   A    
C3    C4    S    
C55   H56   S    
C40   C57   D    
C31   H38   S    
C15   H28   S    
C5    H77   S    
C99   H52   S    
C77   O2    A    
C25   C30   A    
C102  H61   S    
C104  H71   S    
C62   C84   S    
C14   H27   S    
Cr8   O45   S    
C53   C57   S    
C89   H18   S    
C62   C65   D    
Cr7   O43   S    
C27   C32   A    
C69   O23   A    
C59   C63   D    
C12   H33   S    
C39   O21   A    
Cr6   O16   S    
C59   C81   S    
C5    C66   S    
C17   O15   A    
Cr7   O17   S    
C60   H13   S    
Cr2   O10   S    
C61   C95   S    
C53   H48   S    
Cr1   O9    S    
C81   O6    A    
C99   H53   S    
C56   H67   S    
Cr5   O41   S    
C77   O49   A    
C28   O16   A    
C104  H70   S    
C10   H31   S    
Cr6   O42   S    
C8    C70   S    
C5    H79   S    
C57   H78   S    
C39   O17   A    
Cr9   O10   S    
Cr12  O27   S    
C82   O38   A    
C76   O45   A    
C4    H64   S    
Cr4   O8    S    
Cr5   O15   S    
C73   O46   A    
C29   H36   S    
Cr3   O3    S    
C90   H19   S    
C9    C21   A    
C82   O7    A    
C48   O26   A    
Cr9   O49   S    
Cr3   O29   S    
C31   C35   A    
C71   O44   A    
Cr10  O47   S    
C51   C55   S    
C65   C66   S    
Cr10  O25   S    
C89   C93   D    
C102  C103  S    
C11   H32   S    
C35   H43   S    
C83   H17   S    
C36   C54   D    
C61   C86   D    
C61   H15   S    
C52   H47   S    
C37   H6    S    
C72   C96   S    
Cr6   O38   S    
C62   H11   S    
C7    H73   S    
C79   O4    A    
C38   C56   D    
C18   H30   S    
C16   C18   A    
C98   C99   S    
C83   C97   S    
C38   H7    S    
C6    H76   S    
C1    O18   A    
Cr9   O46   S    
Cr7   O34   S    
Cr8   O22   S    
C14   C15   A    
C16   H29   S    
C28   C90   S    
C86   H24   S    
C85   H22   S    
C65   C104  S    
C4    H66   S    
C17   O19   A    
Cr9   O19   S    
C39   C89   S    
C52   C56   S    
C43   H3    S    
C46   C86   S    
Cr4   O35   S    
Cr5   O37   S    
