data_mof_unit_64513.cif
_audit_creation_date              2012-12-10T19:17:21-0500
_audit_creation_method            fapswitch 2.2
_symmetry_space_group_name_H-M    P1
_symmetry_Int_Tables_number       1
_space_group_crystal_system       triclinic
_cell_length_a                    15.997833
_cell_length_b                    14.76418
_cell_length_c                    15.911746
_cell_angle_alpha                 89.910693
_cell_angle_beta                  89.948236
_cell_angle_gamma                 90.003743
_cell_volume                      3758.26692526

loop_
_atom_site_label
_atom_site_type_symbol
_atom_type_description
_atom_site_fract_x
_atom_site_fract_y
_atom_site_fract_z
_atom_type_partial_charge
C1    C     C_R   0.340826 0.499998 0.499945 0.837264
C2    C     C_3   0.574038 0.527959 0.952791 -0.500255
C3    C     C_3   0.571191 0.534333 0.049403 -0.524421
C4    C     C_1   0.492953 0.498863 0.824906 0.017593
C5    C     C_1   0.491970 0.498266 0.175456 0.154953
C6    C     C_1   0.496633 0.499827 0.250644 -0.045024
C7    C     C_R   0.956417 0.575449 0.469204 -0.163300
C8    C     C_R   0.956362 0.424383 0.529654 -0.160610
C9    C     C_R   0.912798 0.499931 0.499472 0.145229
C10   C     C_R   0.043600 0.424375 0.529621 -0.156598
C11   C     C_R   0.043659 0.575439 0.469168 -0.146429
C12   C     C_R   0.087218 0.499912 0.499405 0.142719
C13   C     C_1   0.823342 0.499981 0.499631 -0.054119
C14   C     C_R   0.500044 0.500043 0.339899 0.826924
C15   C     C_1   0.176668 0.499964 0.499550 -0.033176
C16   C     C_1   0.251711 0.499989 0.499729 -0.123151
C17   C     C_1   0.748293 0.500002 0.499786 -0.154071
C18   C     C_R   0.515442 0.952382 0.566352 -0.217261
C19   C     C_R   0.515019 0.047430 0.566434 -0.209734
C20   C     C_R   0.496705 0.902949 0.493570 -0.123348
C21   C     C_R   0.500123 0.097086 0.492739 -0.120550
C22   C     C_R   0.477039 0.951395 0.418489 0.334137
C23   C     C_R   0.485030 0.048863 0.416604 0.273890
C24   C     C_1   0.498776 0.802670 0.497699 0.281873
C25   C     C_1   0.500052 0.197340 0.497374 0.287679
C26   C     C_R   0.659168 0.500002 0.499949 0.811996
C27   C     C_R   0.499862 0.499917 0.660218 0.809967
C28   C     C_3   0.413648 0.565377 0.051143 0.457358
C29   C     C_3   0.481134 0.392289 0.049603 0.412934
C30   C     C_3   0.469073 0.396031 0.948534 0.193558
C31   C     C_3   0.417714 0.568798 0.949244 0.164800
C32   C     C_1   0.496812 0.499576 0.749617 -0.174518
C33   C     C_3   0.485727 0.496104 0.083536 0.008503
C34   C     C_3   0.487217 0.497553 0.917221 0.168286
Cu1   Cu    Cu3+1 0.500000 0.589220 0.500020 1.029789
Cu2   Cu    Cu3+1 0.500000 0.410780 0.500020 1.048606
H1    H     H_    0.586547 0.603635 0.069647 0.197332
H2    H     H_    0.625850 0.499165 0.077275 0.213010
H3    H     H_    0.595472 0.593066 0.925554 0.192575
H4    H     H_    0.625049 0.481635 0.934123 0.188121
H5    H     H_    0.077078 0.634108 0.445700 0.159690
H6    H     H_    0.076971 0.365715 0.553106 0.150179
H7    H     H_    0.923045 0.634127 0.445761 0.149415
H8    H     H_    0.922949 0.365727 0.553156 0.146326
H9    H     H_    0.527702 0.082647 0.624737 0.165249
H10   H     H_    0.529457 0.916990 0.624354 0.162851
N1    N     N_1   0.499980 0.276710 0.500030 -0.137403
N2    N     N_1   0.499980 0.723290 0.500030 -0.140063
O1    O     O_R   0.380310 0.575320 0.500040 -0.558200
O2    O     O_R   0.380310 0.424680 0.500040 -0.564111
O3    O     O_R   0.500000 0.575380 0.379460 -0.550728
O4    O     O_R   0.500000 0.424620 0.379460 -0.524517
O5    O     O_R   0.619690 0.575360 0.500000 -0.577936
O6    O     O_R   0.619690 0.424640 0.500000 -0.572326
O7    O     O_R   0.500000 0.575310 0.620580 -0.587786
O8    O     O_R   0.500000 0.424690 0.620580 -0.571467
N3    N     N_3   0.335532 0.547471 0.912799 -0.511805
H11   H     H_    0.339145 0.544351 0.847285 0.220808
H12   H     H_    0.294243 0.600666 0.925795 0.282612
N4    N     N_3   0.384467 0.369638 0.922001 -0.521960
H13   H     H_    0.339557 0.396823 0.960687 0.316728
H14   H     H_    0.376998 0.299365 0.925681 0.277056
S1    S     S_3+6 0.439863 0.889065 0.329748 0.055119
O9    O     O_2   0.513367 0.862348 0.276365 -0.285624
O10   O     O_2   0.394912 0.804712 0.357425 -0.273503
O11   O     O_3   0.372546 0.950528 0.272010 -0.431825
H15   H     H_    0.363300 0.914519 0.220371 0.386532
S2    S     S_3+6 0.479714 0.111367 0.320334 0.082883
O12   O     O_2   0.390206 0.136570 0.303941 -0.177801
O13   O     O_2   0.530445 0.196906 0.325248 -0.279643
O14   O     O_3   0.516126 0.050898 0.238704 -0.441154
H16   H     H_    0.576384 0.042339 0.250584 0.351490
S3    S     S_3+6 0.308286 0.541253 0.095563 0.044638
O15   O     O_2   0.315924 0.494804 0.179281 -0.222831
O16   O     O_2   0.264190 0.629667 0.111221 -0.273010
O17   O     O_3   0.242877 0.481077 0.034606 -0.513204
H17   H     H_    0.189489 0.478753 0.066132 0.392626
S4    S     S_3+6 0.405543 0.317732 0.104215 0.047130
O18   O     O_2   0.425287 0.316703 0.196548 -0.191778
O19   O     O_2   0.314861 0.339592 0.093932 -0.218551
O20   O     O_3   0.418935 0.211777 0.067568 -0.554060
H18   H     H_    0.392466 0.171805 0.109990 0.420312
N5    N     N_3   0.562151 0.348253 0.071406 -0.559776
H19   H     H_    0.559318 0.277732 0.067156 0.279070
H20   H     H_    0.611771 0.366051 0.032520 0.187953
N6    N     N_3   0.430361 0.656787 0.086737 -0.521004
H21   H     H_    0.386696 0.703421 0.063941 0.278881
H22   H     H_    0.487272 0.685929 0.071593 0.199950
N7    N     N_3   0.525019 0.331699 0.904259 -0.571358
H23   H     H_    0.519942 0.266604 0.929690 0.249950
H24   H     H_    0.587692 0.350085 0.901506 0.204025
N8    N     N_3   0.438017 0.661478 0.919074 -0.618933
H25   H     H_    0.436522 0.664238 0.853422 0.230120
H26   H     H_    0.496560 0.684658 0.937382 0.218233

loop_
_geom_bond_atom_site_label_1
_geom_bond_atom_site_label_2
_ccdc_geom_bond_type
S1    O10   D    
C29   C33   S    
C10   H6    S    
S3    O15   D    
Cu1   Cu2   S    
O20   H18   S    
C7    C11   A    
N5    H19   S    
C17   C26   S    
C19   C21   A    
C29   N5    S    
C5    C6    T    
C27   O7    A    
N3    H12   S    
Cu1   O5    S    
C3    C33   S    
C15   C16   T    
C26   O6    A    
Cu2   N1    S    
N4    H14   S    
C18   C19   A    
C9    C13   S    
C22   S1    S    
C2    H3    S    
C14   O4    A    
C29   S4    S    
C20   C24   S    
C3    H2    S    
Cu1   N2    S    
C8    C9    A    
C5    C33   S    
Cu1   O1    S    
C7    H7    S    
N7    H24   S    
C1    O2    A    
C25   N1    T    
C18   C20   A    
Cu2   O4    S    
C2    C34   S    
O11   H15   S    
S1    O11   S    
S3    O16   D    
C30   N7    S    
C28   S3    S    
C18   H10   S    
C4    C34   S    
C30   C34   S    
N6    H22   S    
Cu1   O7    S    
C24   N2    T    
O17   H17   S    
C27   O8    A    
S2    O12   D    
C30   N4    S    
N4    H13   S    
C23   S2    S    
C29   C30   S    
Cu2   O8    S    
C6    C14   S    
C14   O3    A    
C12   C15   S    
N8    H26   S    
C31   C34   S    
C1    C16   S    
C4    C32   T    
C10   C12   A    
S2    O13   D    
N5    H20   S    
C20   C22   A    
C28   C33   S    
C21   C23   A    
Cu1   O3    S    
S3    O17   S    
C26   O5    A    
Cu2   O2    S    
C7    C9    A    
C21   C25   S    
C27   C32   S    
N6    H21   S    
C28   C31   S    
C8    H8    S    
C11   C12   A    
C19   H9    S    
C13   C17   T    
C31   N3    S    
C2    C3    S    
O14   H16   S    
C28   N6    S    
S4    O18   D    
S4    O20   S    
N3    H11   S    
S2    O14   S    
N8    H25   S    
C11   H5    S    
S4    O19   D    
Cu2   O6    S    
S1    O9    D    
C2    H4    S    
C3    H1    S    
C8    C10   A    
C31   N8    S    
C22   C23   A    
N7    H23   S    
C1    O1    A    
