data_mof_unit_60908.cif
_audit_creation_date              2013-03-05T16:30:36-0500
_audit_creation_method            fapswitch 2.2
_symmetry_space_group_name_H-M    P1
_symmetry_Int_Tables_number       1
_space_group_crystal_system       triclinic
_cell_length_a                    32.087553
_cell_length_b                    32.083195
_cell_length_c                    30.242459
_cell_angle_alpha                 89.998118
_cell_angle_beta                  89.994168
_cell_angle_gamma                 89.958898
_cell_volume                      31133.7329728

loop_
_atom_site_label
_atom_site_type_symbol
_atom_site_description
_atom_site_fract_x
_atom_site_fract_y
_atom_site_fract_z
_atom_type_partial_charge
O1    O     O_R   0.439020 0.965540 0.000010 -0.598515
O2    O     O_R   0.965540 0.560980 0.000010 -0.598730
O3    O     O_R   0.560980 0.034460 0.000010 -0.601815
O4    O     O_R   0.034460 0.439020 0.000010 -0.597459
O5    O     O_R   0.439020 0.034460 0.999990 -0.598491
O6    O     O_R   0.965540 0.439020 0.999990 -0.598683
O7    O     O_R   0.560980 0.965540 0.999990 -0.602938
O8    O     O_R   0.034460 0.560980 0.999990 -0.597030
O9    O     O_R   0.939020 0.465540 0.500010 -0.598308
O10   O     O_R   0.465540 0.060980 0.500010 -0.619752
O11   O     O_R   0.060980 0.534460 0.500010 -0.602456
O12   O     O_R   0.534460 0.939020 0.500010 -0.596901
O13   O     O_R   0.939020 0.534460 0.499990 -0.598350
O14   O     O_R   0.465540 0.939020 0.499990 -0.598324
O15   O     O_R   0.060980 0.465540 0.499990 -0.603839
O16   O     O_R   0.534460 0.060980 0.499990 -0.586799
C1    C     C_R   0.419352 0.000013 0.999999 0.937772
C2    C     C_R   0.999987 0.580646 0.999999 0.937787
C3    C     C_R   0.580649 0.999986 0.999999 0.946733
C4    C     C_R   0.000014 0.419354 0.000001 0.937494
C5    C     C_R   0.919351 0.500014 0.500000 0.938725
C6    C     C_R   0.499966 0.080662 0.499989 0.939074
C7    C     C_R   0.080648 0.499987 0.500000 0.947189
C8    C     C_R   0.500014 0.919353 0.500000 0.939673
O17   O     O_R   0.500030 0.965530 0.066070 -0.591791
O18   O     O_R   0.965530 0.499970 0.066070 -0.588670
O19   O     O_R   0.499970 0.034470 0.066070 -0.584322
O20   O     O_R   0.034470 0.500030 0.066070 -0.587347
O21   O     O_R   0.500030 0.034470 0.933930 -0.591255
O22   O     O_R   0.965530 0.500030 0.933930 -0.588789
O23   O     O_R   0.499970 0.965530 0.933930 -0.585017
O24   O     O_R   0.034470 0.499970 0.933930 -0.587234
O25   O     O_R   0.000030 0.465530 0.566070 -0.591455
O26   O     O_R   0.465530 0.999970 0.566070 -0.590642
O27   O     O_R   0.999970 0.534470 0.566070 -0.585182
O28   O     O_R   0.534470 0.000030 0.566070 -0.587734
O29   O     O_R   0.000030 0.534470 0.433930 -0.591146
O30   O     O_R   0.465530 0.000030 0.433930 -0.592432
O31   O     O_R   0.999970 0.465530 0.433930 -0.585651
O32   O     O_R   0.534470 0.999970 0.433930 -0.583012
C9    C     C_R   0.499985 1.000000 0.086826 0.995617
C10   C     C_R   0.999998 0.499999 0.086829 0.990782
C11   C     C_R   0.499997 0.000001 0.913169 0.994680
C12   C     C_R   0.000001 0.499999 0.913171 0.990916
C13   C     C_R   0.999995 0.500000 0.586826 0.996162
C14   C     C_R   0.499992 0.000018 0.586824 0.990153
C15   C     C_R   0.999993 0.500000 0.413173 0.995883
C16   C     C_R   0.500001 0.000022 0.413171 0.994422
Zn1   Zn    Zn3+2 0.500000 0.953990 0.000000 1.136224
Zn2   Zn    Zn3+2 0.953990 0.500000 0.000000 1.138368
Zn3   Zn    Zn3+2 0.500000 0.046010 0.000000 1.138697
Zn4   Zn    Zn3+2 0.046010 0.500000 0.000000 1.143262
Zn5   Zn    Zn3+2 0.000000 0.453990 0.500000 1.134225
Zn6   Zn    Zn3+2 0.453990 0.000000 0.500000 1.119058
Zn7   Zn    Zn3+2 0.000000 0.546010 0.500000 1.136234
Zn8   Zn    Zn3+2 0.546010 0.000000 0.500000 1.150905
C17   C     C_R   0.472814 0.026931 0.342695 0.233951
C18   C     C_R   0.027038 0.526995 0.342699 0.234304
C19   C     C_R   0.527172 0.973112 0.342683 0.224357
C20   C     C_R   0.972939 0.472998 0.342706 0.221718
C21   C     C_R   0.472957 0.972991 0.657298 0.224463
C22   C     C_R   0.027059 0.472982 0.657294 0.234805
C23   C     C_R   0.526876 0.027164 0.657290 0.217209
C24   C     C_R   0.972925 0.527021 0.657300 0.221848
C25   C     C_R   0.972826 0.526912 0.842690 0.223307
C26   C     C_R   0.526911 0.027130 0.842681 0.234452
C27   C     C_R   0.027159 0.473071 0.842684 0.222771
C28   C     C_R   0.473038 0.972907 0.842689 0.221401
C29   C     C_R   0.972847 0.473098 0.157316 0.222519
C30   C     C_R   0.527058 0.973004 0.157296 0.234792
C31   C     C_R   0.027134 0.526908 0.157311 0.223333
C32   C     C_R   0.472863 0.026981 0.157297 0.222391
C33   C     C_R   0.499999 0.000025 0.365382 -0.296851
C34   C     C_R   0.999987 0.499999 0.365390 -0.296411
C35   C     C_R   0.499957 0.000042 0.634607 -0.298052
C36   C     C_R   0.999990 0.500000 0.634610 -0.296329
C37   C     C_R   0.999999 0.499997 0.865381 -0.296728
C38   C     C_R   0.499984 0.000008 0.865378 -0.296192
C39   C     C_R   0.999993 0.500002 0.134620 -0.296729
C40   C     C_R   0.499967 0.999996 0.134609 -0.295663
C41   C     C_R   0.527309 0.973139 0.296432 0.001140
C42   C     C_R   0.972971 0.472851 0.296454 -0.000523
C43   C     C_R   0.472624 0.026857 0.296441 0.000277
C44   C     C_R   0.026990 0.527163 0.296448 0.000302
C45   C     C_R   0.527053 0.027106 0.703541 -0.000954
C46   C     C_R   0.972956 0.527166 0.703552 -0.000183
C47   C     C_R   0.472778 0.973052 0.703550 -0.001069
C48   C     C_R   0.027012 0.472815 0.703545 0.000483
C49   C     C_R   0.027305 0.473104 0.796432 -0.000043
C50   C     C_R   0.473069 0.972762 0.796437 0.000039
C51   C     C_R   0.972666 0.526868 0.796439 -0.000954
C52   C     C_R   0.526826 0.027332 0.796429 -0.000906
C53   C     C_R   0.027281 0.526873 0.203562 -0.000243
C54   C     C_R   0.472888 0.027125 0.203550 -0.000327
C55   C     C_R   0.972685 0.473145 0.203567 -0.001176
C56   C     C_R   0.527007 0.972835 0.203547 0.000963
C57   C     C_R   0.499957 0.999990 0.273257 0.030048
C58   C     C_R   0.999977 0.500011 0.273271 0.029628
C59   C     C_R   0.499923 0.000072 0.726726 0.030879
C60   C     C_R   0.999981 0.499986 0.726729 0.029632
C61   C     C_R   0.999983 0.499985 0.773256 0.031132
C62   C     C_R   0.499937 0.000058 0.773253 0.029436
C63   C     C_R   0.999979 0.500011 0.226744 0.031093
C64   C     C_R   0.499947 0.999980 0.226729 0.030602
C65   C     C_R   0.553818 0.946387 0.272865 -0.133202
C66   C     C_R   0.946078 0.446525 0.272893 -0.133691
C67   C     C_R   0.446081 0.053575 0.272878 -0.122462
C68   C     C_R   0.053880 0.553494 0.272883 -0.130844
C69   C     C_R   0.553391 0.053989 0.727098 -0.130823
C70   C     C_R   0.946042 0.553509 0.727118 -0.133853
C71   C     C_R   0.446446 0.946164 0.727118 -0.135712
C72   C     C_R   0.053922 0.446465 0.727105 -0.130972
C73   C     C_R   0.053793 0.446333 0.772864 -0.134805
C74   C     C_R   0.446308 0.946301 0.772877 -0.134430
C75   C     C_R   0.946172 0.553637 0.772878 -0.134430
C76   C     C_R   0.553561 0.053820 0.772859 -0.130178
C77   C     C_R   0.053749 0.553627 0.227124 -0.134764
C78   C     C_R   0.445939 0.053433 0.227117 -0.132118
C79   C     C_R   0.946211 0.446395 0.227134 -0.134130
C80   C     C_R   0.553943 0.946514 0.227107 -0.129677
H1    H     H_    0.574720 0.925048 0.289476 0.203370
H2    H     H_    0.924621 0.425776 0.289510 0.205379
H3    H     H_    0.425169 0.074902 0.289496 0.205498
H4    H     H_    0.075335 0.574245 0.289495 0.202321
H5    H     H_    0.574137 0.075446 0.710476 0.207525
H6    H     H_    0.924571 0.574275 0.710507 0.204977
H7    H     H_    0.425701 0.924702 0.710507 0.204794
H8    H     H_    0.075392 0.425699 0.710487 0.202005
H9    H     H_    0.074674 0.424973 0.789476 0.203741
H10   H     H_    0.424962 0.925438 0.789495 0.205124
H11   H     H_    0.925293 0.574997 0.789494 0.204981
H12   H     H_    0.574921 0.074669 0.789469 0.203532
H13   H     H_    0.074613 0.574974 0.210509 0.203730
H14   H     H_    0.424434 0.074162 0.210504 0.204969
H15   H     H_    0.925347 0.425049 0.210522 0.205543
H16   H     H_    0.575433 0.925768 0.210491 0.202269
C81   C     C_R   0.228119 0.975783 0.968541 0.196306
C82   C     C_R   0.025757 0.771885 0.030045 0.196107
C83   C     C_R   0.771917 0.998092 0.959419 0.196793
C84   C     C_R   0.025027 0.228072 0.969200 0.196218
C85   C     C_R   0.228068 0.024308 0.031423 0.196531
C86   C     C_R   0.975149 0.228110 0.030886 0.193917
C87   C     C_R   0.771903 0.001786 0.040593 0.196502
C88   C     C_R   0.974229 0.771938 0.969915 0.194204
C89   C     C_R   0.728115 0.475133 0.469128 0.194765
C90   C     C_R   0.486238 0.271801 0.462508 0.196118
C91   C     C_R   0.271915 0.498407 0.459406 0.195849
C92   C     C_R   0.473768 0.728105 0.529567 0.194387
C93   C     C_R   0.728066 0.525043 0.530781 0.196431
C94   C     C_R   0.526417 0.728066 0.470529 0.195847
C95   C     C_R   0.271902 0.501598 0.540605 0.194592
C96   C     C_R   0.513758 0.271852 0.538350 0.197002
C97   C     C_R   0.206456 0.000039 0.999983 -0.257967
C98   C     C_R   0.999998 0.793547 0.999981 -0.258629
C99   C     C_R   0.793547 0.999947 0.000007 -0.258975
C100  C     C_R   0.000080 0.206455 0.000037 -0.258699
C101  C     C_R   0.706454 0.500080 0.499959 -0.257778
C102  C     C_R   0.501285 0.293417 0.499877 -0.252382
C103  C     C_R   0.293545 0.500010 0.500006 -0.260474
C104  C     C_R   0.500083 0.706450 0.500040 -0.258559
C105  C     C_R   0.271792 0.022230 0.032950 0.376896
C106  C     C_R   0.976240 0.728210 0.968268 0.374371
C107  C     C_R   0.728184 0.999232 0.040498 0.376478
C108  C     C_R   0.977211 0.271834 0.032465 0.374674
C109  C     C_R   0.271839 0.977878 0.967016 0.376961
C110  C     C_R   0.022970 0.271799 0.967618 0.377515
C111  C     C_R   0.728193 0.000629 0.959510 0.375990
C112  C     C_R   0.023713 0.728163 0.031702 0.377405
C113  C     C_R   0.771790 0.522984 0.532367 0.376757
C114  C     C_R   0.510023 0.228231 0.539776 0.384859
C115  C     C_R   0.228184 0.499036 0.540493 0.376806
C116  C     C_R   0.524416 0.771792 0.468828 0.377520
C117  C     C_R   0.771835 0.477198 0.467546 0.376346
C118  C     C_R   0.475776 0.771828 0.531268 0.373987
C119  C     C_R   0.228190 0.500928 0.459516 0.373967
C120  C     C_R   0.482590 0.228189 0.464192 0.379992
C121  C     C_R   0.293360 0.000057 0.999984 -0.202306
C122  C     C_R   0.999966 0.706642 0.999990 -0.201911
C123  C     C_R   0.706643 0.999929 0.000003 -0.198686
C124  C     C_R   0.000086 0.293361 0.000037 -0.202008
C125  C     C_R   0.793358 0.500087 0.499962 -0.201838
C126  C     C_R   0.496352 0.206655 0.501986 -0.216468
C127  C     C_R   0.206642 0.499969 0.500004 -0.199488
C128  C     C_R   0.500091 0.793355 0.500043 -0.201844
C129  C     C_1   0.161833 0.000024 0.999988 0.200924
C130  C     C_1   0.000005 0.838170 0.999989 0.198454
C131  C     C_1   0.838169 0.999968 0.000008 0.197976
C132  C     C_1   0.000055 0.161832 0.000018 0.198395
C133  C     C_1   0.661831 0.500054 0.499976 0.200530
C134  C     C_1   0.501005 0.338082 0.499914 0.190613
C135  C     C_1   0.338168 0.500015 0.500007 0.194825
C136  C     C_1   0.500058 0.661829 0.500018 0.198596
C137  C     C_1   0.337906 0.000054 0.999991 0.118764
C138  C     C_1   0.999955 0.662095 0.999992 0.117838
C139  C     C_1   0.662096 0.999939 0.000002 0.114654
C140  C     C_1   0.000068 0.337907 0.000023 0.118203
C141  C     C_1   0.837905 0.500069 0.499978 0.118330
C142  C     C_1   0.498510 0.162132 0.501108 0.135774
C143  C     C_1   0.162095 0.499958 0.500003 0.113575
C144  C     C_1   0.500071 0.837904 0.500027 0.117533
C145  C     C_1   0.375179 0.000042 0.999995 -0.088422
C146  C     C_1   0.999960 0.624820 0.999996 -0.088597
C147  C     C_1   0.624822 0.999956 0.000000 -0.089716
C148  C     C_1   0.000046 0.375182 0.000011 -0.088700
C149  C     C_1   0.875178 0.500046 0.499990 -0.088207
C150  C     C_1   0.499659 0.124862 0.500484 -0.087484
C151  C     C_1   0.124822 0.499961 0.500002 -0.091157
C152  C     C_1   0.500047 0.875179 0.500013 -0.088905
C153  C     C_1   0.124533 0.000011 0.999993 -0.060926
C154  C     C_1   0.000006 0.875470 0.999997 -0.064062
C155  C     C_1   0.875468 0.999985 0.000006 -0.060540
C156  C     C_1   0.000030 0.124531 0.000004 -0.064073
C157  C     C_1   0.624532 0.500029 0.499989 -0.059934
C158  C     C_1   0.500553 0.375405 0.499977 -0.066259
C159  C     C_1   0.375468 0.500013 0.500006 -0.065940
C160  C     C_1   0.500032 0.624529 0.500004 -0.063589
O33   O     O_R   0.000010 0.060910 0.037350 -0.592942
O34   O     O_R   0.060910 0.999990 0.037350 -0.597985
O35   O     O_R   0.999990 0.939090 0.037350 -0.603172
O36   O     O_R   0.939090 0.000010 0.037350 -0.591897
O37   O     O_R   0.000010 0.939090 0.962650 -0.593174
O38   O     O_R   0.060910 0.000010 0.962650 -0.597871
O39   O     O_R   0.999990 0.060910 0.962650 -0.602954
O40   O     O_R   0.939090 0.999990 0.962650 -0.592072
O41   O     O_R   0.500010 0.560910 0.537350 -0.593167
O42   O     O_R   0.560910 0.499990 0.537350 -0.597780
O43   O     O_R   0.499990 0.439090 0.537350 -0.601667
O44   O     O_R   0.439090 0.500010 0.537350 -0.592504
O45   O     O_R   0.500010 0.439090 0.462650 -0.583602
O46   O     O_R   0.560910 0.500010 0.462650 -0.595193
O47   O     O_R   0.499990 0.560910 0.462650 -0.603063
O48   O     O_R   0.439090 0.499990 0.462650 -0.593193
C161  C     C_R   0.000004 0.080324 0.000000 0.879298
C162  C     C_R   0.080325 0.999999 0.999998 0.883190
C163  C     C_R   0.000005 0.919677 1.000000 0.879663
C164  C     C_R   0.919676 1.000000 0.000002 0.874148
C165  C     C_R   0.500005 0.580323 0.500000 0.879631
C166  C     C_R   0.580325 0.500004 0.499998 0.883404
C167  C     C_R   0.500087 0.419653 0.499998 0.870557
C168  C     C_R   0.419675 0.500006 0.500002 0.866537
Zn9   Zn    Zn3+2 1.000000 1.000000 0.049810 1.098435
Zn10  Zn    Zn3+2 1.000000 1.000000 0.950190 1.098309
Zn11  Zn    Zn3+2 0.500000 0.500000 0.549810 1.099988
Zn12  Zn    Zn3+2 0.500000 0.500000 0.450190 1.107054
N1    N     N_R   0.446480 0.055189 0.366785 0.209388
O49   O     O_R   0.406297 0.049805 0.367054 -0.366049
O50   O     O_R   0.462861 0.084574 0.390788 -0.393140
N2    N     N_R   0.055434 0.553127 0.366789 0.208092
O51   O     O_R   0.050348 0.593362 0.366961 -0.360492
O52   O     O_R   0.084554 0.536517 0.391001 -0.421628
N3    N     N_R   0.553568 0.944912 0.366763 0.210834
O53   O     O_R   0.593753 0.950281 0.366866 -0.338101
O54   O     O_R   0.537242 0.915685 0.391024 -0.425308
N4    N     N_R   0.944614 0.446787 0.366802 0.211645
O55   O     O_R   0.949763 0.406560 0.366894 -0.341364
O56   O     O_R   0.915497 0.463308 0.391091 -0.422084
N5    N     N_R   0.446772 0.944641 0.633210 0.211737
O57   O     O_R   0.406548 0.949776 0.633100 -0.349319
O58   O     O_R   0.463314 0.915541 0.608913 -0.422270
N6    N     N_R   0.055468 0.446826 0.633196 0.207930
O59   O     O_R   0.050409 0.406595 0.633032 -0.362200
O60   O     O_R   0.084574 0.463410 0.608971 -0.421447
N7    N     N_R   0.552910 0.055644 0.633189 0.213171
O61   O     O_R   0.593140 0.050565 0.632831 -0.336743
O62   O     O_R   0.536213 0.084925 0.609253 -0.401953
N8    N     N_R   0.944584 0.553256 0.633209 0.211502
O63   O     O_R   0.949706 0.593479 0.633121 -0.341060
O64   O     O_R   0.915479 0.536759 0.608923 -0.422407
N9    N     N_R   0.946459 0.555136 0.866777 0.211816
O65   O     O_R   0.906269 0.549799 0.866902 -0.345035
O66   O     O_R   0.962814 0.584354 0.891023 -0.421420
N10   N     N_R   0.555219 0.053361 0.866763 0.208398
O67   O     O_R   0.584434 0.036853 0.890926 -0.420942
O68   O     O_R   0.549954 0.093573 0.866993 -0.358300
N11   N     N_R   0.053523 0.444843 0.866766 0.211425
O69   O     O_R   0.093713 0.450178 0.866884 -0.340904
O70   O     O_R   0.037166 0.415614 0.891002 -0.421981
N12   N     N_R   0.444801 0.946597 0.866780 0.211680
O71   O     O_R   0.450130 0.906393 0.866931 -0.340571
O72   O     O_R   0.415572 0.963017 0.890997 -0.420989
N13   N     N_R   0.946516 0.444878 0.133234 0.212023
O73   O     O_R   0.962908 0.415634 0.109017 -0.420039
O74   O     O_R   0.906322 0.450237 0.133095 -0.343720
N14   N     N_R   0.555495 0.946875 0.133200 0.208141
O75   O     O_R   0.550475 0.906639 0.133034 -0.360747
O76   O     O_R   0.584585 0.963489 0.108976 -0.420367
N15   N     N_R   0.053484 0.555113 0.133225 0.211330
O77   O     O_R   0.093678 0.549750 0.133110 -0.341331
O78   O     O_R   0.037110 0.584341 0.108972 -0.423243
N16   N     N_R   0.444493 0.053180 0.133201 0.211157
O79   O     O_R   0.449561 0.093410 0.133120 -0.335771
O80   O     O_R   0.415413 0.036646 0.108909 -0.422256
O81   O     O_3   0.293518 0.954654 0.936002 -0.542404
C169  C     C_3   0.305559 0.981139 0.900948 -0.067909
H17   H     H_    0.330335 0.003186 0.911421 0.142703
H18   H     H_    0.278671 0.998806 0.887100 0.154861
H19   H     H_    0.318572 0.961691 0.873938 0.216198
O82   O     O_3   0.048369 0.706473 0.061432 -0.542733
C170  C     C_3   0.023590 0.694508 0.097890 -0.070432
H20   H     H_    0.000912 0.669876 0.088619 0.144551
H21   H     H_    0.006787 0.721474 0.112743 0.153790
H22   H     H_    0.044270 0.681337 0.123757 0.216871
O83   O     O_3   0.706541 0.999409 0.919922 -0.552395
C171  C     C_3   0.694503 0.040378 0.908505 -0.066826
H23   H     H_    0.721416 0.062278 0.908410 0.158636
H24   H     H_    0.669817 0.052294 0.930943 0.156960
H25   H     H_    0.681381 0.039919 0.874575 0.215048
O84   O     O_3   0.046845 0.293444 0.937165 -0.542380
C172  C     C_3   0.021123 0.305488 0.901472 -0.071104
H26   H     H_    0.998798 0.330245 0.911408 0.143735
H27   H     H_    0.003826 0.278591 0.887177 0.153736
H28   H     H_    0.041133 0.318528 0.874958 0.216216
O85   O     O_3   0.293423 0.045454 0.063970 -0.542532
C173  C     C_3   0.305487 0.018969 0.099027 -0.067746
H29   H     H_    0.330290 0.996914 0.088557 0.143168
H30   H     H_    0.278617 0.001310 0.112875 0.154985
H31   H     H_    0.318472 0.038415 0.126036 0.215916
O86   O     O_3   0.953338 0.293512 0.062920 -0.544749
C174  C     C_3   0.979069 0.305537 0.098598 -0.062507
H32   H     H_    0.001385 0.330265 0.088643 0.143782
H33   H     H_    0.996376 0.278624 0.112898 0.156269
H34   H     H_    0.959064 0.318610 0.125113 0.216949
O87   O     O_3   0.706519 0.000446 0.080084 -0.551084
C175  C     C_3   0.694540 0.959474 0.091493 -0.066324
H35   H     H_    0.721488 0.937579 0.091597 0.157931
H36   H     H_    0.669886 0.947555 0.069044 0.156400
H37   H     H_    0.681399 0.959928 0.125418 0.215370
O88   O     O_3   0.951572 0.706570 0.938539 -0.545811
C176  C     C_3   0.976347 0.694543 0.902089 -0.062586
H38   H     H_    0.998998 0.669856 0.911369 0.145073
H39   H     H_    0.993180 0.721468 0.887236 0.156745
H40   H     H_    0.955660 0.681421 0.876219 0.217076
O89   O     O_3   0.793515 0.453318 0.437100 -0.543130
C177  C     C_3   0.805531 0.479046 0.401408 -0.064314
H41   H     H_    0.830231 0.501393 0.411355 0.143347
H42   H     H_    0.778611 0.496325 0.387089 0.155474
H43   H     H_    0.818630 0.459038 0.374910 0.217199
O90   O     O_3   0.469998 0.206539 0.426894 -0.535192
C178  C     C_3   0.428212 0.193812 0.432578 -0.085882
H44   H     H_    0.407486 0.220363 0.441537 0.151297
H45   H     H_    0.425556 0.168806 0.457817 0.132459
H46   H     H_    0.416800 0.180836 0.400815 0.221331
O91   O     O_3   0.206537 0.499944 0.419920 -0.553819
C179  C     C_3   0.194478 0.540977 0.408790 -0.067301
H47   H     H_    0.221376 0.562895 0.408866 0.158733
H48   H     H_    0.169774 0.552733 0.431300 0.156962
H49   H     H_    0.181373 0.540724 0.374851 0.214464
O92   O     O_3   0.450587 0.793514 0.560497 -0.546669
C180  C     C_3   0.474704 0.805462 0.597451 -0.062418
H50   H     H_    0.497622 0.830021 0.588627 0.146243
H51   H     H_    0.491152 0.778469 0.612688 0.157084
H52   H     H_    0.453576 0.818718 0.622861 0.217212
O93   O     O_3   0.793426 0.546869 0.562813 -0.543056
C181  C     C_3   0.805453 0.521150 0.598520 -0.066170
H53   H     H_    0.830188 0.498797 0.588593 0.143614
H54   H     H_    0.778547 0.503878 0.612832 0.155269
H55   H     H_    0.818508 0.541165 0.625018 0.216857
O94   O     O_3   0.549617 0.793442 0.439608 -0.542834
C182  C     C_3   0.525518 0.805421 0.402638 -0.070605
H56   H     H_    0.502619 0.830038 0.411438 0.144914
H57   H     H_    0.509052 0.778456 0.387416 0.153851
H58   H     H_    0.546663 0.818615 0.377225 0.217260
O95   O     O_3   0.206519 0.500011 0.580088 -0.550351
C183  C     C_3   0.194547 0.458970 0.591224 -0.072405
H59   H     H_    0.221494 0.437074 0.591159 0.155142
H60   H     H_    0.169877 0.447190 0.568711 0.155982
H61   H     H_    0.181427 0.459219 0.625160 0.215484
O96   O     O_3   0.524273 0.206620 0.576437 -0.528145
C184  C     C_3   0.489694 0.193869 0.601962 -0.099917
H62   H     H_    0.471813 0.168829 0.585157 0.125605
H63   H     H_    0.468620 0.220402 0.610024 0.152338
H64   H     H_    0.501309 0.180927 0.633667 0.214756
N17   N     N_R   0.205926 0.948770 0.938611 0.255439
O97   O     O_R   0.216915 0.945883 0.897324 -0.319676
O98   O     O_R   0.176115 0.924951 0.953162 -0.339872
N18   N     N_R   0.054223 0.794081 0.058417 0.254626
O99   O     O_R   0.059192 0.783072 0.099474 -0.322773
O100  O     O_R   0.077273 0.823901 0.042549 -0.340755
N19   N     N_R   0.794149 0.993171 0.918315 0.254742
O101  O     O_R   0.783137 0.013973 0.883293 -0.319905
O102  O     O_R   0.824018 0.965889 0.914994 -0.331688
N20   N     N_R   0.052691 0.205825 0.939953 0.254593
O103  O     O_R   0.056530 0.216825 0.898759 -0.323489
O104  O     O_R   0.076148 0.175955 0.955093 -0.341417
N21   N     N_R   0.205818 0.051316 0.061349 0.255348
O105  O     O_R   0.216798 0.054221 0.102634 -0.320421
O106  O     O_R   0.175959 0.075113 0.046795 -0.340993
N22   N     N_R   0.947496 0.205907 0.060149 0.256852
O107  O     O_R   0.943697 0.216900 0.101351 -0.312737
O108  O     O_R   0.924012 0.176087 0.045023 -0.345101
N23   N     N_R   0.794114 0.006711 0.081700 0.255044
O109  O     O_R   0.783134 0.985893 0.116715 -0.319278
O110  O     O_R   0.823926 0.034010 0.085032 -0.330929
N24   N     N_R   0.945790 0.794192 0.941526 0.256637
O111  O     O_R   0.940828 0.783188 0.900469 -0.313134
O112  O     O_R   0.922759 0.824068 0.957375 -0.346343
N25   N     N_R   0.705921 0.447458 0.439885 0.256614
O113  O     O_R   0.716919 0.443636 0.398687 -0.313904
O114  O     O_R   0.676105 0.423978 0.455031 -0.337647
N26   N     N_R   0.475755 0.293872 0.422502 0.255006
O115  O     O_R   0.443111 0.283493 0.399516 -0.321041
O116  O     O_R   0.500105 0.323073 0.407552 -0.320424
N27   N     N_R   0.294146 0.493757 0.418267 0.254842
O117  O     O_R   0.283132 0.514791 0.383400 -0.319752
O118  O     O_R   0.324016 0.466500 0.414742 -0.343667
N28   N     N_R   0.444780 0.705904 0.557341 0.256519
O119  O     O_R   0.439036 0.716914 0.598284 -0.313087
O120  O     O_R   0.422035 0.676080 0.540996 -0.346818
N29   N     N_R   0.705818 0.552727 0.560006 0.255448
O121  O     O_R   0.716812 0.556590 0.601198 -0.318513
O122  O     O_R   0.675953 0.576178 0.544849 -0.338633
N30   N     N_R   0.555413 0.705819 0.442770 0.254729
O123  O     O_R   0.561195 0.716835 0.401837 -0.321945
O124  O     O_R   0.578130 0.675944 0.459123 -0.339341
N31   N     N_R   0.294114 0.506276 0.581743 0.254047
O125  O     O_R   0.283134 0.485249 0.616618 -0.323045
O126  O     O_R   0.323927 0.533553 0.585258 -0.330772
N32   N     N_R   0.531242 0.293979 0.575446 0.255013
O127  O     O_R   0.521640 0.283573 0.615749 -0.326697
O128  O     O_R   0.558653 0.323262 0.569151 -0.331009

loop_
_geom_bond_atom_site_label_1
_geom_bond_atom_site_label_2
_geom_bond_distance
_ccdc_geom_bond_type
C142  C150  1.196436 T    
O25   C13   1.271661 A    
C77   H13   1.081806 S    
O38   Zn10  1.990486 S    
C123  C139  1.429420 S    
O89   C177  1.412603 S    
C120  C126  1.406538 A    
C20   C34   1.405535 A    
C121  C137  1.429372 S    
C115  C127  1.406483 A    
C12   C37   1.445302 S    
C46   C70   1.402474 A    
O18   Zn2   2.032178 S    
C139  C147  1.196012 T    
C137  C145  1.195996 T    
C25   C51   1.398770 A    
C92   C104  1.411433 A    
O34   Zn9   1.990410 S    
O24   Zn4   2.032182 S    
C82   N18   1.441796 S    
N4    O56   1.301011 A    
O39   C161  1.289919 A    
C171  H25   1.109276 S    
C94   C116  1.405246 A    
O19   Zn3   2.032120 S    
N10   O67   1.301013 A    
C90   C120  1.405108 A    
C28   C50   1.398788 A    
C17   C43   1.398836 A    
O3    C3    1.273030 A    
C67   H3    1.081812 S    
C140  C148  1.195878 T    
C19   C33   1.405638 A    
C124  C140  1.429191 S    
C52   C62   1.415137 A    
C184  H64   1.109283 S    
C7    C151  1.417413 S    
C82   C98   1.411423 A    
O38   C162  1.289958 A    
C54   C64   1.415172 A    
C144  C152  1.195910 T    
N1    O49   1.301036 A    
C23   C45   1.398757 A    
C74   H10   1.081806 S    
C68   H4    1.081804 S    
C87   C107  1.405288 A    
O96   C184  1.412383 S    
N2    O52   1.301010 A    
C41   C65   1.402509 A    
C130  C154  1.196722 T    
O84   C172  1.412609 S    
C49   C73   1.402502 A    
C25   C37   1.405643 A    
O87   C175  1.412593 S    
N19   O101  1.300696 A    
C118  C128  1.406434 A    
C55   C79   1.402504 A    
C173  H29   1.110636 S    
C22   C48   1.398761 A    
C92   C118  1.405222 A    
O35   Zn9   1.990203 S    
C96   C114  1.405367 A    
O83   C171  1.412595 S    
C3    C147  1.417426 S    
C81   C97   1.411432 A    
C154  C163  1.418286 S    
C83   C111  1.405295 A    
C52   C76   1.402532 A    
O7    Zn1   1.991740 S    
C84   C100  1.411423 A    
N6    O60   1.301012 A    
C131  C155  1.196847 T    
O26   Zn6   2.032178 S    
O7    C3    1.273056 A    
N9    O66   1.301012 A    
C129  C153  1.196866 T    
O82   C170  1.412601 S    
C105  C121  1.406489 A    
O27   C13   1.271617 A    
O31   C15   1.271615 A    
N7    O62   1.301104 A    
C56   C64   1.415177 A    
N14   O75   1.301032 A    
C49   C61   1.415147 A    
C15   C34   1.445085 S    
C29   C55   1.398772 A    
C109  O81   1.384904 S    
C31   C53   1.398765 A    
O8    C2    1.273069 A    
O36   Zn9   1.990488 S    
C107  O87   1.384870 S    
N25   O114  1.301363 A    
C99   C131  1.431827 S    
C132  C156  1.196739 T    
C177  H43   1.109274 S    
O9    C5    1.273037 A    
C175  H37   1.109277 S    
O11   C7    1.273013 A    
O92   C180  1.412596 S    
C50   C74   1.402488 A    
C88   C98   1.411441 A    
O46   Zn12  1.990486 S    
N24   O111  1.300698 A    
O4    C4    1.273092 A    
C28   N12   1.437075 S    
C111  O83   1.384869 S    
C182  H56   1.110667 S    
O5    Zn3   1.991743 S    
C115  O95   1.384873 S    
C86   C100  1.411426 A    
N29   O121  1.300701 A    
C112  C122  1.406448 A    
N21   O106  1.301380 A    
C174  H33   1.113709 S    
C180  H50   1.110676 S    
C109  C121  1.406491 A    
C27   C37   1.405619 A    
C125  C141  1.429407 S    
C53   C63   1.415140 A    
C31   C39   1.405640 A    
O42   Zn11  1.990410 S    
C98   C130  1.431617 S    
O23   C11   1.271716 A    
C93   C113  1.405311 A    
N30   O123  1.300697 A    
O44   C168  1.289954 A    
C102  C134  1.433015 S    
C95   C115  1.405291 A    
C183  H59   1.113689 S    
C6    C150  1.418164 S    
C82   C112  1.405217 A    
N5    O57   1.301037 A    
C17   C33   1.405653 A    
C32   N16   1.437089 S    
C50   C62   1.415163 A    
C117  O89   1.384880 S    
O2    Zn2   1.991488 S    
C183  H60   1.110657 S    
N22   O107  1.300701 A    
C128  C144  1.429261 S    
N31   O126  1.301359 A    
C65   C80   1.383864 A    
O28   C14   1.271901 A    
O26   C14   1.271581 A    
O29   C15   1.271671 A    
O8    Zn4   1.990965 S    
C67   C78   1.383947 A    
O30   C16   1.271771 A    
C78   H14   1.081806 S    
C171  H24   1.110654 S    
C10   C39   1.445305 S    
C114  C126  1.406525 A    
C176  H39   1.113687 S    
C53   C77   1.402505 A    
C51   C61   1.415135 A    
C14   C35   1.445061 S    
N18   O100  1.301378 A    
N32   O128  1.301393 A    
C172  H27   1.113707 S    
C24   C36   1.405521 A    
C91   N27   1.441770 S    
C118  O92   1.384854 S    
O35   C163  1.289912 A    
O13   C5    1.273046 A    
N26   O116  1.301392 A    
C157  C166  1.418505 S    
O45   Zn12  1.990178 S    
C114  O96   1.385153 S    
C177  H41   1.110653 S    
C175  H35   1.113684 S    
C26   C52   1.398795 A    
C96   N32   1.441551 S    
C95   C103  1.411446 A    
C30   C56   1.398749 A    
O16   Zn8   1.990965 S    
O81   C169  1.412606 S    
C45   C59   1.415176 A    
C170  H21   1.113687 S    
C87   C99   1.411443 A    
C76   H12   1.081801 S    
C83   C99   1.411445 A    
C66   H2    1.081809 S    
C112  O82   1.384870 S    
O6    Zn2   1.990969 S    
N8    O64   1.301014 A    
C70   H6    1.081808 S    
C180  H52   1.109273 S    
C107  C123  1.406481 A    
C29   C39   1.405633 A    
C110  C124  1.406459 A    
C18   C34   1.405498 A    
O21   Zn3   2.032147 S    
N23   O110  1.301358 A    
C116  O94   1.384858 S    
C178  H45   1.110671 S    
C68   C77   1.383878 A    
C89   C117  1.405281 A    
N26   O115  1.300775 A    
C119  O91   1.384875 S    
O41   C165  1.289867 A    
C90   C102  1.411344 A    
N13   O74   1.301038 A    
O12   C8    1.273101 A    
O1    C1    1.273015 A    
C183  H61   1.109279 S    
C18   N2    1.437060 S    
O47   Zn12  1.990199 S    
C32   C54   1.398828 A    
C32   C40   1.405528 A    
C94   N30   1.441813 S    
N25   O113  1.300699 A    
N6    O59   1.301033 A    
C19   N3    1.437089 S    
C54   C78   1.402502 A    
C85   C97   1.411443 A    
C23   C35   1.405364 A    
C60   C61   1.407097 A    
C182  H58   1.109276 S    
C42   C66   1.402480 A    
C170  H22   1.109276 S    
C113  O93   1.384883 S    
C106  C122  1.406446 A    
C87   N23   1.441769 S    
O29   Zn7   2.032147 S    
C106  O88   1.384870 S    
C178  H46   1.109267 S    
C179  H47   1.113693 S    
N10   O68   1.301036 A    
C181  H53   1.110648 S    
N12   O71   1.301035 A    
C83   N19   1.441777 S    
C184  H63   1.113793 S    
C111  C123  1.406481 A    
N20   O103  1.300703 A    
C66   C79   1.383886 A    
C42   C58   1.415168 A    
C141  C149  1.196006 T    
N11   O69   1.301037 A    
C21   N5    1.437095 S    
C22   C36   1.405497 A    
C9    C40   1.445075 S    
C81   C109  1.405281 A    
O93   C181  1.412608 S    
N3    O53   1.301036 A    
O10   C6    1.272783 A    
C11   C38   1.445320 S    
C122  C138  1.429230 S    
O18   C10   1.271814 A    
C94   C104  1.411433 A    
C13   C36   1.445081 S    
O15   Zn5   1.991740 S    
C184  H62   1.110679 S    
C45   C69   1.402449 A    
N17   O98   1.301381 A    
C86   C108  1.405207 A    
C169  H17   1.110637 S    
C91   C119  1.405284 A    
C47   C71   1.402493 A    
C173  H30   1.113727 S    
C58   C63   1.407091 A    
C138  C146  1.195895 T    
N16   O79   1.301035 A    
C153  C162  1.418530 S    
C93   N29   1.441785 S    
C20   N4    1.437095 S    
C69   C76   1.383932 A    
C135  C159  1.196856 T    
C116  C128  1.406437 A    
O32   Zn8   2.032182 S    
O95   C183  1.412592 S    
C46   C60   1.415174 A    
C108  C124  1.406456 A    
C173  H31   1.109277 S    
O22   Zn2   2.032107 S    
C117  C125  1.406482 A    
N9    O65   1.301036 A    
O21   C11   1.271699 A    
C84   C110  1.405227 A    
O22   C12   1.271781 A    
O23   Zn1   2.032123 S    
C24   C46   1.398779 A    
C56   C80   1.402465 A    
C100  C132  1.431643 S    
C28   C38   1.405582 A    
C26   C38   1.405609 A    
C96   C102  1.411497 A    
C110  O84   1.384892 S    
C30   C40   1.405467 A    
C103  C135  1.431840 S    
C4    C148  1.417195 S    
C169  H19   1.109274 S    
O3    Zn3   1.991217 S    
O88   C176  1.412605 S    
C75   H11   1.081806 S    
C8    C152  1.417256 S    
C79   H15   1.081805 S    
C80   H16   1.081805 S    
O33   Zn9   1.990175 S    
C170  H20   1.110659 S    
N4    O55   1.301033 A    
O28   Zn8   2.032104 S    
C178  H44   1.113792 S    
O30   Zn6   2.032107 S    
C179  H49   1.109276 S    
C133  C157  1.196854 T    
O43   C167  1.290323 A    
C2    C146  1.417227 S    
C104  C136  1.431598 S    
C48   C60   1.415160 A    
N24   O112  1.301373 A    
C92   N28   1.441813 S    
N1    O50   1.301111 A    
O9    Zn5   1.991220 S    
O33   C161  1.289880 A    
O11   Zn7   1.991217 S    
N2    O51   1.301032 A    
N21   O105  1.300699 A    
C85   N21   1.441745 S    
O16   C6    1.273905 A    
O48   Zn12  1.990414 S    
C16   C33   1.445272 S    
C19   C41   1.398751 A    
C23   N7    1.437002 S    
C175  H36   1.110660 S    
O41   Zn11  1.990175 S    
O6    C4    1.273078 A    
N30   O124  1.301391 A    
C158  C167  1.419692 S    
O40   C164  1.289945 A    
C86   N22   1.441780 S    
O40   Zn10  1.990414 S    
O85   C173  1.412608 S    
O31   Zn5   2.032123 S    
O44   Zn11  1.990488 S    
O37   C163  1.289874 A    
N14   O76   1.301010 A    
C44   C68   1.402478 A    
C51   C75   1.402508 A    
C71   C74   1.383893 A    
C27   N11   1.437086 S    
O17   Zn1   2.032144 S    
C72   H8    1.081805 S    
C57   C64   1.407115 A    
N3    O54   1.301007 A    
C174  H32   1.110649 S    
C48   C72   1.402482 A    
C59   C62   1.407103 A    
N22   O108  1.301361 A    
C43   C57   1.415170 A    
N28   O119  1.300692 A    
C24   N8    1.437093 S    
C159  C168  1.418510 S    
C93   C101  1.411451 A    
C70   C75   1.383884 A    
O13   Zn7   1.991743 S    
O91   C179  1.412594 S    
C85   C105  1.405292 A    
O42   C166  1.289962 A    
O2    C2    1.273117 A    
C31   N15   1.437090 S    
C176  H38   1.110658 S    
N27   O117  1.300701 A    
C126  C142  1.430315 S    
C91   C103  1.411448 A    
C156  C161  1.418309 S    
N23   O109  1.300700 A    
O17   C9    1.271650 A    
C172  H26   1.110646 S    
C21   C35   1.405577 A    
C73   H9    1.081809 S    
O4    Zn4   1.991491 S    
C160  C165  1.418264 S    
N11   O70   1.301018 A    
C120  O90   1.385158 S    
O43   Zn11  1.990203 S    
C177  H42   1.113704 S    
N19   O102  1.301361 A    
O39   Zn10  1.990199 S    
O14   C8    1.273098 A    
C27   C49   1.398785 A    
C89   C101  1.411450 A    
C155  C164  1.418498 S    
C5    C149  1.417413 S    
O32   C16   1.271835 A    
N27   O118  1.301354 A    
C20   C42   1.398777 A    
C29   N13   1.437088 S    
N15   O77   1.301039 A    
C55   C63   1.415135 A    
N29   O122  1.301366 A    
C25   N9    1.437096 S    
N16   O80   1.301022 A    
O15   C7    1.273067 A    
N15   O78   1.301009 A    
C174  H34   1.109276 S    
C180  H51   1.113661 S    
C90   N26   1.441538 S    
C72   C73   1.383895 A    
C97   C129  1.431853 S    
C47   C59   1.415158 A    
O37   Zn10  1.990178 S    
O25   Zn5   2.032144 S    
C84   N20   1.441783 S    
O27   Zn7   2.032120 S    
O34   C162  1.289956 A    
C17   N1    1.437181 S    
N13   O73   1.301023 A    
C127  C143  1.429405 S    
N5    O58   1.300995 A    
C1    C145  1.417387 S    
O86   C174  1.412604 S    
C18   C44   1.398746 A    
O19   C9    1.271628 A    
N31   O125  1.300701 A    
C113  C125  1.406490 A    
C143  C151  1.196006 T    
O24   C12   1.271833 A    
C65   H1    1.081805 S    
C182  H57   1.113667 S    
O5    C1    1.273052 A    
C134  C158  1.197520 T    
O12   Zn8   1.991491 S    
C108  O86   1.384894 S    
C69   H5    1.081816 S    
C171  H23   1.113686 S    
O14   Zn6   1.990969 S    
C179  H48   1.110653 S    
C88   N24   1.441803 S    
C181  H54   1.113705 S    
C71   H7    1.081803 S    
C176  H40   1.109273 S    
N12   O72   1.301028 A    
O46   C166  1.289943 A    
O45   C167  1.290183 A    
C22   N6    1.437059 S    
C81   N17   1.441736 S    
N18   O99   1.300698 A    
C21   C47   1.398781 A    
N32   O127  1.300781 A    
C172  H28   1.109273 S    
N20   O104  1.301366 A    
C88   C106  1.405234 A    
C119  C127  1.406482 A    
O36   C164  1.289953 A    
C181  H55   1.109276 S    
O47   C165  1.289906 A    
C44   C58   1.415158 A    
N7    O61   1.301028 A    
N17   O97   1.300698 A    
C169  H18   1.113731 S    
O20   Zn4   2.032104 S    
C41   C57   1.415136 A    
C30   N14   1.437061 S    
O20   C10   1.271806 A    
C43   C67   1.402503 A    
N28   O120  1.301386 A    
O94   C182  1.412602 S    
O10   Zn6   1.991488 S    
C101  C133  1.431837 S    
C26   N10   1.437047 S    
N8    O63   1.301036 A    
C89   N25   1.441774 S    
O90   C178  1.412368 S    
O48   C168  1.289951 A    
C105  O85   1.384901 S    
O1    Zn1   1.991220 S    
C136  C160  1.196711 T    
C95   N31   1.441773 S    
