data_mof_unit_54616.cif
_audit_creation_date              2013-03-05T16:09:36-0500
_audit_creation_method            fapswitch 2.2
_symmetry_space_group_name_H-M    P1
_symmetry_Int_Tables_number       1
_space_group_crystal_system       triclinic
_cell_length_a                    11.124352
_cell_length_b                    10.648639
_cell_length_c                    9.954276
_cell_angle_alpha                 90.921136
_cell_angle_beta                  102.07828
_cell_angle_gamma                 93.512916
_cell_volume                      1150.40064996

loop_
_atom_site_label
_atom_site_type_symbol
_atom_site_description
_atom_site_fract_x
_atom_site_fract_y
_atom_site_fract_z
_atom_type_partial_charge
O1    O     O_R   0.499990 0.316750 0.614620 -0.593271
O2    O     O_R   0.500010 0.683250 0.385380 -0.547122
O3    O     O_R   0.499990 0.316780 0.385290 -0.577701
O4    O     O_R   0.500010 0.683220 0.614710 -0.588443
C1    C     C_R   0.518748 0.262697 0.503379 0.930169
C2    C     C_R   0.488845 0.740170 0.498331 0.898149
O5    O     O_R   0.317810 0.500000 0.571850 -0.586998
O6    O     O_R   0.682190 0.500000 0.428150 -0.591359
O7    O     O_R   0.317810 0.500030 0.342520 -0.550390
O8    O     O_R   0.682190 0.499970 0.657480 -0.563297
C3    C     C_R   0.262022 0.498789 0.444997 0.840503
C4    C     C_R   0.739214 0.499093 0.554429 0.872906
Zn1   Zn    Zn3+2 0.500000 0.499980 0.653120 1.110206
Zn2   Zn    Zn3+2 0.500000 0.500020 0.346880 1.130058
C5    C     C_R   0.575041 0.586078 0.088540 0.200512
C6    C     C_R   0.416801 0.423848 0.908295 0.230074
C7    C     C_R   0.584562 0.574015 0.948351 0.165312
C8    C     C_R   0.427196 0.413506 0.052603 0.199944
C9    C     C_2   0.131010 0.478970 0.420621 0.090456
C10   C     C_2   0.872938 0.499766 0.577645 0.089027
C11   C     C_2   0.067266 0.538350 0.502024 -0.199572
C12   C     C_2   0.933774 0.518931 0.472937 -0.192901
C13   C     C_R   0.535387 0.062455 0.384564 -0.096364
C14   C     C_R   0.503640 0.943922 0.625920 -0.076221
C15   C     C_R   0.482972 0.940134 0.375524 -0.048797
C16   C     C_R   0.550071 0.068693 0.632071 -0.093335
C17   C     C_R   0.481674 0.876491 0.498475 -0.207106
C18   C     C_R   0.546632 0.130857 0.508429 -0.180832
N1    N     N_R   0.499970 0.499970 0.857200 -0.216747
N2    N     N_R   0.500030 0.500030 0.142800 -0.192993
C19   C     C_2   0.875945 0.525300 0.323878 1.090334
O9    O     O_2   0.905389 0.614085 0.258440 -0.499223
O10   O     O_R   0.802968 0.422445 0.255669 -0.693569
H1    H     H_    0.778311 0.432954 0.152870 0.353769
C20   C     C_2   0.122320 0.641963 0.601905 1.017911
O11   O     O_2   0.099133 0.750523 0.574634 -0.517690
O12   O     O_R   0.191414 0.613946 0.730759 -0.698204
H2    H     H_    0.208090 0.688774 0.797587 0.388066
N3    N     N_R   0.639795 0.694924 0.166254 0.273120
O13   O     O_R   0.661585 0.797073 0.103256 -0.262491
O14   O     O_R   0.688931 0.692055 0.295658 -0.339132
N4    N     N_R   0.312546 0.360094 0.818232 0.280195
O15   O     O_R   0.203543 0.372000 0.842977 -0.225779
O16   O     O_R   0.326856 0.267651 0.737808 -0.279156
N5    N     N_R   0.938744 0.480146 0.714713 0.243001
O17   O     O_R   0.961785 0.574239 0.803098 -0.256885
O18   O     O_R   0.943336 0.366072 0.759249 -0.213375
N6    N     N_R   0.074494 0.379791 0.324172 0.228801
O19   O     O_R   0.062558 0.395849 0.192887 -0.231433
O20   O     O_R   0.029149 0.276258 0.367401 -0.254683
N7    N     N_R   0.689986 0.631772 0.906473 0.274864
O21   O     O_R   0.678820 0.724365 0.822548 -0.295310
O22   O     O_R   0.799411 0.608577 0.973240 -0.264507
N8    N     N_R   0.368276 0.305153 0.101443 0.248112
O23   O     O_R   0.284165 0.317484 0.172115 -0.242872
O24   O     O_R   0.378655 0.194397 0.049815 -0.303792
C21   C     C_2   0.600738 0.107681 0.276341 1.022862
O25   O     O_2   0.673679 0.199965 0.298977 -0.551093
O26   O     O_R   0.589112 0.037690 0.154111 -0.713568
H3    H     H_    0.651925 0.067247 0.099128 0.394630
C22   C     C_2   0.452641 0.894119 0.741940 1.049793
O27   O     O_2   0.348382 0.844360 0.718576 -0.602544
O28   O     O_R   0.519896 0.906724 0.876710 -0.696740
H4    H     H_    0.470407 0.873197 0.944559 0.393948
C23   C     C_2   0.395287 0.900089 0.245406 1.012615
O29   O     O_2   0.409764 0.806969 0.178947 -0.594172
O30   O     O_R   0.296563 0.973965 0.196784 -0.693482
H5    H     H_    0.243489 0.939919 0.106553 0.388413
C24   C     C_2   0.608735 0.134096 0.764494 1.029298
O31   O     O_2   0.716735 0.173363 0.783437 -0.537801
O32   O     O_R   0.539497 0.159035 0.862338 -0.710577
H6    H     H_    0.587135 0.216516 0.940059 0.334479

loop_
_geom_bond_atom_site_label_1
_geom_bond_atom_site_label_2
_geom_bond_distance
_ccdc_geom_bond_type
O7    Zn2   2.018118 S    
C19   O10   1.398613 S    
C13   C18   1.400665 A    
O12   H2    1.012450 S    
C11   C20   1.485956 S    
C15   C17   1.410766 A    
C1    C18   1.455622 S    
C7    N1    1.363548 A    
C16   C18   1.401445 A    
C19   O9    1.223342 D    
C23   O30   1.398184 S    
C14   C17   1.415685 A    
O6    C4    1.284537 A    
C5    N3    1.447894 S    
C12   C19   1.493036 S    
C7    N7    1.432437 S    
C13   C21   1.490808 S    
N6    O20   1.301168 A    
O10   H1    1.012349 S    
O3    C1    1.300318 A    
C15   C23   1.487773 S    
O26   H3    1.012675 S    
N3    O14   1.291372 A    
N5    O17   1.299813 A    
O30   H5    1.013962 S    
O5    C3    1.284653 A    
O7    C3    1.300101 A    
C3    C9    1.428348 S    
C21   O25   1.222101 D    
O2    C2    1.301042 A    
O3    Zn2   1.994384 S    
N4    O16   1.297096 A    
C4    C10   1.456416 S    
Zn2   N2    2.031541 S    
C14   C22   1.481192 S    
O1    C1    1.300748 A    
O8    C4    1.314342 A    
Zn1   N1    2.031539 S    
N6    O19   1.300799 A    
C9    C11   1.355804 D    
C10   C12   1.367893 D    
N5    O18   1.300063 A    
C24   O31   1.222669 D    
O2    Zn2   1.982365 S    
N8    O24   1.300177 A    
C21   O26   1.394914 S    
O4    C2    1.302634 A    
O1    Zn1   1.982366 S    
C22   O27   1.219775 D    
C8    N8    1.433864 S    
C8    N2    1.374400 A    
N7    O21   1.297528 A    
C6    N4    1.434752 S    
C24   O32   1.393948 S    
O5    Zn1   2.018923 S    
C13   C15   1.387777 A    
O32   H6    1.013647 S    
C5    N2    1.392287 A    
C6    C8    1.423421 A    
C23   O29   1.220623 D    
N4    O15   1.299981 A    
C10   N5    1.432159 S    
N3    O13   1.299397 A    
C5    C7    1.425773 A    
C16   C24   1.484352 S    
N8    O23   1.294290 A    
O6    Zn2   2.018921 S    
C9    N6    1.437302 S    
C20   O12   1.397426 S    
C6    N1    1.374780 A    
C11   C12   1.453390 S    
O8    Zn1   2.018117 S    
C22   O28   1.392615 S    
C2    C17   1.458692 S    
O4    Zn1   1.994384 S    
C14   C16   1.391356 A    
O28   H4    1.012890 S    
N7    O22   1.299255 A    
C20   O11   1.222265 D    
