data_mof_unit_21143.cif
_audit_creation_date              2012-12-10T20:46:51-0500
_audit_creation_method            fapswitch 2.2
_symmetry_space_group_name_H-M    P1
_symmetry_Int_Tables_number       1
_space_group_crystal_system       triclinic
_cell_length_a                    13.243354
_cell_length_b                    8.902157
_cell_length_c                    8.262822
_cell_angle_alpha                 89.95771
_cell_angle_beta                  93.988924
_cell_angle_gamma                 90.009869
_cell_volume                      971.780467062

loop_
_atom_site_label
_atom_site_type_symbol
_atom_type_description
_atom_site_fract_x
_atom_site_fract_y
_atom_site_fract_z
_atom_type_partial_charge
Br1   Br    Br    0.987193 0.675885 0.106635 -0.540186
Br2   Br    Br    0.012801 0.324006 0.893166 -0.540211
C1    C     C_R   0.500073 0.218710 0.500046 0.938028
C2    C     C_R   0.862207 0.452742 0.686286 -0.220325
C3    C     C_R   0.129805 0.495397 0.598083 -0.064845
C4    C     C_R   0.870184 0.504634 0.401894 -0.064829
C5    C     C_R   0.024393 0.482266 0.576950 0.001958
C6    C     C_R   0.975597 0.517798 0.423018 0.001928
C7    C     C_1   0.500032 0.065409 0.500058 -0.198173
C8    C     C_1   0.499968 0.934591 0.499942 -0.198167
C9    C     C_R   0.825218 0.450993 0.246058 0.181256
C10   C     C_R   0.818291 0.295429 0.218788 -0.090408
C11   C     C_R   0.756215 0.240399 0.089209 -0.116924
C12   C     C_R   0.499927 0.781290 0.499954 0.938028
C13   C     C_R   0.702336 0.340755 0.986626 -0.126065
C14   C     C_R   0.714415 0.496354 0.009933 -0.114089
C15   C     C_R   0.773452 0.550980 0.140611 -0.034488
C16   C     C_R   0.174787 0.548961 0.753952 0.181288
C17   C     C_R   0.226520 0.448899 0.859380 -0.034538
C18   C     C_R   0.285601 0.503444 0.990078 -0.114020
C19   C     C_R   0.297774 0.659054 0.013379 -0.125999
C20   C     C_R   0.243924 0.759486 0.910815 -0.117052
C21   C     C_R   0.181793 0.704525 0.781246 -0.090314
C22   C     C_R   0.298416 0.503035 0.472550 0.887157
C23   C     C_R   0.701583 0.496972 0.527448 0.887177
C24   C     C_R   0.812941 0.490656 0.538640 -0.172763
C25   C     C_R   0.187052 0.509394 0.461347 -0.172737
C26   C     C_R   0.034503 0.562833 0.295424 0.315736
C27   C     C_R   0.965488 0.437210 0.704521 0.315811
C28   C     C_R   0.137783 0.547340 0.313677 -0.220327
H1    H     H_    0.819925 0.418388 0.784033 0.207056
H2    H     H_    0.346213 0.701870 0.113558 0.172211
H3    H     H_    0.251569 0.879304 0.930093 0.148396
H4    H     H_    0.143273 0.782706 0.697508 0.138440
H5    H     H_    0.180059 0.581687 0.215894 0.207061
H6    H     H_    0.856834 0.217303 0.302538 0.138460
H7    H     H_    0.748636 0.120589 0.069937 0.148442
H8    H     H_    0.653936 0.297895 0.886443 0.172130
H9    H     H_    0.676955 0.577717 0.930367 0.175571
H10   H     H_    0.774871 0.670670 0.164475 0.147306
H11   H     H_    0.225054 0.329214 0.835481 0.147347
H12   H     H_    0.323045 0.422037 0.069629 0.175519
N1    N     N_1   0.500020 0.500000 0.073640 -0.076544
N2    N     N_1   0.499980 0.500000 0.926360 -0.076496
O1    O     O_R   0.499990 0.285340 0.636850 -0.631235
O2    O     O_R   0.500010 0.714660 0.363150 -0.631275
O3    O     O_R   0.500010 0.285340 0.363150 -0.611928
O4    O     O_R   0.499990 0.714660 0.636850 -0.611927
O5    O     O_R   0.346350 0.500000 0.614250 -0.613925
O6    O     O_R   0.653650 0.500000 0.385750 -0.613938
O7    O     O_R   0.346360 0.500000 0.340500 -0.655268
O8    O     O_R   0.653640 0.500000 0.659500 -0.655269
Zn1   Zn    Zn3+2 0.499990 0.500000 0.682780 0.953996
Zn2   Zn    Zn3+2 0.500010 0.500000 0.317220 0.953963

loop_
_geom_bond_atom_site_label_1
_geom_bond_atom_site_label_2
_ccdc_geom_bond_type
Br1   C26   S    
C2    C24   A    
C9    C10   A    
C13   H8    S    
C5    C27   A    
C10   H6    S    
C7    C8    T    
C17   C18   A    
N1    Zn2   S    
C11   H7    S    
C2    C27   A    
C22   C25   S    
N1    N2    T    
O7    Zn2   S    
O2    Zn2   S    
C22   O7    A    
C26   C28   A    
C23   O8    A    
O1    Zn1   S    
C5    C6    A    
C12   O2    A    
C4    C24   A    
C19   C20   A    
C10   C11   A    
C25   C28   A    
C18   H12   S    
O6    Zn2   S    
C28   H5    S    
Br2   C27   S    
O5    Zn1   S    
C4    C6    A    
C1    O3    A    
C1    C7    S    
O3    Zn2   S    
C11   C13   A    
O4    Zn1   S    
C6    C26   A    
C19   H2    S    
C2    H1    S    
C14   H9    S    
C13   C14   A    
C17   H11   S    
C22   O5    A    
C18   C19   A    
C16   C17   A    
C8    C12   S    
C4    C9    S    
C3    C5    A    
C20   H3    S    
C20   C21   A    
C9    C15   A    
C21   H4    S    
C12   O4    A    
C3    C16   S    
C23   C24   S    
C3    C25   A    
N2    Zn1   S    
C1    O1    A    
C23   O6    A    
C16   C21   A    
O8    Zn1   S    
C14   C15   A    
C15   H10   S    
