data_mof_unit_27709.cif
_audit_creation_date              2012-12-11T14:56:37-0500
_audit_creation_method            fapswitch 2.2
_symmetry_space_group_name_H-M    P1
_symmetry_Int_Tables_number       1
_space_group_crystal_system       triclinic
_cell_length_a                    10.596395
_cell_length_b                    10.743729
_cell_length_c                    17.130318
_cell_angle_alpha                 80.287331
_cell_angle_beta                  90.067939
_cell_angle_gamma                 119.725534
_cell_volume                      1661.53150489

loop_
_atom_site_label
_atom_site_type_symbol
_atom_type_description
_atom_site_fract_x
_atom_site_fract_y
_atom_site_fract_z
_atom_type_partial_charge
C1    C     C_R   0.223405 0.854630 0.128778 0.554966
C2    C     C_R   0.723805 0.266859 0.298932 0.059721
C3    C     C_R   0.729901 0.266786 0.218900 -0.114421
C4    C     C_R   0.640699 0.300248 0.170189 -0.024119
C5    C     C_1   0.684442 0.832637 0.201959 -0.013995
C6    C     C_1   0.702468 0.808123 0.270579 -0.013508
C7    C     C_1   0.181055 0.825995 0.211336 -0.023005
C8    C     C_1   0.151312 0.820248 0.279790 -0.022073
C9    C     C_1   0.644406 0.325886 0.778424 -0.005317
C10   C     C_1   0.652252 0.347853 0.707825 -0.001262
C11   C     C_R   0.623698 0.713974 0.804886 -0.113241
C12   C     C_R   0.634083 0.271257 0.090246 0.553924
C13   C     C_R   0.614010 0.696179 0.727088 -0.087185
C14   C     C_R   0.671314 0.818988 0.665480 0.027398
C15   C     C_R   0.750182 0.958608 0.681364 -0.111941
C16   C     C_R   0.762304 0.977799 0.759080 0.091061
C17   C     C_R   0.689855 0.854712 0.821732 0.054934
C18   C     C_R   0.158483 0.936834 0.769030 0.014223
C19   C     C_R   0.191760 0.952489 0.688280 0.044488
C20   C     C_R   0.173665 0.829652 0.659455 -0.050736
C21   C     C_R   0.172684 0.712991 0.712125 -0.009864
C22   C     C_R   0.165075 0.708413 0.794767 -0.010837
C23   C     C_R   0.643204 0.856211 0.124441 0.548255
C24   C     C_R   0.162728 0.824137 0.823192 -0.049812
C25   C     C_R   0.710644 0.772977 0.353461 0.550745
C26   C     C_R   0.680422 0.382715 0.399980 0.557192
C27   C     C_R   0.103231 0.810371 0.359137 0.543219
C28   C     C_R   0.678511 0.798265 0.585943 0.567999
C29   C     C_R   0.679550 0.383995 0.624712 0.562209
C30   C     C_R   0.105182 0.805479 0.584539 0.553079
C31   C     C_R   0.217971 0.859616 0.900504 0.579471
C32   C     C_R   0.637709 0.285564 0.861202 0.560198
C33   C     C_R   0.646556 0.868187 0.898550 0.558487
C34   C     C_R   0.536413 0.324256 0.203644 -0.143998
C35   C     C_R   0.528327 0.325734 0.284802 0.007755
C36   C     C_R   0.633460 0.311313 0.331324 0.007030
Cr1   Cr    Cr6+3 0.402240 0.783890 0.019450 1.086343
Cr2   Cr    Cr6+3 0.382360 0.097900 0.991800 1.057157
Cr3   Cr    Cr6+3 0.715380 0.118170 0.988700 1.084339
Cr4   Cr    Cr6+3 0.936650 0.882420 0.465510 1.110577
Cr5   Cr    Cr6+3 0.605770 0.565620 0.493360 1.094721
Cr6   Cr    Cr6+3 0.921340 0.550490 0.496380 1.103663
H1    H     H_    0.458214 0.336426 0.167030 0.174308
H2    H     H_    0.802240 0.234876 0.195481 0.171729
H3    H     H_    0.571258 0.617648 0.851783 0.154632
H4    H     H_    0.562138 0.586344 0.715136 0.162645
H5    H     H_    0.803952 0.052437 0.633026 0.166476
O1    O     O_R   0.521780 0.757110 0.108900 -0.486611
O2    O     O_R   0.513330 0.228330 0.898660 -0.499451
O3    O     O_R   0.739230 0.266130 0.888050 -0.452327
O4    O     O_R   0.712580 0.991850 0.918770 -0.489379
O5    O     O_3   0.499990 0.999980 0.999980 -0.284255
O6    O     O_R   0.083770 0.911170 0.376030 -0.481384
O7    O     O_R   0.808770 0.880340 0.383890 -0.467692
O8    O     O_R   0.584340 0.689460 0.394160 -0.477861
O9    O     O_R   0.614320 0.443940 0.423590 -0.486299
O10   O     O_R   0.805020 0.410040 0.421340 -0.486317
O11   O     O_R   0.049240 0.685450 0.403290 -0.495467
O12   O     O_R   0.275160 0.783810 0.101120 -0.482748
O13   O     O_R   0.077520 0.903010 0.551800 -0.470631
O14   O     O_R   0.802980 0.872780 0.546830 -0.490786
O15   O     O_R   0.578090 0.681300 0.569920 -0.498275
O16   O     O_R   0.608530 0.436370 0.586530 -0.493875
O17   O     O_R   0.798770 0.401880 0.597100 -0.458568
O18   O     O_R   0.043450 0.677890 0.566230 -0.470345
O19   O     O_3   0.821250 0.666180 0.485090 -0.319043
O20   O     O_R   0.237900 0.972600 0.090980 -0.509852
O21   O     O_R   0.511190 0.220540 0.061620 -0.508667
O22   O     O_R   0.736920 0.257720 0.063840 -0.497346
O23   O     O_R   0.710450 0.984050 0.081720 -0.506288
O24   O     O_R   0.524090 0.765520 0.933110 -0.511629
O25   O     O_R   0.277300 0.791600 0.938160 -0.477519
O26   O     O_R   0.240210 0.981010 0.915190 -0.484280
I1    I     I_    0.272861 0.162675 0.610552 -0.177832
C37   C     C_2   0.186373 0.600237 0.680346 0.644043
O27   O     O_2   0.078073 0.493675 0.665792 -0.444996
O28   O     O_R   0.323647 0.616268 0.667016 -0.662796
H6    H     H_    0.317959 0.529784 0.647476 0.365750
C38   C     C_2   0.148687 0.578305 0.851153 0.624954
O29   O     O_2   0.057781 0.523269 0.908906 -0.494992
O30   O     O_R   0.237049 0.519424 0.838729 -0.649135
H7    H     H_    0.214799 0.431242 0.881150 0.340684
C39   C     C_2   0.406560 0.337518 0.318552 0.601919
O31   O     O_2   0.347524 0.270413 0.385340 -0.465526
O32   O     O_R   0.355225 0.420613 0.272581 -0.691785
H8    H     H_    0.270993 0.418954 0.301703 0.355627
I2    I     I_    0.860997 0.201147 0.363011 -0.267419
I3    I     I_    0.894230 0.196760 0.770031 -0.184330
C40   C     C_2   0.115547 0.034424 0.798452 0.635646
O33   O     O_2   0.186687 0.166955 0.776481 -0.463823
O34   O     O_R   0.003653 0.973088 0.860386 -0.696298
H9    H     H_    0.001597 0.048871 0.887579 0.349574

loop_
_geom_bond_atom_site_label_1
_geom_bond_atom_site_label_2
_ccdc_geom_bond_type
Cr3   O4    S    
C12   O22   A    
C29   O16   A    
Cr4   O13   S    
C35   C36   A    
C15   H5    S    
Cr6   O11   S    
O30   H7    S    
C7    C8    T    
Cr2   O2    S    
C20   C30   S    
O28   H6    S    
C12   O21   A    
C18   C24   A    
C22   C38   S    
C18   C19   A    
C1    O12   A    
C5    C6    T    
C31   O26   A    
C6    C25   S    
Cr2   O5    S    
C15   C16   A    
C34   C35   A    
Cr5   O8    S    
C9    C32   S    
C19   C20   A    
C16   C17   A    
C30   O13   A    
Cr6   O18   S    
C40   O34   S    
C9    C10   T    
C28   O14   A    
Cr3   O5    S    
C29   O17   A    
Cr4   O19   S    
C21   C22   A    
C23   O23   A    
C17   C33   S    
Cr5   O15   S    
Cr6   O10   S    
C4    C34   A    
C3    H2    S    
C25   O7    A    
O34   H9    S    
C38   O30   S    
Cr1   O5    S    
C35   C39   S    
O32   H8    S    
Cr4   O14   S    
C37   O27   D    
Cr5   O9    S    
C39   O31   D    
C5    C23   S    
Cr3   O22   S    
C2    I2    S    
C20   C21   A    
Cr1   O1    S    
C37   O28   S    
C32   O3    A    
Cr1   O12   S    
C26   C36   S    
C31   O25   A    
C39   O32   S    
Cr2   O21   S    
Cr4   O7    S    
Cr1   O24   S    
C22   C24   A    
C11   H3    S    
C4    C12   S    
Cr5   O16   S    
C3    C4    A    
Cr6   O17   S    
Cr6   O19   S    
C2    C36   A    
C11   C17   A    
C23   O1    A    
C1    C7    S    
C18   C40   S    
C19   I1    S    
C34   H1    S    
C25   O8    A    
C27   O11   A    
C26   O9    A    
C27   O6    A    
Cr5   O19   S    
C33   O4    A    
C21   C37   S    
C2    C3    A    
C24   C31   S    
C11   C13   A    
C10   C29   S    
C13   H4    S    
C1    O20   A    
Cr3   O23   S    
C26   O10   A    
C32   O2    A    
C30   O18   A    
C33   O24   A    
C38   O29   D    
Cr3   O3    S    
Cr2   O20   S    
Cr4   O6    S    
Cr1   O25   S    
C16   I3    S    
C8    C27   S    
C14   C15   A    
C14   C28   S    
C40   O33   D    
C13   C14   A    
Cr2   O26   S    
C28   O15   A    
