data_mof_unit_22516.cif
_audit_creation_date              2012-10-26T21:05:41-0400
_audit_creation_method            fapswitch 2.2
_symmetry_space_group_name_H-M    P1
_symmetry_Int_Tables_number       1
_space_group_crystal_system       triclinic
_cell_length_a                    13.070877
_cell_length_b                    9.09633
_cell_length_c                    7.785503
_cell_angle_alpha                 90.021732
_cell_angle_beta                  95.62723
_cell_angle_gamma                 89.971829
_cell_volume                      921.211969522

loop_
_atom_site_label
_atom_site_type_symbol
_atom_type_description
_atom_site_fract_x
_atom_site_fract_y
_atom_site_fract_z
_atom_type_partial_charge
C1    C     C_R   0.499988 0.220029 0.499982 0.542941
C2    C     C_R   0.860803 0.416428 0.680608 -0.127261
C3    C     C_R   0.132190 0.434168 0.578131 0.003572
C4    C     C_R   0.867810 0.565832 0.421869 0.003573
C5    C     C_R   0.024752 0.456448 0.568052 0.035324
C6    C     C_R   0.975248 0.543552 0.431948 0.035324
C7    C     C_1   0.499993 0.065369 0.499976 -0.043796
C8    C     C_1   0.500007 0.934631 0.500023 -0.043796
C9    C     C_2   0.813395 0.659610 0.285198 0.236150
C10   C     C_2   0.186605 0.340390 0.714802 0.236150
C11   C     C_R   0.500012 0.779971 0.500018 0.542941
C12   C     C_R   0.300507 0.496414 0.469106 0.523823
C13   C     C_R   0.699493 0.503586 0.530894 0.523823
C14   C     C_R   0.811418 0.499958 0.547114 -0.015140
C15   C     C_R   0.188582 0.500042 0.452886 -0.015140
C16   C     C_R   0.034501 0.607057 0.310207 -0.108065
C17   C     C_R   0.965499 0.392942 0.689793 -0.108065
C18   C     C_R   0.139197 0.583572 0.319392 -0.127261
Cu1   Cu    Cu3+1 0.500010 0.500000 0.669080 1.061171
Cu2   Cu    Cu3+1 0.499990 0.500000 0.330920 1.061171
H1    H     H_    0.817352 0.363366 0.774778 0.155968
H2    H     H_    0.182648 0.636634 0.225222 0.155968
H3    H     H_    0.001777 0.677919 0.207992 0.175680
H4    H     H_    0.998223 0.322081 0.792008 0.175680
H5    H     H_    0.760584 0.743997 0.320622 0.112342
H6    H     H_    0.239416 0.256003 0.679378 0.112342
N1    N     N_1   0.499980 0.500000 0.076820 -0.061832
N2    N     N_1   0.500020 0.500000 0.923180 -0.061832
O1    O     O_R   0.500000 0.288400 0.642760 -0.504433
O2    O     O_2   0.178113 0.363026 0.867363 -0.502235
O3    O     O_R   0.500000 0.711600 0.357240 -0.504433
O4    O     O_R   0.500000 0.288400 0.357240 -0.493250
O5    O     O_R   0.500000 0.711600 0.642760 -0.493250
O6    O     O_R   0.349000 0.500000 0.619590 -0.497338
O7    O     O_R   0.651000 0.500000 0.380410 -0.497338
O8    O     O_R   0.348990 0.500000 0.334020 -0.493620
O9    O     O_R   0.651010 0.500000 0.665980 -0.493620
O10   O     O_2   0.821887 0.636974 0.132637 -0.502235

loop_
_geom_bond_atom_site_label_1
_geom_bond_atom_site_label_2
_ccdc_geom_bond_type
C15   C18   A    
Cu2   N1    S    
C12   O8    A    
C6    C16   A    
C10   O2    D    
C13   O9    A    
Cu1   Cu2   S    
C12   C15   S    
C10   H6    S    
C2    H1    S    
C1    O1    A    
C9    H5    S    
C7    C8    T    
C3    C10   S    
C18   H2    S    
C13   C14   S    
C2    C17   A    
Cu1   N2    S    
C8    C11   S    
C4    C6    A    
C9    O10   D    
C13   O7    A    
C16   H3    S    
C4    C14   A    
C5    C6    A    
C2    C14   A    
C17   H4    S    
C5    C17   A    
C11   O3    A    
Cu2   O8    S    
C11   O5    A    
C3    C15   A    
C16   C18   A    
Cu2   O4    S    
N1    N2    T    
Cu1   O9    S    
C4    C9    S    
C1    C7    S    
Cu2   O7    S    
C12   O6    A    
Cu1   O6    S    
C1    O4    A    
Cu1   O5    S    
C3    C5    A    
Cu2   O3    S    
Cu1   O1    S    
