data_mof_unit_42584.cif
_audit_creation_date              2012-12-11T15:41:17-0500
_audit_creation_method            fapswitch 2.2
_symmetry_space_group_name_H-M    P1
_symmetry_Int_Tables_number       1
_space_group_crystal_system       triclinic
_cell_length_a                    19.212867
_cell_length_b                    11.055606
_cell_length_c                    18.825088
_cell_angle_alpha                 89.683943
_cell_angle_beta                  90.876665
_cell_angle_gamma                 90.230859
_cell_volume                      3998.07482755

loop_
_atom_site_label
_atom_site_type_symbol
_atom_type_description
_atom_site_fract_x
_atom_site_fract_y
_atom_site_fract_z
_atom_type_partial_charge
C1    C     C_R   0.727304 0.955162 0.853479 0.555864
C2    C     C_R   0.313901 0.418198 0.032043 0.047121
C3    C     C_R   0.761991 0.858671 0.354631 0.552285
C4    C     C_2   0.499002 0.167395 0.920788 -0.110500
C5    C     C_2   0.499717 0.167849 0.078568 -0.113375
C6    C     C_2   0.999565 0.667077 0.921070 -0.108220
C7    C     C_2   0.000291 0.668166 0.078856 -0.114449
C8    C     C_2   0.490367 0.068448 0.037855 0.277291
C9    C     C_2   0.506996 0.068106 0.962046 0.273167
C10   C     C_2   0.991936 0.568399 0.038331 0.276695
C11   C     C_2   0.008625 0.568219 0.962541 0.275675
C12   C     C_R   0.751739 0.406893 0.076920 -0.048299
C13   C     C_R   0.187022 0.922447 0.966778 0.048314
C14   C     C_R   0.248956 0.399669 0.921295 -0.045863
C15   C     C_R   0.250574 0.902331 0.078502 -0.045731
C16   C     C_R   0.747387 0.906301 0.923262 -0.048708
C17   C     C_3   0.015222 0.045356 0.365224 -0.015954
C18   C     C_3   0.956045 0.121009 0.333952 -0.364943
C19   C     C_3   0.052735 0.054540 0.610553 -0.004158
C20   C     C_3   0.102833 0.101545 0.667709 -0.343299
C21   C     C_3   0.514597 0.541946 0.366653 -0.018370
C22   C     C_3   0.455030 0.612919 0.332476 -0.361592
C23   C     C_3   0.568762 0.573337 0.586339 -0.015038
C24   C     C_R   0.811953 0.926957 0.034166 0.051168
C25   C     C_3   0.620180 0.628534 0.639177 -0.340497
C26   C     C_3   0.683042 0.239244 0.324348 -0.013930
C27   C     C_3   0.649290 0.130446 0.288404 -0.349950
C28   C     C_3   0.372004 0.617847 0.580523 0.006120
C29   C     C_3   0.407745 0.673079 0.516435 -0.439917
C30   C     C_3   0.183409 0.729412 0.330068 -0.011573
C31   C     C_3   0.153134 0.612846 0.299867 -0.346347
C32   C     C_3   0.867299 0.117639 0.578358 0.003345
C33   C     C_3   0.900518 0.169671 0.512013 -0.436460
C34   C     C_3   0.551922 0.613343 0.890350 0.023375
C35   C     C_R   0.806366 0.358481 0.966010 0.199066
C36   C     C_3   0.514002 0.564729 0.824819 -0.334935
C37   C     C_3   0.458564 0.592465 0.098523 0.035238
C38   C     C_3   0.506246 0.545472 0.157618 -0.352383
C39   C     C_3   0.046756 0.102264 0.896008 0.027378
C40   C     C_3   0.996026 0.054121 0.839823 -0.338449
C41   C     C_3   0.955195 0.103236 0.101010 0.032379
C42   C     C_3   0.000361 0.051001 0.160553 -0.352031
C43   C     C_R   0.194101 0.356287 0.033203 0.201354
C44   C     C_R   0.304336 0.848810 0.967967 0.200215
C45   C     C_R   0.692504 0.862373 0.035058 0.198995
C46   C     C_R   0.803888 0.348714 0.039208 -0.114450
C47   C     C_R   0.195934 0.344548 0.960048 -0.113538
C48   C     C_R   0.301998 0.840992 0.041334 -0.111398
C49   C     C_R   0.272332 0.954815 0.146871 0.542774
C50   C     C_R   0.694308 0.851720 0.962029 -0.117736
C51   C     C_3   0.655295 0.559457 0.034130 -0.186470
C52   C     C_3   0.356089 0.534934 0.957879 -0.193631
C53   C     C_3   0.151951 0.051217 0.035701 -0.191299
C54   C     C_3   0.846247 0.055223 0.963334 -0.184579
C55   C     C_3   0.649623 0.543488 0.954235 0.155989
C56   C     C_3   0.358747 0.526934 0.038442 0.161177
C57   C     C_3   0.146645 0.034681 0.955776 0.153495
C58   C     C_3   0.853403 0.038839 0.043022 0.156343
C59   C     C_R   0.746969 0.396082 0.927283 -0.016519
C60   C     C_R   0.227820 0.453528 0.852815 0.556166
C61   C     C_R   0.254334 0.393100 0.071113 -0.016685
C62   C     C_R   0.245604 0.889333 0.928997 -0.012422
C63   C     C_R   0.752952 0.897658 0.072853 -0.019981
C64   C     C_R   0.504056 0.162933 0.422802 0.009708
C65   C     C_R   0.511262 0.173951 0.570673 0.003150
C66   C     C_R   0.011417 0.664183 0.419543 0.006884
C67   C     C_R   0.018091 0.671412 0.567856 0.007207
C68   C     C_R   0.539269 0.259026 0.455786 -0.004971
C69   C     C_R   0.540027 0.264492 0.528078 0.023010
C70   C     C_R   0.042182 0.764048 0.453902 -0.009013
C71   C     C_R   0.772577 0.455683 0.146469 0.539813
C72   C     C_R   0.040948 0.767900 0.526268 0.024363
C73   C     C_R   0.486909 0.068294 0.538489 -0.192211
C74   C     C_R   0.484737 0.061629 0.464579 -0.183976
C75   C     C_R   0.003941 0.561498 0.533954 -0.168103
C76   C     C_R   0.001616 0.557182 0.459769 -0.172483
C77   C     C_R   0.530561 0.177309 0.850691 0.580587
C78   C     C_R   0.469024 0.177779 0.149043 0.569017
C79   C     C_R   0.030710 0.677273 0.850788 0.581393
C80   C     C_R   0.969175 0.677817 0.149141 0.567524
C81   C     C_3   0.544045 0.395768 0.449894 0.151164
C82   C     C_R   0.691627 0.441097 0.038685 -0.063751
C83   C     C_3   0.533875 0.398759 0.529773 0.175350
C84   C     C_3   0.044267 0.901523 0.450290 0.149751
C85   C     C_3   0.031084 0.900998 0.529879 0.172168
C86   C     C_R   0.749338 0.413254 0.421023 0.004552
C87   C     C_R   0.239626 0.435270 0.570951 0.002306
C88   C     C_R   0.248723 0.914884 0.421202 0.002668
C89   C     C_R   0.745832 0.914398 0.576715 0.010229
C90   C     C_R   0.755320 0.497742 0.475706 -0.014575
C91   C     C_R   0.181057 0.414737 0.527589 -0.012735
C92   C     C_R   0.245762 0.001916 0.474678 -0.036047
C93   C     C_R   0.310990 0.425852 0.958211 -0.066042
C94   C     C_R   0.692307 0.862313 0.535935 -0.040234
C95   C     C_R   0.747239 0.464841 0.545791 0.059584
C96   C     C_R   0.185452 0.406420 0.454884 0.019110
C97   C     C_R   0.238063 0.969256 0.544854 0.065445
C98   C     C_R   0.697114 0.851425 0.463638 0.016138
C99   C     C_R   0.715161 0.263517 0.509364 -0.140619
C100  C     C_R   0.307525 0.454261 0.463253 -0.110896
C101  C     C_R   0.220423 0.762438 0.509822 -0.147798
C102  C     C_R   0.813188 0.932159 0.468586 -0.132195
C103  C     C_R   0.724823 0.294431 0.437094 0.219973
C104  C     C_R   0.190177 0.934742 0.040304 -0.063346
C105  C     C_R   0.303019 0.465221 0.537273 0.222410
C106  C     C_R   0.230153 0.793760 0.437779 0.223261
C107  C     C_R   0.808483 0.946911 0.542457 0.228233
C108  C     C_3   0.815774 0.577922 0.493408 -0.271415
C109  C     C_3   0.129287 0.314527 0.531244 -0.269856
C110  C     C_3   0.296768 0.099342 0.493086 -0.269392
C111  C     C_3   0.618391 0.902730 0.529154 -0.247799
C112  C     C_3   0.807501 0.540288 0.570286 -0.269720
C113  C     C_3   0.132182 0.307373 0.451507 -0.267894
C114  C     C_3   0.289868 0.061049 0.570144 -0.261833
C115  C     C_R   0.808276 0.938134 0.960493 -0.059089
C116  C     C_3   0.623593 0.886711 0.450101 -0.257406
C117  C     C_R   0.730279 0.346843 0.564186 0.011354
C118  C     C_R   0.249721 0.417012 0.422041 0.001985
C119  C     C_R   0.230015 0.848575 0.564188 0.002685
C120  C     C_R   0.755280 0.893063 0.428241 -0.004521
C121  C     C_R   0.738238 0.361388 0.853312 0.570380
C122  C     C_R   0.262130 0.361026 0.146065 0.559326
C123  C     C_R   0.237830 0.859668 0.854027 0.571204
C124  C     C_R   0.761734 0.862235 0.146794 0.557817
C125  C     C_R   0.727465 0.956061 0.647446 0.541978
C126  C     C_R   0.688381 0.429382 0.965045 0.048532
C127  C     C_R   0.272103 0.955458 0.351990 0.533055
C128  C     C_R   0.226561 0.458643 0.646061 0.548621
C129  C     C_R   0.771955 0.454587 0.351665 0.524900
C130  C     C_R   0.530339 0.177150 0.644474 0.540385
C131  C     C_R   0.471050 0.175972 0.354338 0.540870
C132  C     C_R   0.032425 0.676956 0.642995 0.543945
C133  C     C_R   0.972579 0.676181 0.353458 0.538649
C134  C     C_R   0.725400 0.312590 0.639017 0.548796
C135  C     C_R   0.261053 0.361901 0.353376 0.541181
C136  C     C_R   0.225603 0.813808 0.638947 0.548431
Cl1   Cl    Cl    0.460674 0.928996 0.072280 -0.483298
Cl2   Cl    Cl    0.534246 0.928303 0.927894 -0.496327
Cl3   Cl    Cl    0.963538 0.428447 0.073068 -0.492501
Cl4   Cl    Cl    0.037441 0.429013 0.928788 -0.491971
Cl5   Cl    Cl    0.886779 0.329036 0.926160 -0.563290
Cl6   Cl    Cl    0.113695 0.328421 0.073913 -0.567780
Cl7   Cl    Cl    0.385325 0.822103 0.928731 -0.561328
Cl8   Cl    Cl    0.612302 0.832936 0.075896 -0.565767
Cr1   Cr    Cr6+3 0.769260 0.163750 0.750730 1.021398
Cr2   Cr    Cr6+3 0.385810 0.322400 0.252290 1.017520
Cr3   Cr    Cr6+3 0.114190 0.822400 0.747710 1.018771
Cr4   Cr    Cr6+3 0.885810 0.822400 0.252290 1.016342
Cr5   Cr    Cr6+3 0.230740 0.163750 0.249270 1.010387
Cr6   Cr    Cr6+3 0.269260 0.663750 0.750730 1.025634
Cr7   Cr    Cr6+3 0.730740 0.663750 0.249270 1.015421
Cr8   Cr    Cr6+3 0.612640 0.009910 0.748780 1.038754
Cr9   Cr    Cr6+3 0.387360 0.009910 0.251220 1.051675
Cr10  Cr    Cr6+3 0.112640 0.509910 0.748780 1.047282
Cr11  Cr    Cr6+3 0.887360 0.509910 0.251220 1.047201
Cr12  Cr    Cr6+3 0.614190 0.322400 0.747710 1.024225
H1    H     H_    0.597667 0.424308 0.434682 0.107225
H2    H     H_    0.078143 0.343117 0.551392 0.142713
H3    H     H_    0.017719 0.155709 0.935459 0.223560
H4    H     H_    0.959884 0.126773 0.822065 0.133933
H5    H     H_    0.024676 0.021279 0.793494 0.134273
H6    H     H_    0.966042 0.975979 0.860447 0.174311
H7    H     H_    0.919528 0.169121 0.125983 0.137468
H8    H     H_    0.988419 0.152688 0.062801 0.224651
H9    H     H_    0.035535 0.121929 0.182485 0.122879
H10   H     H_    0.966433 0.015561 0.202906 0.157251
H11   H     H_    0.031850 0.974295 0.141525 0.167745
H12   H     H_    0.275604 0.190659 0.482153 0.144627
H13   H     H_    0.614041 0.998832 0.544817 0.163571
H14   H     H_    0.864442 0.545377 0.469511 0.151381
H15   H     H_    0.152086 0.233512 0.556734 0.145765
H16   H     H_    0.348713 0.082730 0.470794 0.153260
H17   H     H_    0.580567 0.840371 0.554092 0.130323
H18   H     H_    0.851682 0.485125 0.591082 0.147024
H19   H     H_    0.152789 0.218939 0.433848 0.162093
H20   H     H_    0.337890 0.019168 0.592752 0.147459
H21   H     H_    0.480438 0.422569 0.546386 0.178666
H22   H     H_    0.591492 0.810562 0.429356 0.129447
H23   H     H_    0.791984 0.616152 0.604984 0.140637
H24   H     H_    0.083295 0.336584 0.424380 0.130866
H25   H     H_    0.266700 0.132473 0.603434 0.133601
H26   H     H_    0.618869 0.972894 0.420148 0.158292
H27   H     H_    0.522325 0.249423 0.056017 0.085921
H28   H     H_    0.477213 0.249370 0.942814 0.086932
H29   H     H_    0.022330 0.750152 0.056216 0.085713
H30   H     H_    0.977128 0.748593 0.942983 0.085800
H31   H     H_    0.848091 0.310331 0.066461 0.200787
H32   H     H_    0.097922 0.933604 0.437578 0.105924
H33   H     H_    0.150879 0.307562 0.933466 0.200432
H34   H     H_    0.346462 0.803774 0.068897 0.198640
H35   H     H_    0.649462 0.814674 0.935642 0.202486
H36   H     H_    0.187082 0.125624 0.051857 0.164715
H37   H     H_    0.810409 0.128702 0.947603 0.160196
H38   H     H_    0.691559 0.632243 0.050373 0.159927
H39   H     H_    0.326137 0.612742 0.937431 0.178623
H40   H     H_    0.604590 0.559368 0.060187 0.177719
H41   H     H_    0.406845 0.518322 0.932892 0.171157
H42   H     H_    0.101173 0.048512 0.061737 0.174840
H43   H     H_    0.976151 0.920061 0.542797 0.175604
H44   H     H_    0.896394 0.054253 0.936249 0.178258
H45   H     H_    0.680709 0.608579 0.922192 0.077128
H46   H     H_    0.330571 0.599467 0.066689 0.076307
H47   H     H_    0.176510 0.101036 0.923440 0.078341
H48   H     H_    0.825039 0.105460 0.075823 0.073404
H49   H     H_    0.470152 0.991631 0.570068 0.122993
H50   H     H_    0.461210 0.981901 0.440949 0.145529
H51   H     H_    0.990917 0.481574 0.564501 0.115700
H52   H     H_    0.982814 0.474704 0.435179 0.130105
H53   H     H_    0.042966 0.000481 0.321135 0.132797
H54   H     H_    0.699144 0.172301 0.522840 0.104275
H55   H     H_    0.051534 0.108477 0.393087 0.114283
H56   H     H_    0.935323 0.182941 0.374184 0.141232
H57   H     H_    0.975777 0.178585 0.290187 0.092767
H58   H     H_    0.913447 0.061998 0.313582 0.181817
H59   H     H_    0.005058 0.023942 0.638560 0.147673
H60   H     H_    0.039317 0.130474 0.574326 0.112742
H61   H     H_    0.156236 0.110405 0.647547 0.164225
H62   H     H_    0.084990 0.190861 0.686905 0.090429
H63   H     H_    0.104897 0.038602 0.713362 0.168330
H64   H     H_    0.544587 0.497978 0.323780 0.130897
H65   H     H_    0.357994 0.464108 0.439357 0.202218
H66   H     H_    0.548959 0.607313 0.395436 0.112997
H67   H     H_    0.429465 0.670417 0.371972 0.145963
H68   H     H_    0.475552 0.673656 0.290531 0.092290
H69   H     H_    0.415865 0.550538 0.308774 0.183627
H70   H     H_    0.517636 0.573053 0.613165 0.123527
H71   H     H_    0.566569 0.631453 0.538028 0.119510
H72   H     H_    0.671752 0.639891 0.614763 0.163446
H73   H     H_    0.601073 0.718323 0.655825 0.109981
H74   H     H_    0.624636 0.571780 0.687601 0.169145
H75   H     H_    0.721042 0.276079 0.286022 0.151950
H76   H     H_    0.208186 0.669880 0.523487 0.115878
H77   H     H_    0.641705 0.307188 0.334381 0.110897
H78   H     H_    0.607810 0.092377 0.322017 0.142458
H79   H     H_    0.625553 0.158523 0.236755 0.110802
H80   H     H_    0.688860 0.059798 0.278564 0.173026
H81   H     H_    0.403067 0.638140 0.629217 0.150524
H82   H     H_    0.322167 0.663803 0.585174 0.177370
H83   H     H_    0.450732 0.615468 0.498929 0.180944
H84   H     H_    0.369203 0.684603 0.472535 0.165842
H85   H     H_    0.428755 0.763857 0.530205 0.092702
H86   H     H_    0.212866 0.774318 0.286975 0.147072
H87   H     H_    0.861789 0.952109 0.442990 0.201488
H88   H     H_    0.139256 0.788445 0.345232 0.109072
H89   H     H_    0.126152 0.561028 0.342003 0.163629
H90   H     H_    0.115130 0.634193 0.256585 0.111317
H91   H     H_    0.195296 0.556607 0.277828 0.166753
H92   H     H_    0.897240 0.149606 0.625589 0.154133
H93   H     H_    0.814850 0.155467 0.581112 0.173251
H94   H     H_    0.947484 0.118524 0.498183 0.183949
H95   H     H_    0.862373 0.167227 0.467251 0.167687
H96   H     H_    0.915179 0.265705 0.521111 0.094594
H97   H     H_    0.590001 0.680952 0.870568 0.132279
H98   H     H_    0.804250 0.674618 0.483653 0.149587
H99   H     H_    0.514123 0.660525 0.924377 0.229389
H100  H     H_    0.485757 0.639289 0.797245 0.111361
H101  H     H_    0.552123 0.525682 0.787797 0.156109
H102  H     H_    0.476220 0.493220 0.839408 0.167327
H103  H     H_    0.422665 0.657829 0.123691 0.136929
H104  H     H_    0.489629 0.641384 0.058165 0.220302
H105  H     H_    0.540459 0.619364 0.177658 0.127681
H106  H     H_    0.474247 0.510412 0.201566 0.155486
H107  H     H_    0.538617 0.469620 0.138798 0.164592
H108  H     H_    0.083611 0.163383 0.867964 0.128870
O1    O     O_R   0.784290 0.290360 0.830540 -0.456316
O2    O     O_R   0.456020 0.282110 0.333230 -0.469198
O3    O     O_R   0.043980 0.782110 0.666770 -0.499247
O4    O     O_R   0.956020 0.782110 0.333230 -0.470568
O5    O     O_R   0.679070 0.374030 0.674430 -0.461691
O6    O     O_R   0.320930 0.374030 0.325570 -0.509952
O7    O     O_R   0.179070 0.874030 0.674430 -0.467267
O8    O     O_R   0.820930 0.874030 0.325570 -0.511965
O9    O     O_3   0.665360 0.165350 0.749070 -0.291535
O10   O     O_3   0.334640 0.165350 0.250930 -0.263778
O11   O     O_3   0.165360 0.665350 0.749070 -0.291751
O12   O     O_R   0.215710 0.290360 0.169460 -0.459199
O13   O     O_3   0.834640 0.665350 0.250930 -0.263417
O14   O     O_R   0.762610 0.041070 0.825230 -0.501305
O15   O     O_R   0.237390 0.041070 0.174770 -0.508648
O16   O     O_R   0.262610 0.541070 0.825230 -0.503257
O17   O     O_R   0.737390 0.541070 0.174770 -0.509222
O18   O     O_R   0.667390 0.924160 0.829970 -0.496150
O19   O     O_R   0.332610 0.924160 0.170030 -0.488824
O20   O     O_R   0.167390 0.424160 0.829970 -0.492280
O21   O     O_R   0.832610 0.424160 0.170030 -0.493186
O22   O     O_R   0.553980 0.081420 0.821780 -0.427200
O23   O     O_R   0.284290 0.790360 0.830540 -0.454650
O24   O     O_R   0.446020 0.081420 0.178220 -0.430753
O25   O     O_R   0.053980 0.581420 0.821780 -0.427077
O26   O     O_R   0.946020 0.581420 0.178220 -0.430542
O27   O     O_R   0.543210 0.283170 0.826740 -0.512646
O28   O     O_R   0.456790 0.283170 0.173260 -0.514892
O29   O     O_R   0.043210 0.783170 0.826740 -0.510589
O30   O     O_R   0.956790 0.783170 0.173260 -0.519815
O31   O     O_R   0.678350 0.375000 0.822720 -0.495032
O32   O     O_R   0.321650 0.375000 0.177280 -0.492859
O33   O     O_R   0.178350 0.875000 0.822720 -0.495528
O34   O     O_R   0.715710 0.790360 0.169460 -0.461503
O35   O     O_R   0.821650 0.875000 0.177280 -0.493496
O36   O     O_R   0.785060 0.289300 0.670580 -0.553195
O37   O     O_R   0.214940 0.289300 0.329420 -0.527520
O38   O     O_R   0.285060 0.789300 0.670580 -0.552392
O39   O     O_R   0.714940 0.789300 0.329420 -0.515740
O40   O     O_R   0.763330 0.040090 0.676940 -0.503680
O41   O     O_R   0.236670 0.040090 0.323060 -0.526479
O42   O     O_R   0.263330 0.540090 0.676940 -0.503727
O43   O     O_R   0.736670 0.540090 0.323060 -0.520907
O44   O     O_R   0.668160 0.923110 0.670000 -0.540307
O45   O     O_R   0.554690 0.080440 0.673480 -0.517661
O46   O     O_R   0.331840 0.923110 0.330000 -0.513024
O47   O     O_R   0.168160 0.423110 0.670000 -0.533300
O48   O     O_R   0.831840 0.423110 0.330000 -0.518827
O49   O     O_3   0.988736 0.956801 0.412270 -0.568283
O50   O     O_3   0.083202 0.960008 0.571160 -0.548052
O51   O     O_3   0.488184 0.453092 0.413556 -0.566607
O52   O     O_3   0.589117 0.455132 0.567595 -0.544667
O53   O     O_3   0.718088 0.201801 0.387397 -0.573196
O54   O     O_3   0.362939 0.491021 0.576048 -0.578039
O55   O     O_3   0.228879 0.701705 0.387785 -0.566427
O56   O     O_R   0.445310 0.080440 0.326520 -0.524302
O57   O     O_3   0.865710 0.989627 0.580282 -0.588398
O58   O     O_3   0.581330 0.516131 0.929626 -0.537213
O59   O     O_3   0.424607 0.493079 0.066112 -0.533669
O60   O     O_3   0.079063 0.003627 0.931081 -0.534564
O61   O     O_3   0.921454 0.006958 0.065366 -0.536187
O62   O     O_R   0.054690 0.580440 0.673480 -0.511614
O63   O     O_R   0.945310 0.580440 0.326520 -0.520606
O64   O     O_R   0.543980 0.282110 0.666770 -0.492531

loop_
_geom_bond_atom_site_label_1
_geom_bond_atom_site_label_2
_ccdc_geom_bond_type
C99   C103  A    
C116  H22   S    
Cr9   O19   S    
Cr4   O8    S    
Cr10  O20   S    
C19   C20   S    
C90   C95   A    
C22   H69   S    
C89   C125  S    
C134  O5    A    
C32   H92   S    
C34   H97   S    
C68   C81   S    
C87   C91   A    
C38   H106  S    
Cr8   O22   S    
C109  H2    S    
C57   O60   S    
C94   C111  S    
C18   H58   S    
Cr4   O13   S    
C73   C74   A    
C89   C94   A    
C91   C96   A    
C125  O40   A    
C75   H51   S    
C21   H64   S    
C58   O61   S    
Cr11  O21   S    
C70   C84   S    
Cr1   O40   S    
C113  H19   S    
Cr5   O41   S    
C58   H48   S    
C131  O56   A    
C37   O59   S    
C129  O48   A    
C25   H74   S    
C128  O42   A    
Cr2   O6    S    
C86   C90   A    
C121  O1    A    
C6    C11   D    
Cr2   O32   S    
Cr12  O5    S    
Cr12  O27   S    
C17   O49   S    
C59   C126  A    
C11   Cl4   S    
C40   H6    S    
C37   C38   S    
C28   H81   S    
C9    Cl2   S    
C55   C126  S    
C66   C76   A    
C134  O36   A    
C50   H35   S    
C124  O35   A    
C12   C71   S    
C24   C63   A    
Cr5   O37   S    
C16   C115  A    
C42   H11   S    
C43   C61   A    
C95   C112  S    
C37   H103  S    
Cr2   O10   S    
C5    C8    D    
C98   C120  A    
C114  H25   S    
C6    H30   S    
C119  C136  S    
C39   H108  S    
Cr5   O10   S    
C125  O44   A    
Cr7   O17   S    
C79   O29   A    
C129  O43   A    
C80   O26   A    
C66   C70   A    
C45   C50   A    
C51   C55   S    
C15   C49   S    
C33   H94   S    
C53   H36   S    
C1    O14   A    
C41   H8    S    
C49   O15   A    
C34   H99   S    
C43   Cl6   S    
C43   C47   A    
Cr3   O11   S    
C44   C48   A    
C112  H18   S    
C108  H14   S    
C20   H61   S    
C18   H56   S    
C72   C85   S    
C95   C117  A    
C64   C68   A    
C13   C57   S    
C53   C104  S    
C55   H45   S    
C55   O58   S    
C67   C72   A    
C116  H26   S    
C45   Cl8   S    
C99   H54   S    
C36   H102  S    
C110  C114  S    
C14   C93   A    
C19   H59   S    
C42   H9    S    
C132  O62   A    
C30   H88   S    
C123  O33   A    
C15   C48   A    
C78   O24   A    
C87   C128  S    
C81   C83   S    
Cr8   O18   S    
C92   C97   A    
Cr5   O12   S    
C107  O57   S    
C12   C46   A    
C39   C40   S    
C4    C77   S    
C22   H68   S    
C32   H93   S    
C97   C119  A    
C33   H96   S    
C99   C117  A    
C87   C105  A    
C113  H24   S    
C17   C18   S    
C102  C107  A    
Cr12  O64   S    
C27   H80   S    
C130  O64   A    
C79   O25   A    
C121  O31   A    
C20   H63   S    
Cr7   O39   S    
C124  O34   A    
C101  C106  A    
C73   H49   S    
Cr11  O48   S    
Cr12  O31   S    
C108  H98   S    
C7    H29   S    
Cr9   O56   S    
C102  H87   S    
C26   H75   S    
C14   C60   S    
Cr10  O25   S    
C52   C93   S    
C90   C108  S    
Cr11  O13   S    
C2    C56   S    
C38   H107  S    
C132  O3    A    
C92   C110  S    
C44   Cl7   S    
C114  H20   S    
C101  H76   S    
C34   C36   S    
Cr5   O15   S    
C19   O50   S    
C23   O52   S    
C10   C11   S    
C34   O58   S    
C76   H52   S    
C67   C75   A    
C30   H86   S    
Cr1   O1    S    
C4    C9    D    
C21   C22   S    
C105  O54   S    
C109  H15   S    
C110  H16   S    
C7    C10   D    
C41   C42   S    
C67   C132  S    
C122  O32   A    
C133  O63   A    
C25   H73   S    
C26   C27   S    
C36   H100  S    
C128  O47   A    
C28   C29   S    
C16   C50   A    
C88   C127  S    
C17   H53   S    
Cr8   O9    S    
C74   H50   S    
C30   C31   S    
C136  O38   A    
C94   C98   A    
C35   C59   A    
C82   C126  A    
Cr3   O7    S    
C27   H78   S    
C28   H82   S    
C13   C62   A    
Cr3   O33   S    
C68   C69   A    
Cr8   O44   S    
C31   H90   S    
C111  C116  S    
C46   H31   S    
C56   O59   S    
C29   H84   S    
C48   H34   S    
C2    C61   A    
C52   H39   S    
C117  C134  S    
C63   C124  S    
C33   H95   S    
C21   H66   S    
C83   H21   S    
C71   O17   A    
C81   H1    S    
C84   C85   S    
C38   H105  S    
C32   O57   S    
C53   C57   S    
C49   O19   A    
C108  C112  S    
C8    Cl1   S    
C111  H13   S    
C97   C114  S    
Cr6   O42   S    
C54   C115  S    
C57   H47   S    
C1    C16   S    
Cr6   O11   S    
C13   C104  A    
C84   O49   S    
C123  O23   A    
C106  O55   S    
C21   O51   S    
C41   H7    S    
Cr11  O26   S    
C96   C113  S    
C84   H32   S    
C100  C118  A    
C10   Cl3   S    
C85   O50   S    
C23   H70   S    
C102  C120  A    
Cr9   O46   S    
C127  O46   A    
C39   H3    S    
Cr8   O45   S    
C20   H62   S    
C40   H4    S    
C17   H55   S    
Cr4   O30   S    
C65   C130  S    
C32   C33   S    
Cr4   O4    S    
C40   H5    S    
C30   O55   S    
C6    C79   S    
C65   C69   A    
Cr6   O38   S    
C136  O7    A    
Cr10  O62   S    
Cr6   O16   S    
C89   C107  A    
Cr4   O35   S    
C24   C58   S    
C60   O16   A    
C64   C74   A    
C52   H41   S    
C5    C78   S    
C35   C46   A    
C5    H27   S    
C118  C135  S    
C42   H10   S    
C7    C80   S    
C59   C121  S    
C103  O53   S    
Cr1   O14   S    
C37   H104  S    
C77   O22   A    
C75   C76   A    
Cr1   O36   S    
C54   H44   S    
C131  O2    A    
C100  C105  A    
C53   H42   S    
C96   C118  A    
C51   H40   S    
C1    O18   A    
C56   H46   S    
C127  O41   A    
C65   C73   A    
C41   O61   S    
C19   H60   S    
C39   O60   S    
Cr2   O2    S    
Cr2   O28   S    
C85   H43   S    
C88   C92   A    
C8    C9    S    
C64   C131  S    
Cr9   O10   S    
C15   C104  A    
C109  C113  S    
Cr10  O47   S    
C54   H37   S    
C31   H91   S    
Cr7   O34   S    
C110  H12   S    
C86   C103  A    
C135  O37   A    
C3    O39   A    
C62   C123  S    
C81   O51   S    
C83   O52   S    
C101  C119  A    
Cr3   O3    S    
Cr3   O29   S    
C44   C62   A    
C45   C63   A    
C135  O6    A    
C3    O8    A    
C61   C122  S    
C28   O54   S    
C47   H33   S    
Cr1   O9    S    
C69   C83   S    
C122  O12   A    
C66   C133  S    
C88   C106  A    
C98   C116  S    
Cr9   O24   S    
C60   O20   A    
Cr12  O9    S    
C12   C82   A    
C36   H101  S    
C4    H28   S    
C51   C82   S    
C35   Cl5   S    
C112  H23   S    
C26   H77   S    
C80   O30   A    
C26   O53   S    
C71   O21   A    
C18   H57   S    
Cr6   O23   S    
C133  O4    A    
C54   C58   S    
C111  H17   S    
C2    C93   A    
C51   H38   S    
C77   O27   A    
C23   H71   S    
C86   C129  S    
C78   O28   A    
C14   C47   A    
C27   H79   S    
C22   H67   S    
C25   H72   S    
Cr7   O43   S    
C91   C109  S    
Cr7   O13   S    
C100  H65   S    
C23   C25   S    
Cr10  O11   S    
C3    C120  S    
Cr11  O63   S    
C24   C115  A    
C29   H85   S    
C31   H89   S    
C70   C72   A    
C29   H83   S    
C52   C56   S    
C130  O45   A    
