data_mof_unit_55970.cif
_audit_creation_date              2012-12-10T16:48:08-0500
_audit_creation_method            fapswitch 2.2
_symmetry_space_group_name_H-M    P1
_symmetry_Int_Tables_number       1
_space_group_crystal_system       triclinic
_cell_length_a                    15.819872
_cell_length_b                    8.735525
_cell_length_c                    7.472882
_cell_angle_alpha                 102.951989
_cell_angle_beta                  95.37916
_cell_angle_gamma                 92.309971
_cell_volume                      1000.00485994

loop_
_atom_site_label
_atom_site_type_symbol
_atom_type_description
_atom_site_fract_x
_atom_site_fract_y
_atom_site_fract_z
_atom_type_partial_charge
C1    C     C_R   0.493210 0.200141 0.453607 0.806036
C2    C     C_R   0.498610 0.799275 0.546283 0.797126
C3    C     C_R   0.339932 0.500691 0.500293 0.771127
C4    C     C_R   0.660076 0.499773 0.499742 0.825035
C5    C     C_2   0.483055 0.032314 0.426360 0.171557
C6    C     C_2   0.489701 0.965361 0.572794 0.180910
C7    C     C_3   0.977195 0.404610 0.597671 -0.274140
C8    C     C_3   0.023864 0.613600 0.400182 -0.334727
C9    C     C_3   0.021151 0.363184 0.417549 -0.237798
C10   C     C_3   0.978553 0.655170 0.580130 -0.356479
C11   C     C_1   0.250302 0.504351 0.498922 -0.181713
C12   C     C_1   0.749834 0.500388 0.501325 -0.181871
C13   C     C_3   0.039174 0.551436 0.668047 0.553004
C14   C     C_3   0.961103 0.467453 0.329858 0.577990
C15   C     C_3   0.082884 0.509506 0.491410 0.070760
C16   C     C_3   0.917439 0.507072 0.506766 0.055234
C17   C     C_1   0.174605 0.507217 0.493871 -0.010895
C18   C     C_1   0.825657 0.502698 0.505786 -0.029903
Cu1   Cu    Cu3+1 0.509330 0.517380 0.684380 0.990471
Cu2   Cu    Cu3+1 0.490670 0.482620 0.315620 0.982042
H1    H     H_    0.039372 0.244900 0.347854 0.150630
H2    H     H_    0.957736 0.773249 0.642813 0.155383
H3    H     H_    0.958077 0.319862 0.679359 0.159528
H4    H     H_    0.045768 0.700500 0.324188 0.137187
H5    H     H_    0.430929 0.383683 0.948923 0.226254
H6    H     H_    0.567919 0.619334 0.051331 0.242487
N1    N     N_2   0.476600 0.456420 0.038510 -0.197813
N2    N     N_2   0.523400 0.543580 0.961490 -0.189903
O1    O     O_R   0.506070 0.286130 0.619780 -0.553704
O2    O     O_R   0.493930 0.713870 0.380220 -0.563100
O3    O     O_R   0.490300 0.256770 0.308360 -0.552453
O4    O     O_R   0.509700 0.743230 0.691640 -0.546558
O5    O     O_R   0.386960 0.514660 0.655680 -0.596736
O6    O     O_R   0.613040 0.485340 0.344320 -0.578793
O7    O     O_R   0.371190 0.485310 0.344260 -0.587727
O8    O     O_R   0.628810 0.514690 0.655740 -0.575095
O9    O     O_3   0.913962 0.409317 0.155251 -0.611627
C19   C     C_3   0.901811 0.528744 0.056877 0.067341
H7    H     H_    0.879063 0.469658 0.911984 0.180131
H8    H     H_    0.962287 0.595048 0.051913 0.155473
C20   C     C_3   0.834065 0.640168 0.131030 -0.384951
H9    H     H_    0.774014 0.570473 0.133429 0.245882
H10   H     H_    0.855949 0.707444 0.273340 0.219734
C21   C     C_3   0.816567 0.757922 0.011088 -0.879499
H11   H     H_    0.875754 0.829265 0.006725 0.245375
H12   H     H_    0.768345 0.838173 0.069626 0.269375
H13   H     H_    0.791596 0.695642 0.868624 0.265206
O10   O     O_3   0.086749 0.582588 0.843994 -0.619239
C22   C     C_3   0.095396 0.745410 0.927401 0.045117
H14   H     H_    0.117934 0.757204 0.075336 0.159078
H15   H     H_    0.033381 0.800798 0.925764 0.121668
C23   C     C_3   0.161807 0.833445 0.843901 -0.360768
H16   H     H_    0.223720 0.778728 0.854958 0.218065
H17   H     H_    0.141680 0.826306 0.695836 0.218701
C24   C     C_3   0.173192 0.006833 0.943834 -0.935861
H18   H     H_    0.112493 0.064690 0.928832 0.271980
H19   H     H_    0.222413 0.067391 0.883212 0.248980
H20   H     H_    0.193618 0.018964 0.092889 0.246049
O11   O     O_3   0.469605 0.944170 0.245783 -0.545850
C25   C     C_3   0.380989 0.914346 0.198213 -0.265962
H21   H     H_    0.349166 0.025483 0.197596 0.130636
H22   H     H_    0.351373 0.851015 0.292693 0.136889
H23   H     H_    0.369735 0.837432 0.057418 0.196937
O12   O     O_3   0.488990 0.051802 0.752488 -0.535836
C26   C     C_3   0.403769 0.053535 0.794083 -0.268576
H24   H     H_    0.374065 0.932474 0.775285 0.138991
H25   H     H_    0.365127 0.119988 0.708730 0.115366
H26   H     H_    0.402711 0.113994 0.940744 0.207839

loop_
_geom_bond_atom_site_label_1
_geom_bond_atom_site_label_2
_ccdc_geom_bond_type
C13   O10   S    
C8    C14   S    
C9    C14   S    
C4    O8    A    
C15   C17   S    
O9    C19   S    
Cu2   N1    S    
C4    C12   S    
C20   H9    S    
H6    N2    S    
Cu1   Cu2   S    
C7    H3    S    
C21   H13   S    
C3    O7    A    
C24   H18   S    
C26   H26   S    
Cu2   O6    S    
O12   C26   S    
C22   C23   S    
C1    O1    A    
C9    C15   S    
O11   C25   S    
Cu2   O2    S    
C10   H2    S    
C14   O9    S    
C19   H8    S    
Cu1   N2    S    
C20   H10   S    
C9    H1    S    
C2    C6    S    
C25   H23   S    
C1    C5    S    
Cu1   O4    S    
C16   C18   S    
O10   C22   S    
C8    H4    S    
C23   C24   S    
C21   H12   S    
C22   H14   S    
C8    C15   S    
C4    O6    A    
Cu1   O8    S    
C24   H19   S    
C13   C15   S    
C25   H22   S    
C5    C6    D    
Cu2   O3    S    
C20   C21   S    
C14   C16   S    
C3    C11   S    
C2    O2    A    
C3    O5    A    
C12   C18   T    
Cu1   O1    S    
C1    O3    A    
C19   H7    S    
C23   H16   S    
C19   C20   S    
C2    O4    A    
C26   H24   S    
Cu1   O5    S    
C24   H20   S    
C6    O12   S    
N1    N2    D    
C7    C9    S    
C5    O11   S    
C11   C17   T    
C10   C16   S    
C7    C13   S    
C26   H25   S    
Cu2   O7    S    
C10   C13   S    
C8    C10   S    
C7    C16   S    
C21   H11   S    
C23   H17   S    
C25   H21   S    
C22   H15   S    
H5    N1    S    
