data_mof_unit_41063.cif
_audit_creation_date              2012-12-10T17:04:32-0500
_audit_creation_method            fapswitch 2.2
_symmetry_space_group_name_H-M    P1
_symmetry_Int_Tables_number       1
_space_group_crystal_system       triclinic
_cell_length_a                    15.0491
_cell_length_b                    10.486284
_cell_length_c                    10.032769
_cell_angle_alpha                 93.76156
_cell_angle_beta                  88.884966
_cell_angle_gamma                 89.998727
_cell_volume                      1579.55130306

loop_
_atom_site_label
_atom_site_type_symbol
_atom_type_description
_atom_site_fract_x
_atom_site_fract_y
_atom_site_fract_z
_atom_type_partial_charge
C1    C     C_R   0.500828 0.259843 0.494702 0.952030
C2    C     C_R   0.902837 0.547677 0.622962 -0.032500
C3    C     C_R   0.957930 0.463402 0.262742 -0.125658
C4    C     C_R   0.050017 0.463891 0.264769 -0.111323
C5    C     C_R   0.093611 0.489405 0.385535 0.096177
C6    C     C_R   0.045037 0.517751 0.505435 0.019176
C7    C     C_R   0.088872 0.541367 0.627630 -0.048476
C8    C     C_R   0.038882 0.573216 0.744965 -0.200918
C9    C     C_R   0.946615 0.577515 0.744210 0.414078
C10   C     C_R   0.185230 0.485369 0.387777 -0.195707
C11   C     C_R   0.229753 0.505496 0.508224 -0.137200
C12   C     C_R   0.326333 0.500748 0.502223 0.954445
C13   C     C_R   0.181645 0.531632 0.630299 0.408315
C14   C     C_2   0.425964 0.919999 0.409140 0.276492
C15   C     C_2   0.452529 0.866678 0.519241 0.024783
C16   C     C_2   0.457549 0.050481 0.383241 0.356371
C17   C     C_2   0.496579 0.121960 0.484119 -0.450358
C18   C     C_2   0.541694 0.584666 0.929696 0.401205
C19   C     C_2   0.553795 0.568220 0.076138 0.400620
C20   C     C_R   0.489061 0.738061 0.504990 0.880478
C21   C     C_R   0.673135 0.501889 0.498981 0.892480
C22   C     C_R   0.810825 0.542764 0.618053 -0.123230
C23   C     C_R   0.768558 0.510098 0.498171 -0.099446
C24   C     C_R   0.817018 0.486162 0.379435 -0.174369
C25   C     C_R   0.908918 0.490441 0.380998 0.115499
C26   C     C_R   0.952303 0.519580 0.503165 0.043230
H1    H     H_    0.770919 0.562992 0.707467 0.245918
H2    H     H_    0.514634 0.081148 0.575727 0.191762
H3    H     H_    0.488739 0.413821 0.889344 0.199570
H4    H     H_    0.783427 0.461664 0.286565 0.182886
H5    H     H_    0.925070 0.440510 0.169125 0.194173
H6    H     H_    0.087131 0.442261 0.172353 0.187801
H7    H     H_    0.221930 0.464106 0.294839 0.227525
H8    H     H_    0.070914 0.594980 0.838970 0.242225
N1    N     N_2   0.500970 0.501330 0.852150 -0.197830
N2    N     N_2   0.500990 0.501360 0.147810 0.010575
O1    O     O_R   0.499990 0.319060 0.613040 -0.605523
O2    O     O_R   0.500010 0.319100 0.386900 -0.542748
O3    O     O_R   0.367830 0.499950 0.613080 -0.549279
O4    O     O_R   0.367860 0.499990 0.386940 -0.559114
O5    O     O_R   0.499990 0.680900 0.613100 -0.520803
O6    O     O_R   0.500010 0.680940 0.386960 -0.577108
O7    O     O_R   0.632140 0.500010 0.613060 -0.617587
O8    O     O_R   0.632170 0.500050 0.386920 -0.592686
Zn1   Zn    Zn3+2 0.499980 0.499970 0.650990 1.117969
Zn2   Zn    Zn3+2 0.500020 0.500030 0.349010 1.165634
S1    S     S_3+6 0.400358 0.916525 0.675254 0.081912
O9    O     O_2   0.470682 0.952073 0.775278 -0.249078
O10   O     O_2   0.340696 0.029559 0.660399 -0.260483
O11   O     O_3   0.339634 0.795798 0.730709 -0.457201
H9    H     H_    0.321009 0.824984 0.822944 0.408280
S2    S     S_3+6 0.448906 0.102941 0.218085 0.138618
O12   O     O_2   0.374300 0.198111 0.216214 -0.233625
O13   O     O_2   0.534353 0.164657 0.176536 -0.252709
O14   O     O_3   0.429011 0.979859 0.106763 -0.439550
H10   H     H_    0.401531 0.018651 0.030144 0.410898
Cl1   Cl    Cl    0.592399 0.716932 0.860637 -0.384094
Cl2   Cl    Cl    0.643472 0.648526 0.154043 -0.500700
Cl3   Cl    Cl    0.393116 0.473874 0.093641 -0.410101
Cl4   Cl    Cl    0.234442 0.548832 0.788056 -0.494576
S3    S     S_3+6 0.888841 0.617304 0.897576 0.040812
O15   O     O_2   0.952689 0.649438 0.008191 -0.292527
O16   O     O_2   0.829488 0.730433 0.881899 -0.212618
O17   O     O_3   0.826437 0.491629 0.936897 -0.568993
H11   H     H_    0.798915 0.517451 0.024948 0.396820
S4    S     S_3+6 0.328673 0.856390 0.331730 0.123197
O18   O     O_2   0.355067 0.766151 0.215179 -0.215333
O19   O     O_2   0.274994 0.784602 0.429998 -0.286524
O20   O     O_3   0.265549 0.974370 0.278303 -0.474706
H12   H     H_    0.217130 0.930260 0.228228 0.392727

loop_
_geom_bond_atom_site_label_1
_geom_bond_atom_site_label_2
_ccdc_geom_bond_type
C12   O4    A    
S3    O17   S    
S4    O19   D    
C23   C24   A    
N2    Zn2   S    
C6    C7    A    
C15   S1    S    
S1    O11   S    
C21   O8    A    
C11   C13   A    
C18   N1    D    
H3    N1    S    
C18   Cl1   S    
C20   O6    A    
S1    O9    D    
S2    O14   S    
C1    O1    A    
C19   N2    D    
O3    Zn1   S    
N2    Cl3   S    
O17   H11   S    
O14   H10   S    
C7    C13   A    
S4    O18   D    
C14   S4    S    
C5    C10   A    
C2    C26   A    
C13   Cl4   S    
C4    H6    S    
C2    C22   A    
C24   C25   A    
C3    H5    S    
O7    Zn1   S    
S3    O15   D    
C1    O2    A    
C12   O3    A    
C9    S3    S    
C5    C6    A    
C22   C23   A    
S2    O13   D    
C20   O5    A    
C10   H7    S    
C14   C16   S    
O20   H12   S    
C21   C23   S    
C19   Cl2   S    
C15   C20   S    
C24   H4    S    
O2    Zn2   S    
S4    O20   S    
C7    C8    A    
C10   C11   A    
O4    Zn2   S    
O1    Zn1   S    
C3    C4    A    
N1    Zn1   S    
C3    C25   A    
C2    C9    A    
S2    O12   D    
C8    C9    A    
S1    O10   D    
C18   C19   S    
O6    Zn2   S    
C22   H1    S    
O5    Zn1   S    
C6    C26   A    
C16   C17   D    
C8    H8    S    
O11   H9    S    
C25   C26   A    
C14   C15   D    
C17   H2    S    
C1    C17   S    
S3    O16   D    
C21   O7    A    
C16   S2    S    
C11   C12   S    
O8    Zn2   S    
C4    C5    A    
