data_mof_unit_17838.cif
_audit_creation_date              2013-03-05T16:04:28-0500
_audit_creation_method            fapswitch 2.2
_symmetry_space_group_name_H-M    P1
_symmetry_Int_Tables_number       1
_space_group_crystal_system       triclinic
_cell_length_a                    10.858984
_cell_length_b                    9.612949
_cell_length_c                    15.006806
_cell_angle_alpha                 90.758825
_cell_angle_beta                  92.019717
_cell_angle_gamma                 90.383183
_cell_volume                      1565.36274384

loop_
_atom_site_label
_atom_site_type_symbol
_atom_site_description
_atom_site_fract_x
_atom_site_fract_y
_atom_site_fract_z
_atom_type_partial_charge
O1    O     O_R   0.319640 0.618740 0.499990 -0.568173
O2    O     O_R   0.680360 0.381260 0.500010 -0.567705
O3    O     O_R   0.680360 0.618740 0.500010 -0.570311
O4    O     O_R   0.319640 0.381260 0.499990 -0.567060
C1    C     C_R   0.262344 0.499761 0.500795 0.838005
C2    C     C_R   0.737630 0.500269 0.499004 0.838701
O5    O     O_R   0.499970 0.618800 0.370260 -0.550972
O6    O     O_R   0.500030 0.381200 0.629740 -0.548006
O7    O     O_R   0.500030 0.618800 0.629740 -0.547158
O8    O     O_R   0.499970 0.381200 0.370260 -0.543179
C3    C     C_R   0.496547 0.499230 0.329199 0.861340
C4    C     C_R   0.504935 0.500406 0.670968 0.861134
Cu1   Cu    Cu3+1 0.500000 0.640660 0.500000 1.079949
Cu2   Cu    Cu3+1 0.500000 0.359340 0.500000 1.081691
C5    C     C_R   0.619347 0.532458 0.817245 0.344136
C6    C     C_R   0.388041 0.467512 0.181865 0.360333
C7    C     C_R   0.510647 0.498064 0.767863 -0.128442
C8    C     C_R   0.496024 0.496502 0.232760 -0.128089
C9    C     C_R   0.407572 0.448325 0.809487 -0.193994
C10   C     C_R   0.606521 0.522476 0.192341 -0.209857
C11   C     C_R   0.405970 0.438943 0.901964 0.035208
C12   C     C_R   0.613240 0.520617 0.099556 0.035792
C13   C     C_R   0.511554 0.481411 0.953653 -0.012613
C14   C     C_R   0.507024 0.482534 0.047256 -0.015113
C15   C     C_R   0.622049 0.519892 0.911655 -0.106446
C16   C     C_R   0.395604 0.447127 0.088769 -0.105894
C17   C     C_R   0.302153 0.383997 0.943357 0.106801
C18   C     C_R   0.725175 0.549507 0.058666 0.102260
C19   C     C_R   0.296371 0.388712 0.036636 0.287392
C20   C     C_R   0.731306 0.542027 0.965318 0.288420
H1    H     H_    0.327512 0.420584 0.767992 0.163727
H2    H     H_    0.686178 0.545475 0.235263 0.160080
C21   C     C_R   0.062809 0.373735 0.497946 -0.089756
C22   C     C_R   0.937119 0.626451 0.501922 -0.093265
C23   C     C_R   0.935237 0.374077 0.495818 -0.094403
C24   C     C_R   0.064713 0.626100 0.503862 -0.096679
H3    H     H_    0.109677 0.274858 0.497122 0.200660
H4    H     H_    0.890206 0.725346 0.503162 0.198443
H5    H     H_    0.886842 0.275332 0.491916 0.197496
H6    H     H_    0.113122 0.724846 0.507772 0.198240
C25   C     C_R   0.871625 0.500410 0.498513 -0.029850
C26   C     C_R   0.128327 0.499735 0.501175 -0.034862
C27   C     C_R   0.432953 0.072160 0.436803 0.268957
C28   C     C_R   0.566075 0.927954 0.563471 0.273088
C29   C     C_R   0.567044 0.075990 0.563174 0.282100
C30   C     C_R   0.433264 0.924027 0.436557 0.281267
N1    N     N_R   0.500000 0.852070 0.500000 -0.318938
N2    N     N_R   0.500000 0.147930 0.500000 -0.320259
N3    N     N_R   0.723532 0.584412 0.771246 0.155688
O9    O     O_R   0.770392 0.511678 0.707235 -0.310735
O10   O     O_R   0.770219 0.706002 0.791994 -0.207335
N4    N     N_R   0.270481 0.480803 0.222117 0.147562
O11   O     O_R   0.245972 0.414045 0.294172 -0.289811
O12   O     O_R   0.192862 0.572842 0.192045 -0.252739
I1    I     I_    0.160776 0.273712 0.867091 -0.021330
I2    I     I_    0.889049 0.599931 0.137068 -0.007231
N5    N     N_R   0.196502 0.319310 0.078276 0.165758
O13   O     O_R   0.083242 0.356802 0.061731 -0.237918
O14   O     O_R   0.218565 0.214762 0.130513 -0.226226
N6    N     N_R   0.850338 0.537235 0.926873 0.174422
O15   O     O_R   0.926073 0.642555 0.934640 -0.236947
O16   O     O_R   0.884171 0.425000 0.885346 -0.247698
N7    N     N_R   0.360148 0.141217 0.370154 0.200000
O17   O     O_R   0.242261 0.151660 0.380641 -0.290185
O18   O     O_R   0.401533 0.149460 0.290077 -0.264501
N8    N     N_R   0.633005 0.858950 0.632851 0.192508
O19   O     O_R   0.749722 0.835748 0.623898 -0.289179
O20   O     O_R   0.588705 0.859889 0.712274 -0.274623
N9    N     N_R   0.639992 0.149124 0.629955 0.191490
O21   O     O_R   0.600582 0.157639 0.710740 -0.275950
O22   O     O_R   0.756824 0.167938 0.617600 -0.308667
N10   N     N_R   0.362057 0.850845 0.368858 0.190069
O23   O     O_R   0.401383 0.846768 0.287967 -0.272894
O24   O     O_R   0.246148 0.825977 0.381218 -0.307719

loop_
_geom_bond_atom_site_label_1
_geom_bond_atom_site_label_2
_geom_bond_distance
_ccdc_geom_bond_type
N8    O20   1.300876 A    
C1    C26   1.455503 S    
N7    O18   1.300935 A    
C3    C8    1.446934 S    
C17   C19   1.403583 A    
C28   N8    1.422560 S    
O3    C2    1.301402 A    
C9    H1    1.081218 S    
C18   I2    2.147483 S    
C27   N7    1.426522 S    
N4    O11   1.299340 A    
O5    C3    1.296648 A    
O1    C1    1.298750 A    
C21   C26   1.400040 A    
C9    C11   1.392611 A    
C14   C16   1.421640 A    
C17   I1    2.147787 S    
C5    C15   1.422829 A    
N6    O16   1.300397 A    
N9    O22   1.300388 A    
O7    Cu1   1.961044 S    
C7    C9    1.386235 A    
C24   C26   1.402241 A    
N3    O10   1.300556 A    
C2    C25   1.455318 S    
C20   N6    1.434693 S    
C4    C7    1.453709 S    
C13   C14   1.407166 A    
C27   N2    1.373308 A    
C22   C24   1.384857 A    
O3    Cu1   1.971224 S    
C28   N1    1.371354 A    
C13   C15   1.423827 A    
N8    O19   1.299677 A    
C11   C17   1.409192 A    
C12   C18   1.408432 A    
Cu1   Cu2   2.704315 S    
O2    C2    1.298995 A    
C22   C25   1.400258 A    
C23   C25   1.401973 A    
O7    C4    1.303094 A    
N4    O12   1.300244 A    
C6    C16   1.413518 A    
C29   N9    1.429695 S    
C24   H6    1.081891 S    
N10   O24   1.299760 A    
O8    Cu2   1.961044 S    
Cu1   N1    2.032274 S    
O4    C1    1.301748 A    
Cu2   N2    2.032275 S    
C21   H3    1.081304 S    
N6    O15   1.301513 A    
C23   H5    1.081817 S    
O6    C4    1.294931 A    
C10   C12   1.396762 A    
C11   C13   1.416184 A    
C12   C14   1.415375 A    
O1    Cu1   1.968422 S    
C28   C29   1.423100 A    
C10   H2    1.079994 S    
C29   N2    1.372047 A    
C15   C20   1.423420 A    
C5    C7    1.406554 A    
C30   N1    1.373179 A    
O6    Cu2   1.955510 S    
C22   H4    1.081807 S    
C30   N10   1.429453 S    
C6    N4    1.437133 S    
C19   N5    1.435551 S    
N10   O23   1.301144 A    
C18   C20   1.405691 A    
N5    O13   1.300357 A    
C21   C23   1.384573 A    
C8    C10   1.386110 A    
C5    N3    1.436138 S    
O4    Cu2   1.971225 S    
N9    O21   1.301527 A    
O2    Cu2   1.968421 S    
C27   C30   1.423984 A    
N5    O14   1.301087 A    
O8    C3    1.298428 A    
N7    O17   1.299646 A    
O5    Cu1   1.955510 S    
C16   C19   1.417535 A    
C6    C8    1.401008 A    
N3    O9    1.300762 A    
