data_mof_unit_48736.cif
_audit_creation_date              2012-12-10T17:03:00-0500
_audit_creation_method            fapswitch 2.2
_symmetry_space_group_name_H-M    P1
_symmetry_Int_Tables_number       1
_space_group_crystal_system       triclinic
_cell_length_a                    9.828316
_cell_length_b                    11.060445
_cell_length_c                    13.452578
_cell_angle_alpha                 94.230178
_cell_angle_beta                  82.205147
_cell_angle_gamma                 111.75866
_cell_volume                      1345.19321613

loop_
_atom_site_label
_atom_site_type_symbol
_atom_type_description
_atom_site_fract_x
_atom_site_fract_y
_atom_site_fract_z
_atom_type_partial_charge
C1    C     C_R   0.557684 0.745949 0.506722 0.808591
C2    C     C_R   0.429244 0.430022 0.966819 0.024192
C3    C     C_R   0.473229 0.433440 0.861934 0.085353
C4    C     C_R   0.538991 0.459466 0.033442 0.091684
C5    C     C_R   0.686507 0.477201 0.994579 0.166667
C6    C     C_R   0.720915 0.456208 0.892816 -0.201051
C7    C     C_R   0.614928 0.430673 0.827963 -0.167596
C8    C     C_R   0.508002 0.476600 0.137164 -0.246513
C9    C     C_R   0.763261 0.525444 0.161169 -0.180151
C10   C     C_R   0.372391 0.435966 0.795435 -0.168439
C11   C     C_2   0.593491 0.886231 0.508974 0.214174
C12   C     C_R   0.420869 0.473895 0.689187 0.824949
C13   C     C_2   0.489470 0.932387 0.494842 -0.225303
C14   C     C_2   0.411252 0.114832 0.487160 -0.365115
C15   C     C_2   0.518378 0.071322 0.496597 -0.093246
C16   C     C_2   0.922147 0.491946 0.489971 -0.043805
C17   C     C_2   0.074969 0.505702 0.510710 0.107140
C18   C     C_R   0.443137 0.254300 0.492095 0.847897
C19   C     C_R   0.576645 0.510428 0.309634 0.795956
C20   C     C_R   0.797528 0.512643 0.058264 -0.120600
C21   C     C_R   0.618010 0.506039 0.201130 -0.063141
C22   C     C_R   0.222853 0.402483 0.832097 -0.228721
C23   C     C_R   0.174982 0.374106 0.932783 0.424519
C24   C     C_R   0.277079 0.393579 0.000470 -0.227246
Cu1   Cu    Cu3+1 0.362000 0.479240 0.482530 0.973892
Cu2   Cu    Cu3+1 0.638000 0.520760 0.517470 0.968146
H1    H     H_    0.850037 0.549762 0.209314 0.170078
H2    H     H_    0.379165 0.866035 0.482356 0.159091
H3    H     H_    0.300540 0.047914 0.476458 0.166728
H4    H     H_    0.117499 0.561845 0.576774 0.084978
H5    H     H_    0.872742 0.427408 0.429265 0.197923
H6    H     H_    0.893400 0.611906 0.601712 0.200148
H7    H     H_    0.830355 0.459410 0.863020 0.173513
H8    H     H_    0.910996 0.530252 0.028463 0.179236
H9    H     H_    0.398938 0.469144 0.169686 0.168266
H10   H     H_    0.142262 0.395103 0.782160 0.183664
H11   H     H_    0.233661 0.373188 0.077924 0.155192
H12   H     H_    0.645777 0.403430 0.752202 0.187289
H13   H     H_    0.628439 0.139629 0.506603 0.227422
N1    N     N_2   0.845330 0.551960 0.543750 -0.309921
N2    N     N_2   0.154690 0.448120 0.456210 -0.007284
O1    O     O_R   0.426290 0.668220 0.490680 -0.609919
O2    O     O_R   0.659360 0.703290 0.520190 -0.515790
O3    O     O_R   0.326580 0.473880 0.629020 -0.594406
O4    O     O_R   0.559660 0.508940 0.658530 -0.582196
O5    O     O_R   0.340640 0.296710 0.479810 -0.605199
O6    O     O_R   0.573710 0.331780 0.509320 -0.587351
O7    O     O_R   0.440340 0.491060 0.341470 -0.571306
O8    O     O_R   0.673420 0.526120 0.370980 -0.581617
Cl1   Cl    Cl    0.774894 0.989377 0.530049 -0.655880
O9    O     O_3   0.109091 0.402162 0.365930 -0.542738
C25   C     C_3   0.111917 0.275792 0.351055 0.176244
H14   H     H_    0.079031 0.221047 0.422309 0.182166
H15   H     H_    0.223934 0.281482 0.318217 0.165662
C26   C     C_3   0.002291 0.200716 0.277461 -0.390240
H16   H     H_    0.889072 0.191698 0.310607 0.240355
H17   H     H_    0.029128 0.255025 0.206733 0.251519
C27   C     C_3   0.006082 0.064907 0.253422 -0.843966
H18   H     H_    0.117475 0.071804 0.217912 0.247623
H19   H     H_    0.924567 0.012817 0.200483 0.274712
H20   H     H_    0.977685 0.008033 0.322932 0.282111
Cl2   Cl    Cl    0.985678 0.311552 0.974341 -0.678344

loop_
_geom_bond_atom_site_label_1
_geom_bond_atom_site_label_2
_ccdc_geom_bond_type
Cu1   O1    S    
C2    C4    A    
C23   C24   A    
C25   C26   S    
C13   H2    S    
C6    C7    A    
C12   O4    A    
C22   H10   S    
C14   C18   S    
C9    C20   A    
C1    C11   S    
C6    H7    S    
C4    C8    A    
C20   H8    S    
C18   O6    A    
C27   H20   S    
H6    N1    S    
C8    C21   A    
Cu1   Cu2   S    
C12   O3    A    
C3    C10   A    
C10   C22   A    
C16   H5    S    
C17   H4    S    
C11   C13   D    
Cu1   O7    S    
Cu2   N1    S    
C10   C12   S    
Cu2   O6    S    
C16   N1    D    
C18   O5    A    
Cu1   O3    S    
C22   C23   A    
C19   C21   S    
C7    H12   S    
N2    O9    S    
Cu2   O2    S    
C24   H11   S    
C3    C7    A    
C26   H17   S    
C13   C15   S    
C2    C24   A    
C5    C6    A    
C5    C20   A    
C17   N2    D    
C26   H16   S    
C26   C27   S    
C14   H3    S    
C27   H19   S    
O9    C25   S    
C9    C21   A    
C1    O1    A    
C25   H14   S    
C9    H1    S    
Cu2   O8    S    
Cu1   N2    S    
C11   Cl1   S    
C19   O8    A    
C14   C15   D    
C16   C17   S    
C2    C3    A    
Cu2   O4    S    
C27   H18   S    
C19   O7    A    
Cu1   O5    S    
C1    O2    A    
C23   Cl2   S    
C15   H13   S    
C25   H15   S    
C4    C5    A    
C8    H9    S    
