data_mof_unit_55473.cif
_audit_creation_date              2012-12-10T17:20:22-0500
_audit_creation_method            fapswitch 2.2
_symmetry_space_group_name_H-M    P1
_symmetry_Int_Tables_number       1
_space_group_crystal_system       triclinic
_cell_length_a                    11.679976
_cell_length_b                    10.764528
_cell_length_c                    9.607336
_cell_angle_alpha                 92.140963
_cell_angle_beta                  88.265213
_cell_angle_gamma                 91.771773
_cell_volume                      1205.99178527

loop_
_atom_site_label
_atom_site_type_symbol
_atom_type_description
_atom_site_fract_x
_atom_site_fract_y
_atom_site_fract_z
_atom_type_partial_charge
C1    C     C_R   0.497949 0.262639 0.497575 0.784275
C2    C     C_R   0.188007 0.072402 0.625518 0.164581
C3    C     C_R   0.193583 0.950680 0.671260 0.157391
C4    C     C_R   0.297918 0.887348 0.656284 0.071343
C5    C     C_R   0.391035 0.939195 0.574454 0.006618
C6    C     C_R   0.388218 0.067489 0.547607 0.037974
C7    C     C_R   0.487127 0.128645 0.492723 -0.045539
C8    C     C_R   0.580077 0.062088 0.441283 -0.175990
C9    C     C_R   0.577142 0.934369 0.447168 -0.190615
C10   C     C_R   0.485515 0.871789 0.514022 -0.054423
C11   C     C_R   0.688122 0.608069 0.132530 0.180601
C12   C     C_R   0.284134 0.500332 0.501683 0.805825
C13   C     C_R   0.741350 0.716495 0.079911 0.069019
C14   C     C_R   0.722481 0.743102 0.941580 -0.244522
C15   C     C_R   0.649534 0.666359 0.862276 -0.133493
C16   C     C_R   0.577355 0.575965 0.926027 0.213363
C17   C     C_R   0.585062 0.564822 0.072914 0.137074
C18   C     C_R   0.420485 0.433895 0.074054 -0.017938
C19   C     C_R   0.422835 0.430716 0.925865 -0.003231
C20   C     C_R   0.489401 0.736915 0.503992 0.789341
C21   C     C_R   0.715822 0.499249 0.498679 0.811090
C22   C     C_1   0.162369 0.500747 0.504486 -0.124731
C23   C     C_1   0.059836 0.500480 0.503324 0.065070
C24   C     C_1   0.940098 0.499288 0.500086 0.053205
C25   C     C_1   0.837590 0.498727 0.497642 -0.137627
C26   C     C_R   0.286261 0.132032 0.572687 -0.253447
Cu1   Cu    Cu3+1 0.499990 0.499990 0.640660 0.982041
Cu2   Cu    Cu3+1 0.500010 0.500010 0.359340 0.973930
H1    H     H_    0.654958 0.109203 0.396232 0.154461
H2    H     H_    0.769415 0.819011 0.892675 0.193155
H3    H     H_    0.650693 0.684036 0.754104 0.204894
H4    H     H_    0.360032 0.373528 0.870579 0.149209
H5    H     H_    0.280629 0.228191 0.545282 0.151057
H6    H     H_    0.648310 0.883956 0.401340 0.145941
H7    H     H_    0.355609 0.379407 0.129136 0.145052
N1    N     N_R   0.501070 0.501210 0.147910 -0.190637
N2    N     N_R   0.501110 0.501290 0.852040 -0.184852
O1    O     O_R   0.499990 0.319640 0.618810 -0.567298
O2    O     O_R   0.500000 0.319660 0.381240 -0.571997
O3    O     O_R   0.337190 0.500000 0.618790 -0.554861
O4    O     O_R   0.337200 0.500030 0.381210 -0.579173
O5    O     O_R   0.500000 0.680340 0.618760 -0.582777
O6    O     O_R   0.500010 0.680360 0.381190 -0.573787
O7    O     O_R   0.662800 0.499970 0.618790 -0.577596
O8    O     O_R   0.662810 0.500000 0.381210 -0.567975
I1    I     I_    0.036676 0.177063 0.643040 -0.338755
I2    I     I_    0.045259 0.866776 0.771060 -0.357388
I3    I     I_    0.323130 0.759811 0.817146 -0.279397
I4    I     I_    0.807923 0.461195 0.121044 -0.327451
C27   C     C_3   0.826782 0.799070 0.158548 -0.365236
C28   C     C_3   0.857846 0.754140 0.301664 -0.383793
C29   C     C_3   0.927065 0.853533 0.382513 -0.776292
H8    H     H_    0.006551 0.879869 0.322884 0.270188
H9    H     H_    0.875403 0.937378 0.404202 0.263514
H10   H     H_    0.951250 0.815955 0.482927 0.267317
H11   H     H_    0.779322 0.729861 0.363790 0.214031
H12   H     H_    0.910914 0.670797 0.287331 0.253734
H13   H     H_    0.907090 0.807983 0.093962 0.238753
H14   H     H_    0.790068 0.893052 0.171456 0.206776

loop_
_geom_bond_atom_site_label_1
_geom_bond_atom_site_label_2
_ccdc_geom_bond_type
C12   O3    A    
C20   O5    A    
C23   C24   S    
C24   C25   T    
C15   H3    S    
C12   O4    A    
C11   I4    S    
C17   N1    A    
C21   O7    A    
C19   N2    A    
C9    C10   A    
C16   N2    A    
C26   H5    S    
C29   H10   S    
Cu1   O3    S    
C2    C3    A    
C5    C10   A    
C2    C26   A    
C8    H1    S    
C13   C14   A    
C2    I1    S    
C5    C6    A    
C11   C13   A    
Cu1   O5    S    
C6    C26   A    
C1    O1    A    
Cu1   N2    S    
C28   H12   S    
C27   H14   S    
C3    I2    S    
C14   H2    S    
C18   C19   A    
C6    C7    A    
C21   O8    A    
C22   C23   T    
C4    I3    S    
C9    H6    S    
Cu2   O8    S    
C1    O2    A    
C15   C16   A    
C19   H4    S    
Cu1   O1    S    
C13   C27   S    
C27   H13   S    
C12   C22   S    
Cu2   O4    S    
C7    C8    A    
C20   O6    A    
C29   H8    S    
Cu2   N1    S    
C28   H11   S    
C18   H7    S    
C10   C20   S    
Cu1   Cu2   S    
C21   C25   S    
C14   C15   A    
C16   C17   A    
Cu2   O6    S    
Cu2   O2    S    
C27   C28   S    
C1    C7    S    
C4    C5    A    
C18   N1    A    
Cu1   O7    S    
C11   C17   A    
C3    C4    A    
C28   C29   S    
C29   H9    S    
C8    C9    A    
