data_mof_unit_15761.cif
_audit_creation_date              2012-10-26T21:01:33-0400
_audit_creation_method            fapswitch 2.2
_symmetry_space_group_name_H-M    P1
_symmetry_Int_Tables_number       1
_space_group_crystal_system       triclinic
_cell_length_a                    15.870291
_cell_length_b                    13.059569
_cell_length_c                    11.666771
_cell_angle_alpha                 101.23907
_cell_angle_beta                  93.620498
_cell_angle_gamma                 90.162074
_cell_volume                      2366.65666912

loop_
_atom_site_label
_atom_site_type_symbol
_atom_type_description
_atom_site_fract_x
_atom_site_fract_y
_atom_site_fract_z
_atom_type_partial_charge
C1    C     C_R   0.497368 0.298464 0.476811 0.553882
C2    C     C_R   0.496106 0.966448 0.444375 -0.016179
C3    C     C_R   0.402903 0.427041 0.024512 -0.032245
C4    C     C_R   0.597098 0.572957 0.975488 -0.032250
C5    C     C_R   0.416162 0.430754 0.146617 0.086696
C6    C     C_R   0.583839 0.569244 0.853382 0.086690
C7    C     C_R   0.543118 0.527825 0.155998 0.043588
C8    C     C_R   0.456882 0.472175 0.844002 0.043592
C9    C     C_R   0.535611 0.525541 0.033236 -0.001941
C10   C     C_R   0.464390 0.474458 0.966764 -0.001941
C11   C     C_R   0.339809 0.500147 0.500456 0.558862
C12   C     C_R   0.502634 0.701536 0.523189 0.553884
C13   C     C_R   0.660191 0.499853 0.499543 0.558866
C14   C     C_3   0.972674 0.406144 0.515350 -0.003057
C15   C     C_3   0.027326 0.593854 0.484650 -0.003056
C16   C     C_3   0.023642 0.425108 0.412560 0.086515
C17   C     C_3   0.976358 0.574891 0.587440 0.086514
C18   C     C_1   0.250382 0.500513 0.501332 0.008875
C19   C     C_1   0.749618 0.499486 0.498668 0.008879
C20   C     C_3   0.032591 0.481551 0.603388 0.000630
C21   C     C_3   0.967409 0.518447 0.396611 0.000630
C22   C     C_3   0.083289 0.500234 0.500278 -0.005461
C23   C     C_R   0.487381 0.007837 0.340604 0.045920
C24   C     C_3   0.916711 0.499764 0.499722 -0.005461
C25   C     C_1   0.174976 0.500594 0.501155 -0.013923
C26   C     C_1   0.825024 0.499405 0.498845 -0.013923
C27   C     C_R   0.505452 0.816285 0.539451 -0.050834
C28   C     C_R   0.494555 0.183716 0.460549 -0.050835
C29   C     C_2   0.050003 0.341475 0.314397 0.553010
C30   C     C_2   0.949997 0.658523 0.685604 0.553009
C31   C     C_3   0.934720 0.300916 0.527261 -0.264412
C32   C     C_3   0.001917 0.220497 0.542896 -0.410756
C33   C     C_3   0.065280 0.699083 0.472738 -0.264413
C34   C     C_R   0.512630 0.992163 0.659397 0.045916
C35   C     C_3   0.998083 0.779502 0.457104 -0.410756
C36   C     C_3   0.923469 0.534157 0.280423 -0.265841
C37   C     C_3   0.985654 0.551597 0.191166 -0.420922
C38   C     C_3   0.076531 0.465841 0.719577 -0.265841
C39   C     C_3   0.014347 0.448402 0.808834 -0.420922
C40   C     C_2   0.529479 0.841271 0.759750 0.636074
C41   C     C_2   0.470546 0.158728 0.240248 0.636081
C42   C     C_2   0.483284 0.937998 0.222967 0.590198
C43   C     C_2   0.516730 0.062003 0.777035 0.590207
C44   C     C_3   0.323802 0.375536 0.955477 -0.309635
C45   C     C_R   0.483833 0.116812 0.349000 0.037169
C46   C     C_3   0.258564 0.333065 0.026141 -0.429519
C47   C     C_3   0.676200 0.624461 0.044522 -0.309641
C48   C     C_3   0.741438 0.666930 0.973858 -0.429520
C49   C     C_R   0.516181 0.883188 0.651000 0.037170
C50   C     C_R   0.505096 0.141064 0.561123 -0.130266
C51   C     C_R   0.494909 0.858936 0.438878 -0.130264
C52   C     C_R   0.503902 0.033552 0.555626 -0.016181
Cu1   Cu    Cu3+1 0.506200 0.507730 0.615930 0.986439
Cu2   Cu    Cu3+1 0.493800 0.492270 0.384070 0.986437
H1    H     H_    0.484468 0.806825 0.355034 0.177782
H2    H     H_    0.040368 0.245385 0.626329 0.151364
H3    H     H_    0.970653 0.144802 0.545076 0.151554
H4    H     H_    0.894270 0.312784 0.602798 0.146962
H5    H     H_    0.893769 0.270073 0.447116 0.180899
H6    H     H_    0.959630 0.754613 0.373672 0.151365
H7    H     H_    0.955967 0.791694 0.530717 0.189647
H8    H     H_    0.029346 0.855196 0.454923 0.151553
H9    H     H_    0.106231 0.729926 0.552883 0.180898
H10   H     H_    0.105729 0.687215 0.397201 0.146962
H11   H     H_    0.022826 0.624609 0.222929 0.155107
H12   H     H_    0.515536 0.193176 0.644966 0.177788
H13   H     H_    0.029383 0.485198 0.172673 0.180640
H14   H     H_    0.950134 0.558434 0.107948 0.141109
H15   H     H_    0.884092 0.463742 0.242739 0.175922
H16   H     H_    0.880562 0.601628 0.297312 0.141647
H17   H     H_    0.970618 0.514801 0.827328 0.180640
H18   H     H_    0.977173 0.375390 0.777070 0.155107
H19   H     H_    0.049867 0.441563 0.892052 0.141109
H20   H     H_    0.119438 0.398369 0.702687 0.141646
H21   H     H_    0.115908 0.536256 0.757260 0.175921
H22   H     H_    0.480285 0.811927 0.905269 0.343457
H23   H     H_    0.404762 0.431617 0.789839 0.128476
H24   H     H_    0.519764 0.188089 0.094750 0.343458
H25   H     H_    0.539462 0.826073 0.110171 0.334894
H26   H     H_    0.460556 0.173928 0.889836 0.334904
H27   H     H_    0.285672 0.269163 0.066448 0.207630
H28   H     H_    0.235974 0.396466 0.094749 0.164318
H29   H     H_    0.203327 0.300711 0.966798 0.153764
H30   H     H_    0.291258 0.433896 0.911224 0.146029
H31   H     H_    0.343072 0.309840 0.886934 0.175723
H32   H     H_    0.764028 0.603528 0.905251 0.164321
H33   H     H_    0.714330 0.730831 0.933550 0.207630
H34   H     H_    0.595238 0.568383 0.210161 0.128477
H35   H     H_    0.796675 0.699284 0.033201 0.153765
H36   H     H_    0.656931 0.690157 0.113065 0.175719
H37   H     H_    0.708743 0.566100 0.088775 0.146032
H38   H     H_    0.628664 0.604852 0.806954 0.176671
H39   H     H_    0.371337 0.395145 0.193046 0.176663
H40   H     H_    0.144992 0.268230 0.226305 0.346161
H41   H     H_    0.855008 0.731767 0.773696 0.346164
H42   H     H_    0.044033 0.208305 0.469284 0.189646
N1    N     N_R   0.515540 0.519350 0.790140 -0.247588
N2    N     N_R   0.484460 0.480650 0.209860 -0.247589
O1    O     O_R   0.504400 0.354460 0.582000 -0.512398
O2    O     O_R   0.135490 0.326650 0.295194 -0.707732
O3    O     O_2   0.003797 0.713251 0.748657 -0.522812
O4    O     O_R   0.864510 0.673348 0.704806 -0.707727
O5    O     O_2   0.598117 0.806046 0.784105 -0.521171
O6    O     O_R   0.463883 0.843767 0.834626 -0.644262
O7    O     O_2   0.401906 0.193936 0.215870 -0.521157
O8    O     O_R   0.536157 0.156253 0.165399 -0.644275
O9    O     O_2   0.422536 0.940722 0.153770 -0.467593
O10   O     O_R   0.549558 0.870011 0.191692 -0.699515
O11   O     O_2   0.577477 0.059271 0.846233 -0.467597
O12   O     O_R   0.495600 0.645540 0.418000 -0.512398
O13   O     O_R   0.450459 0.129995 0.808312 -0.699520
O14   O     O_R   0.493920 0.341410 0.386200 -0.469196
O15   O     O_R   0.506080 0.658590 0.613800 -0.469194
O16   O     O_R   0.384320 0.506520 0.597880 -0.509656
O17   O     O_R   0.615680 0.493480 0.402120 -0.509655
O18   O     O_R   0.373840 0.493460 0.402080 -0.500710
O19   O     O_R   0.626160 0.506540 0.597920 -0.500708
O20   O     O_2   0.996203 0.286748 0.251342 -0.522811

loop_
_geom_bond_atom_site_label_1
_geom_bond_atom_site_label_2
_ccdc_geom_bond_type
H22   O6    S    
C11   C18   S    
C16   C21   S    
C23   C45   A    
C7    N2    A    
C14   C31   S    
C1    O1    A    
C12   O12   A    
C21   C36   S    
Cu1   Cu2   S    
Cu1   O1    S    
C23   C42   S    
C41   O7    D    
C31   H4    S    
C36   C37   S    
C24   C26   S    
C1    O14   A    
C38   C39   S    
Cu1   O19   S    
C14   C24   S    
C40   C49   S    
C37   H14   S    
C17   C20   S    
Cu2   O12   S    
C15   C17   S    
C31   H5    S    
C19   C26   T    
C11   O16   A    
Cu1   O15   S    
C46   H28   S    
C28   C50   A    
C15   C22   S    
C7    H34   S    
C44   C46   S    
C22   C25   S    
Cu2   O18   S    
C1    C28   S    
C50   C52   A    
C39   H18   S    
C9    C10   A    
C51   H1    S    
H41   O4    S    
C39   H17   S    
C17   C30   S    
C18   C25   T    
C43   O13   S    
C32   H3    S    
C36   H16   S    
C38   H21   S    
C28   C45   A    
C3    C44   S    
C17   C24   S    
C41   O8    S    
C13   C19   S    
C12   C27   S    
C6    N1    A    
C14   C20   S    
C4    C6    A    
C3    C5    A    
C16   C29   S    
C37   H11   S    
C35   H6    S    
C8    N1    A    
C40   O6    S    
C46   H27   S    
C20   C38   S    
C5    H39   S    
C47   C48   S    
H40   O2    S    
C33   H9    S    
Cu2   O17   S    
C30   O4    S    
C48   H33   S    
Cu2   O14   S    
C35   H7    S    
C11   O18   A    
C50   H12   S    
C42   O9    D    
C13   O17   A    
C2    C52   A    
C32   H42   S    
C20   C22   S    
C48   H35   S    
C8    H23   S    
C47   H36   S    
C14   C16   S    
C44   H31   S    
Cu1   O16   S    
C12   O15   A    
C38   H20   S    
C7    C9    A    
C34   C49   A    
C16   C22   S    
C29   O2    S    
C47   H37   S    
C31   C32   S    
C34   C43   S    
C44   H30   S    
H26   O13   S    
C13   O19   A    
C29   O20   D    
C34   C52   A    
H24   O8    S    
Cu1   N1    S    
C3    C10   A    
C40   O5    D    
C27   C51   A    
C33   H10   S    
C6    H38   S    
C37   H13   S    
C30   O3    D    
C33   C35   S    
C15   C33   S    
H25   O10   S    
C35   H8    S    
C48   H32   S    
C39   H19   S    
C36   H15   S    
C2    C51   A    
C46   H29   S    
C15   C21   S    
C5    N2    A    
C8    C10   A    
C21   C24   S    
C2    C23   A    
C41   C45   S    
Cu2   N2    S    
C43   O11   D    
C4    C9    A    
C42   O10   S    
C32   H2    S    
C27   C49   A    
C4    C47   S    
