data_mof_unit_25100.cif
_audit_creation_date              2012-12-11T14:56:42-0500
_audit_creation_method            fapswitch 2.2
_symmetry_space_group_name_H-M    P1
_symmetry_Int_Tables_number       1
_space_group_crystal_system       triclinic
_cell_length_a                    10.541476
_cell_length_b                    10.68204
_cell_length_c                    17.04746
_cell_angle_alpha                 80.097494
_cell_angle_beta                  90.064034
_cell_angle_gamma                 119.706643
_cell_volume                      1634.53793271

loop_
_atom_site_label
_atom_site_type_symbol
_atom_type_description
_atom_site_fract_x
_atom_site_fract_y
_atom_site_fract_z
_atom_type_partial_charge
C1    C     C_R   0.216601 0.850928 0.127510 0.596286
C2    C     C_1   0.634163 0.309175 0.705081 -0.025714
C3    C     C_R   0.632978 0.715780 0.805029 -0.149258
C4    C     C_R   0.639602 0.283319 0.085032 0.575023
C5    C     C_R   0.620886 0.699205 0.726718 -0.194785
C6    C     C_R   0.669554 0.822903 0.665001 0.035572
C7    C     C_R   0.738292 0.964433 0.681612 0.345295
C8    C     C_R   0.749094 0.980956 0.760528 -0.115460
C9    C     C_R   0.690384 0.855820 0.822244 -0.031435
C10   C     C_R   0.069400 0.885583 0.794493 -0.123618
C11   C     C_R   0.031023 0.870050 0.717711 -0.135221
C12   C     C_R   0.790588 0.380547 0.272910 -0.106800
C13   C     C_R   0.051757 0.773444 0.680964 0.015096
C14   C     C_R   0.097370 0.681199 0.724725 -0.118831
C15   C     C_R   0.138850 0.698842 0.801308 -0.115678
C16   C     C_R   0.644129 0.855448 0.124090 0.551472
C17   C     C_R   0.132690 0.807143 0.834598 0.034341
C18   C     C_R   0.711540 0.771936 0.353583 0.537832
C19   C     C_R   0.686837 0.392653 0.395662 0.550684
C20   C     C_R   0.047974 0.789103 0.352606 0.524207
C21   C     C_R   0.677224 0.800942 0.585057 0.596915
C22   C     C_R   0.675208 0.375680 0.623335 0.568484
C23   C     C_R   0.795426 0.384968 0.192303 0.238276
C24   C     C_R   0.028389 0.773733 0.596769 0.550777
C25   C     C_R   0.214839 0.858072 0.902321 0.555694
C26   C     C_R   0.613094 0.220572 0.859180 0.553080
C27   C     C_R   0.647944 0.867175 0.899538 0.534070
C28   C     C_R   0.542609 0.337230 0.197058 -0.169371
C29   C     C_R   0.544893 0.345299 0.277420 -0.142437
C30   C     C_R   0.667214 0.361297 0.316103 -0.024210
C31   C     C_R   0.664330 0.349218 0.155049 0.001504
C32   C     C_1   0.686007 0.831211 0.201540 -0.006777
C33   C     C_1   0.704215 0.806668 0.270360 -0.024715
C34   C     C_1   0.150623 0.811340 0.207352 0.021548
C35   C     C_1   0.102865 0.800079 0.273731 -0.027723
C36   C     C_1   0.620159 0.265330 0.775543 -0.041513
Cr1   Cr    Cr6+3 0.402240 0.783890 0.019450 1.095112
Cr2   Cr    Cr6+3 0.382360 0.097900 0.991800 1.023745
Cr3   Cr    Cr6+3 0.715380 0.118170 0.988700 1.073617
Cr4   Cr    Cr6+3 0.936650 0.882420 0.465510 1.077104
Cr5   Cr    Cr6+3 0.605770 0.565620 0.493360 1.037706
Cr6   Cr    Cr6+3 0.921340 0.550490 0.496380 1.079012
F1    F     F_    0.792331 0.085045 0.621887 -0.616314
H1    H     H_    0.442632 0.312969 0.169209 0.158308
H2    H     H_    0.059857 0.967226 0.819828 0.142349
H3    H     H_    0.057021 0.302498 0.106040 0.350907
H4    H     H_    0.992063 0.938875 0.685490 0.150139
H5    H     H_    0.109903 0.602305 0.698255 0.150308
H6    H     H_    0.185325 0.635561 0.831756 0.143368
H7    H     H_    0.451270 0.336719 0.309366 0.162300
H8    H     H_    0.888439 0.398674 0.301415 0.196459
H9    H     H_    0.588215 0.618707 0.852281 0.155292
H10   H     H_    0.575449 0.589500 0.714383 0.150495
H11   H     H_    0.793056 0.090190 0.773212 0.154792
O1    O     O_R   0.521780 0.757110 0.108900 -0.499663
O2    O     O_R   0.805020 0.410040 0.421340 -0.506172
O3    O     O_R   0.049240 0.685450 0.403290 -0.473703
O4    O     O_R   0.275160 0.783810 0.101120 -0.417686
O5    O     O_R   0.077520 0.903010 0.551800 -0.488844
O6    O     O_R   0.802980 0.872780 0.546830 -0.473137
O7    O     O_R   0.578090 0.681300 0.569920 -0.519149
O8    O     O_R   0.608530 0.436370 0.586530 -0.508880
O9    O     O_R   0.798770 0.401880 0.597100 -0.465462
O10   O     O_R   0.043450 0.677890 0.566230 -0.490602
O11   O     O_3   0.821250 0.666180 0.485090 -0.339106
O12   O     O_R   0.513330 0.228330 0.898660 -0.498308
O13   O     O_R   0.237900 0.972600 0.090980 -0.528788
O14   O     O_R   0.511190 0.220540 0.061620 -0.517781
O15   O     O_R   0.736920 0.257720 0.063840 -0.413348
O16   O     O_R   0.710450 0.984050 0.081720 -0.470352
O17   O     O_R   0.524090 0.765520 0.933110 -0.515981
O18   O     O_R   0.277300 0.791600 0.938160 -0.483592
O19   O     O_R   0.240210 0.981010 0.915190 -0.531277
O20   O     O_2   0.994516 0.520455 0.062569 -0.292959
O21   O     O_2   0.089782 0.508325 0.193382 -0.309185
O22   O     O_3   0.963077 0.270595 0.137066 -0.490634
O23   O     O_R   0.739230 0.266130 0.888050 -0.501603
O24   O     O_R   0.712580 0.991850 0.918770 -0.530187
O25   O     O_3   0.499990 0.999980 0.999980 -0.293364
O26   O     O_R   0.083770 0.911170 0.376030 -0.490666
O27   O     O_R   0.808770 0.880340 0.383890 -0.481087
O28   O     O_R   0.584340 0.689460 0.394160 -0.481571
O29   O     O_R   0.614320 0.443940 0.423590 -0.514436
S1    S     S_3+6 0.966737 0.427391 0.144543 0.010212

loop_
_geom_bond_atom_site_label_1
_geom_bond_atom_site_label_2
_ccdc_geom_bond_type
C19   O2    A    
Cr4   O6    S    
C11   H4    S    
Cr5   O7    S    
C27   O24   A    
O22   S1    S    
H3    O22   S    
C7    C8    A    
Cr1   O25   S    
C12   C23   A    
Cr3   O23   S    
C5    H10   S    
C28   C29   A    
C5    C6    A    
O21   S1    D    
Cr2   O25   S    
C10   C17   A    
Cr5   O29   S    
C18   O27   A    
C34   C35   T    
Cr6   O2    S    
C22   O9    A    
C20   C35   S    
Cr2   O12   S    
C8    C9    A    
C2    C22   S    
Cr6   O11   S    
Cr4   O26   S    
C7    F1    S    
C21   O7    A    
Cr1   O4    S    
C24   O10   A    
Cr4   O5    S    
C13   C14   A    
Cr5   O8    S    
C19   O29   A    
Cr6   O3    S    
C4    O15   A    
C1    C34   S    
C29   H7    S    
C26   O23   A    
C23   S1    S    
C20   O26   A    
C26   O12   A    
Cr3   O24   S    
C16   O16   A    
C21   O6    A    
C8    H11   S    
C4    O14   A    
Cr5   O11   S    
C6    C21   S    
C28   H1    S    
C13   C24   S    
Cr3   O25   S    
C29   C30   A    
C3    C9    A    
C22   O8    A    
C10   H2    S    
Cr3   O15   S    
C25   O18   A    
C26   C36   S    
Cr2   O14   S    
Cr4   O11   S    
Cr1   O17   S    
Cr6   O10   S    
C12   H8    S    
C27   O17   A    
C9    C27   S    
C2    C36   T    
C15   C17   A    
C12   C30   A    
Cr4   O27   S    
C28   C31   A    
O20   S1    D    
C3    C5    A    
C14   H5    S    
C3    H9    S    
C6    C7    A    
C1    O13   A    
C16   C32   S    
C17   C25   S    
C32   C33   T    
C16   O1    A    
C1    O4    A    
C11   C13   A    
C24   O5    A    
Cr5   O28   S    
C18   O28   A    
Cr3   O16   S    
C25   O19   A    
C15   H6    S    
C18   C33   S    
C4    C31   S    
C10   C11   A    
Cr1   O1    S    
Cr2   O13   S    
Cr1   O18   S    
C14   C15   A    
C20   O3    A    
C19   C30   S    
Cr6   O9    S    
C23   C31   A    
Cr2   O19   S    
