data_mof_unit_67357.cif
_audit_creation_date              2013-03-05T16:08:12-0500
_audit_creation_method            fapswitch 2.2
_symmetry_space_group_name_H-M    P1
_symmetry_Int_Tables_number       1
_space_group_crystal_system       triclinic
_cell_length_a                    20.133664
_cell_length_b                    23.517453
_cell_length_c                    9.063921
_cell_angle_alpha                 90.22954
_cell_angle_beta                  105.417097
_cell_angle_gamma                 90.061101
_cell_volume                      4137.22330311

loop_
_atom_site_label
_atom_site_type_symbol
_atom_site_description
_atom_site_fract_x
_atom_site_fract_y
_atom_site_fract_z
_atom_type_partial_charge
P1    P     P_3+3 0.853370 0.434890 0.996520 0.549765
P2    P     P_3+3 0.853370 0.565110 0.496520 0.553403
P3    P     P_3+3 0.353370 0.934890 0.996520 0.549793
P4    P     P_3+3 0.353370 0.065110 0.496520 0.553410
O1    O     O_2   0.860260 0.414960 0.826400 -0.354723
O2    O     O_2   0.860260 0.585040 0.326400 -0.353928
O3    O     O_2   0.360260 0.914960 0.826400 -0.354711
O4    O     O_2   0.360260 0.085040 0.326400 -0.353868
O5    O     O_3   0.918600 0.470180 0.098890 -0.395782
O6    O     O_3   0.918600 0.529820 0.598890 -0.397115
O7    O     O_3   0.418600 0.970180 0.098890 -0.395776
O8    O     O_3   0.418600 0.029820 0.598890 -0.397130
O9    O     O_3   0.975750 0.362410 0.628650 -0.390312
O10   O     O_3   0.975750 0.637590 0.128650 -0.387364
O11   O     O_3   0.475750 0.862410 0.628650 -0.390346
O12   O     O_3   0.475750 0.137590 0.128650 -0.387369
O13   O     O_2   0.862893 0.319378 0.650655 -0.277983
O14   O     O_2   0.864399 0.678905 0.161184 -0.278166
O15   O     O_2   0.362882 0.819385 0.650639 -0.277999
O16   O     O_2   0.364409 0.178908 0.161195 -0.278069
O17   O     O_3   0.781345 0.479601 0.959009 -0.523855
O18   O     O_3   0.781660 0.519930 0.455597 -0.513092
O19   O     O_3   0.281341 0.979598 0.959016 -0.523851
O20   O     O_3   0.281663 0.019928 0.455588 -0.513095
O21   O     O_3   0.960465 0.247470 0.662527 -0.437543
O22   O     O_3   0.960289 0.751155 0.157203 -0.453801
O23   O     O_3   0.460452 0.747467 0.662571 -0.437657
O24   O     O_3   0.460296 0.251158 0.157140 -0.453843
H1    H     H_    0.057376 0.281155 0.750604 0.115102
H2    H     H_    0.054482 0.718483 0.269179 0.138253
H3    H     H_    0.557346 0.781173 0.750711 0.115333
H4    H     H_    0.554491 0.218493 0.269147 0.138257
C1    C     C_3   0.067075 0.189459 0.731862 0.335599
C2    C     C_3   0.060661 0.810826 0.242028 0.337786
C3    C     C_3   0.567089 0.689481 0.731978 0.335549
C4    C     C_3   0.560662 0.310837 0.241928 0.337693
H5    H     H_    0.070337 0.187487 0.853546 0.079889
H6    H     H_    0.024359 0.828831 0.301719 0.087645
H7    H     H_    0.570327 0.687486 0.853649 0.079906
H8    H     H_    0.524324 0.328878 0.301472 0.087757
P5    P     P_3+3 0.146350 0.434230 0.693140 0.759733
P6    P     P_3+3 0.146350 0.565770 0.193140 0.769363
P7    P     P_3+3 0.646350 0.934230 0.693140 0.759695
P8    P     P_3+3 0.646350 0.065770 0.193140 0.769467
P9    P     P_3+3 0.092158 0.314104 0.124747 0.674345
P10   P     P_3+3 0.085846 0.690794 0.627285 0.666453
P11   P     P_3+3 0.592181 0.814116 0.124696 0.674352
P12   P     P_3+3 0.585815 0.190813 0.627295 0.666425
O25   O     O_2   0.139400 0.414340 0.863230 -0.260069
O26   O     O_2   0.139400 0.585660 0.363230 -0.240756
O27   O     O_2   0.639400 0.914340 0.863230 -0.259958
O28   O     O_2   0.639400 0.085660 0.363230 -0.240822
O29   O     O_3   0.023740 0.362300 0.060930 -0.264100
O30   O     O_3   0.023740 0.637700 0.560930 -0.260558
O31   O     O_3   0.523740 0.862300 0.060930 -0.264056
O32   O     O_3   0.523740 0.137700 0.560930 -0.260549
O33   O     O_2   0.141982 0.328789 0.027492 -0.249036
O34   O     O_2   0.132553 0.678297 0.524538 -0.240327
O35   O     O_2   0.641968 0.828777 0.027334 -0.249010
O36   O     O_2   0.632548 0.178317 0.524607 -0.240325
O37   O     O_3   0.227532 0.472452 0.725932 -0.506782
O38   O     O_3   0.230488 0.531887 0.244666 -0.499959
O39   O     O_3   0.727520 0.972471 0.726076 -0.506797
O40   O     O_3   0.730491 0.031883 0.244544 -0.499821
O41   O     O_3   0.063730 0.247254 0.045456 -0.610405
O42   O     O_3   0.055471 0.757516 0.550635 -0.613367
O43   O     O_3   0.563749 0.747256 0.045520 -0.610453
O44   O     O_3   0.555422 0.257521 0.550561 -0.613301
C5    C     C_3   0.009060 0.223916 0.095470 0.878142
C6    C     C_3   0.999522 0.777060 0.601951 0.898445
C7    C     C_3   0.509062 0.723966 0.095541 0.878080
C8    C     C_3   0.499449 0.277053 0.601802 0.898382
C9    C     C_3   0.004729 0.159818 0.057113 -0.128718
C10   C     C_3   0.990302 0.841222 0.569170 -0.156256
C11   C     C_3   0.504665 0.659872 0.057186 -0.128494
C12   C     C_3   0.490165 0.341201 0.568856 -0.156038
H9    H     H_    0.974951 0.153318 0.936534 0.193278
H10   H     H_    0.959204 0.848895 0.450595 0.179393
H11   H     H_    0.474937 0.653385 0.936561 0.193196
H12   H     H_    0.459082 0.348818 0.450240 0.179416
H13   H     H_    0.057592 0.142846 0.070669 0.176960
H14   H     H_    0.041496 0.861549 0.582848 0.194204
H15   H     H_    0.557515 0.642844 0.070898 0.177001
H16   H     H_    0.541340 0.361563 0.582538 0.194240
C13   C     C_3   0.240464 0.473365 0.284349 0.787343
C14   C     C_3   0.234938 0.529792 0.777218 0.755099
C15   C     C_3   0.740479 0.973359 0.284272 0.786822
C16   C     C_3   0.734939 0.029817 0.777271 0.755379
C17   C     C_3   0.319364 0.452393 0.309366 0.533276
C18   C     C_3   0.310934 0.554396 0.788863 0.568296
C19   C     C_3   0.819359 0.952402 0.309122 0.533342
C20   C     C_3   0.810960 0.054376 0.788887 0.568138
Ba1   Ba    Ba6+2 0.999900 0.457470 0.844900 1.851645
Ba2   Ba    Ba6+2 0.999900 0.542530 0.344900 1.854373
Ba3   Ba    Ba6+2 0.499900 0.957470 0.844900 1.851605
Ba4   Ba    Ba6+2 0.499900 0.042530 0.344900 1.854362
C21   C     C_3   0.785581 0.525471 0.864128 0.940893
C22   C     C_3   0.788223 0.473273 0.364526 0.925092
C23   C     C_3   0.285564 0.025462 0.864105 0.940877
C24   C     C_3   0.288237 0.973268 0.364539 0.925045
H17   H     H_    0.832704 0.525724 0.822174 -0.063389
H18   H     H_    0.833230 0.475567 0.315413 -0.051905
H19   H     H_    0.332686 0.025718 0.822148 -0.063377
H20   H     H_    0.333237 0.975570 0.315402 -0.051875
C25   C     C_3   0.781727 0.579187 0.954099 -0.821569
C26   C     C_3   0.792210 0.420676 0.462008 -0.803716
C27   C     C_3   0.281699 0.079186 0.954040 -0.821608
C28   C     C_3   0.292254 0.920677 0.462056 -0.803672
H21   H     H_    0.740531 0.575369 0.014020 0.320401
H22   H     H_    0.755955 0.424182 0.534489 0.329131
H23   H     H_    0.240511 0.075366 0.013982 0.320406
H24   H     H_    0.256008 0.924179 0.534567 0.329121
H25   H     H_    0.769485 0.616552 0.878197 0.233804
H26   H     H_    0.777737 0.382078 0.390411 0.228088
H27   H     H_    0.269440 0.116542 0.878110 0.233839
H28   H     H_    0.277785 0.882074 0.390480 0.228080
H29   H     H_    0.831874 0.585048 0.039155 0.225747
H30   H     H_    0.845348 0.417277 0.536364 0.217985
H31   H     H_    0.331846 0.085064 0.039081 0.225705
H32   H     H_    0.345402 0.917293 0.536387 0.217999
O45   O     O_3   0.081330 0.529680 0.090830 -0.263732
O46   O     O_3   0.081330 0.470320 0.590830 -0.258684
O47   O     O_3   0.581330 0.029680 0.090830 -0.263744
O48   O     O_3   0.581330 0.970320 0.590830 -0.258702
P13   P     P_3+3 0.916605 0.689782 0.065997 0.603889
P14   P     P_3+3 0.917732 0.307745 0.562837 0.602645
P15   P     P_3+3 0.416607 0.189778 0.065985 0.603925
P16   P     P_3+3 0.417730 0.807741 0.562853 0.602567
C29   C     C_3   0.031538 0.246962 0.670822 0.185815
C30   C     C_3   0.032424 0.750874 0.181335 0.171201
C31   C     C_3   0.531530 0.746974 0.670920 0.185915
C32   C     C_3   0.532432 0.250877 0.181282 0.171106
H33   H     H_    0.041441 0.256333 0.560921 0.135060
H34   H     H_    0.048178 0.739649 0.077659 0.122092
H35   H     H_    0.541449 0.756348 0.561032 0.135116
H36   H     H_    0.548188 0.239645 0.077609 0.121940
C33   C     C_R   0.138863 0.688330 0.838097 0.234240
C34   C     C_R   0.141479 0.313237 0.338104 0.231536
C35   C     C_R   0.638805 0.188364 0.838130 0.234166
C36   C     C_R   0.641547 0.813274 0.338018 0.231366
C37   C     C_R   0.192092 0.729040 0.902035 -0.163827
C38   C     C_R   0.194348 0.272157 0.402592 -0.153333
C39   C     C_R   0.692030 0.229076 0.902067 -0.163962
C40   C     C_R   0.694406 0.772186 0.402521 -0.153407
C41   C     C_R   0.785102 0.321861 0.036603 -0.128723
C42   C     C_R   0.785434 0.678760 0.539647 -0.107855
C43   C     C_R   0.285135 0.821841 0.036600 -0.128717
C44   C     C_R   0.285409 0.178745 0.539670 -0.107893
C45   C     C_R   0.740579 0.323564 0.887422 0.433721
C46   C     C_R   0.742485 0.676772 0.389548 0.436029
C47   C     C_R   0.240616 0.823540 0.887413 0.433605
C48   C     C_R   0.242461 0.176760 0.389570 0.436226
C49   C     C_R   0.208890 0.774127 0.816860 0.461186
C50   C     C_R   0.211176 0.225858 0.318281 0.445696
C51   C     C_R   0.708841 0.274154 0.816880 0.461181
C52   C     C_R   0.711213 0.725871 0.318234 0.445863
C53   C     C_R   0.836402 0.365483 0.101113 0.288338
C54   C     C_R   0.835447 0.634454 0.603721 0.290202
C55   C     C_R   0.336417 0.865474 0.101119 0.288392
C56   C     C_R   0.335435 0.134447 0.603727 0.290233
C57   C     C_R   0.875703 0.357466 0.255650 -0.383173
C58   C     C_R   0.873077 0.641844 0.759374 -0.384252
C59   C     C_R   0.375720 0.857457 0.255659 -0.383107
C60   C     C_R   0.373069 0.141838 0.759375 -0.384376
C61   C     C_R   0.158981 0.639552 0.093378 0.156935
C62   C     C_R   0.158175 0.360538 0.594836 0.160689
C63   C     C_R   0.658919 0.139585 0.093423 0.157083
C64   C     C_R   0.658263 0.860590 0.594722 0.160579
C65   C     C_R   0.215547 0.680652 0.150677 -0.160124
C66   C     C_R   0.215262 0.320872 0.653760 -0.165112
C67   C     C_R   0.715478 0.180693 0.150718 -0.160161
C68   C     C_R   0.715338 0.820918 0.653665 -0.164930
C69   C     C_R   0.228058 0.727134 0.058375 0.006851
C70   C     C_R   0.228386 0.273798 0.561506 0.008162
C71   C     C_R   0.727993 0.227172 0.058407 0.006796
C72   C     C_R   0.728449 0.773834 0.561432 0.008102
C73   C     C_R   0.263394 0.677490 0.294751 0.502414
C74   C     C_R   0.262590 0.326244 0.799356 0.520255
C75   C     C_R   0.763333 0.177528 0.294776 0.502282
C76   C     C_R   0.762634 0.826269 0.799303 0.520459
C77   C     C_R   0.820764 0.212311 0.341305 0.276249
C78   C     C_R   0.813115 0.785552 0.857152 0.285261
C79   C     C_R   0.320823 0.712278 0.341298 0.276269
C80   C     C_R   0.313090 0.285538 0.857171 0.285321
C81   C     C_R   0.824443 0.264217 0.270318 -0.121160
C82   C     C_R   0.819907 0.734647 0.780232 -0.119088
C83   C     C_R   0.324490 0.764191 0.270312 -0.121143
C84   C     C_R   0.319884 0.234632 0.780254 -0.118971
C85   C     C_R   0.779416 0.271398 0.122032 0.060545
C86   C     C_R   0.778912 0.729283 0.626684 0.089786
C87   C     C_R   0.279466 0.771369 0.122017 0.060595
C88   C     C_R   0.278875 0.229261 0.626722 0.089741
C89   C     C_R   0.870530 0.308455 0.344463 0.278016
C90   C     C_R   0.866101 0.689810 0.851110 0.268912
C91   C     C_R   0.370552 0.808441 0.344470 0.277998
C92   C     C_R   0.366091 0.189801 0.851114 0.268967
C93   C     C_R   0.120089 0.647975 0.938177 0.163340
C94   C     C_R   0.120232 0.351860 0.439191 0.172946
C95   C     C_R   0.620032 0.148005 0.938210 0.163362
C96   C     C_R   0.620325 0.851919 0.439084 0.172758
H37   H     H_    0.908584 0.391748 0.311104 0.171196
H38   H     H_    0.906890 0.608035 0.813234 0.171609
H39   H     H_    0.408604 0.891737 0.311115 0.171179
H40   H     H_    0.406884 0.108030 0.813230 0.171634
N1    N     N_R   0.368048 0.471398 0.453053 0.255927
O49   O     O_R   0.426985 0.494100 0.451213 -0.188275
O50   O     O_R   0.363181 0.451523 0.582522 -0.235855
N2    N     N_R   0.363700 0.519818 0.891462 0.263818
O51   O     O_R   0.363234 0.465518 0.865708 -0.201615
O52   O     O_R   0.423266 0.542626 0.954599 -0.202108
N3    N     N_R   0.868103 0.971635 0.452485 0.255722
O53   O     O_R   0.926595 0.995066 0.450048 -0.187287
O54   O     O_R   0.863754 0.951607 0.582197 -0.235552
N4    N     N_R   0.863726 0.019725 0.891239 0.263927
O55   O     O_R   0.863215 0.965438 0.865242 -0.201581
O56   O     O_R   0.923314 0.042490 0.954449 -0.201871
Cl1   Cl    Cl    0.321746 0.375874 0.317008 -0.441384
Cl2   Cl    Cl    0.318242 0.628522 0.844893 -0.430249
Cl3   Cl    Cl    0.821808 0.875883 0.317356 -0.441713
Cl4   Cl    Cl    0.818395 0.128484 0.845122 -0.429952
N5    N     N_R   0.347790 0.471448 0.186347 0.246084
O57   O     O_R   0.393283 0.438930 0.149930 -0.180904
O58   O     O_R   0.356466 0.525921 0.178168 -0.251681
N6    N     N_R   0.329011 0.555057 0.646244 0.268419
O59   O     O_R   0.283187 0.547321 0.520303 -0.365402
O60   O     O_R   0.391895 0.566076 0.643680 -0.176756
N7    N     N_R   0.847633 0.971294 0.185737 0.246051
O61   O     O_R   0.893230 0.938793 0.149663 -0.180922
O62   O     O_R   0.856105 0.025764 0.176867 -0.252587
N8    N     N_R   0.829000 0.055085 0.646244 0.268414
O63   O     O_R   0.783186 0.047331 0.520302 -0.365186
O64   O     O_R   0.891853 0.066226 0.643699 -0.176745
Cl5   Cl    Cl    0.711494 0.523510 0.704443 -0.383075
Cl6   Cl    Cl    0.711585 0.469013 0.211588 -0.391617
Cl7   Cl    Cl    0.211477 0.023485 0.704424 -0.383164
Cl8   Cl    Cl    0.211593 0.968983 0.211623 -0.391598
N9    N     N_R   0.031585 0.137351 0.663394 0.298935
O65   O     O_R   0.020471 0.098327 0.755203 -0.263797
O66   O     O_R   0.034442 0.121084 0.528179 -0.136710
N10   N     N_R   0.065584 0.850901 0.121997 0.288785
O67   O     O_R   0.024162 0.894267 0.095432 -0.163461
O68   O     O_R   0.123966 0.855852 0.086789 -0.272456
N11   N     N_R   0.531636 0.637372 0.663427 0.298906
O69   O     O_R   0.520431 0.598357 0.755163 -0.263656
O70   O     O_R   0.534598 0.621100 0.528286 -0.136808
N12   N     N_R   0.565660 0.350870 0.121867 0.288764
O71   O     O_R   0.524217 0.394220 0.095013 -0.163357
O72   O     O_R   0.624080 0.355794 0.086813 -0.272850
N13   N     N_R   0.137959 0.189381 0.721857 0.210516
O73   O     O_R   0.161370 0.149842 0.648561 -0.313076
O74   O     O_R   0.181048 0.223603 0.810388 -0.441734
N14   N     N_R   0.127535 0.807539 0.352875 0.252478
O75   O     O_R   0.175515 0.777193 0.320201 -0.406781
O76   O     O_R   0.145484 0.848974 0.450789 -0.295553
N15   N     N_R   0.637985 0.689444 0.722051 0.210650
O77   O     O_R   0.661493 0.649863 0.649050 -0.313238
O78   O     O_R   0.680988 0.723801 0.810310 -0.441814
N16   N     N_R   0.627498 0.307556 0.352919 0.252461
O79   O     O_R   0.675518 0.277223 0.320372 -0.406707
O80   O     O_R   0.645389 0.348980 0.450886 -0.295545
N17   N     N_R   0.972048 0.127381 0.155397 0.324791
O81   O     O_R   0.907440 0.135365 0.148032 -0.243107
O82   O     O_R   0.004449 0.084784 0.233574 -0.132626
N18   N     N_R   0.956127 0.868216 0.673852 0.311536
O83   O     O_R   0.896670 0.849327 0.683209 -0.293644
O84   O     O_R   0.987139 0.908338 0.766001 -0.138006
N19   N     N_R   0.471857 0.627499 0.155352 0.324746
O85   O     O_R   0.407238 0.635561 0.147759 -0.243710
O86   O     O_R   0.504160 0.584893 0.233678 -0.132556
N20   N     N_R   0.455929 0.368207 0.673410 0.311483
O87   O     O_R   0.396519 0.349243 0.682871 -0.293959
O88   O     O_R   0.486880 0.408373 0.765477 -0.137880
Cl9   Cl    Cl    0.712009 0.385471 0.784480 -0.428839
Cl10  Cl    Cl    0.711944 0.613626 0.290135 -0.452284
Cl11  Cl    Cl    0.212020 0.885449 0.784498 -0.429017
Cl12  Cl    Cl    0.211947 0.113617 0.290108 -0.452270
Cl13  Cl    Cl    0.231247 0.760008 0.648480 -0.397662
Cl14  Cl    Cl    0.212166 0.228797 0.127230 -0.456363
Cl15  Cl    Cl    0.731247 0.260010 0.648570 -0.397654
Cl16  Cl    Cl    0.712179 0.728787 0.127166 -0.456377
N21   N     N_R   0.879599 0.189534 0.447552 0.273222
O89   O     O_R   0.877280 0.170878 0.580767 -0.209708
O90   O     O_R   0.936198 0.185528 0.407492 -0.302398
N22   N     N_R   0.860231 0.799944 0.996880 0.271513
O91   O     O_R   0.840847 0.792948 0.121262 -0.211927
O92   O     O_R   0.908063 0.836913 0.995344 -0.228382
N23   N     N_R   0.379662 0.689509 0.447587 0.273204
O93   O     O_R   0.377323 0.670796 0.580750 -0.209784
O94   O     O_R   0.436277 0.685506 0.407537 -0.302477
N24   N     N_R   0.360214 0.299935 0.996881 0.271520
O95   O     O_R   0.340850 0.292900 0.121270 -0.211980
O96   O     O_R   0.408018 0.336932 0.995355 -0.228290
Cl17  Cl    Cl    0.244329 0.651760 0.450288 -0.395704
Cl18  Cl    Cl    0.269069 0.384099 0.924064 -0.411087
Cl19  Cl    Cl    0.744308 0.151767 0.450324 -0.395702
Cl20  Cl    Cl    0.769064 0.884094 0.924077 -0.411328
Cl21  Cl    Cl    0.045304 0.607267 0.865404 -0.543637
Cl22  Cl    Cl    0.044955 0.391625 0.366384 -0.548305
Cl23  Cl    Cl    0.545275 0.107270 0.865403 -0.543736
Cl24  Cl    Cl    0.545018 0.891659 0.366321 -0.548165
Cl25  Cl    Cl    0.929393 0.256205 0.993321 -0.522961
Cl26  Cl    Cl    0.922716 0.741278 0.497721 -0.549943
Cl27  Cl    Cl    0.429421 0.756295 0.993401 -0.523153
Cl28  Cl    Cl    0.422679 0.241207 0.497641 -0.549962
N25   N     N_R   0.021209 0.231440 0.259257 0.207271
O97   O     O_R   0.069783 0.202836 0.352627 -0.419359
O98   O     O_R   0.994566 0.275096 0.309173 -0.462847
N26   N     N_R   0.013021 0.768958 0.766090 0.198174
O99   O     O_R   0.986882 0.725841 0.818467 -0.472336
O100  O     O_R   0.064403 0.795843 0.855461 -0.431245
N27   N     N_R   0.521237 0.731490 0.259338 0.207269
O101  O     O_R   0.569816 0.702875 0.352675 -0.419328
O102  O     O_R   0.494616 0.775152 0.309283 -0.462863
N28   N     N_R   0.512950 0.269006 0.765959 0.198231
O103  O     O_R   0.486844 0.225895 0.818441 -0.472373
O104  O     O_R   0.564310 0.295936 0.855267 -0.430932
N29   N     N_R   0.216658 0.461197 0.415220 0.209987
O105  O     O_R   0.244331 0.419043 0.500311 -0.409833
O106  O     O_R   0.154405 0.476222 0.410191 -0.330540
N30   N     N_R   0.220879 0.533395 0.922790 0.183901
O107  O     O_R   0.159247 0.518977 0.923809 -0.335355
O108  O     O_R   0.251767 0.572484 0.017020 -0.411768
N31   N     N_R   0.716756 0.961221 0.415277 0.209783
O109  O     O_R   0.744666 0.919270 0.500959 -0.409157
O110  O     O_R   0.654505 0.976211 0.410366 -0.330737
N32   N     N_R   0.720855 0.033458 0.922811 0.184061
O111  O     O_R   0.659251 0.018950 0.923826 -0.335255
O112  O     O_R   0.751572 0.072684 0.016770 -0.411738
Cl29  Cl    Cl    0.186844 0.432844 0.148262 -0.477050
Cl30  Cl    Cl    0.172072 0.571967 0.659886 -0.455906
Cl31  Cl    Cl    0.686815 0.932806 0.148336 -0.477462
Cl32  Cl    Cl    0.672094 0.071989 0.659892 -0.455784

loop_
_geom_bond_atom_site_label_1
_geom_bond_atom_site_label_2
_geom_bond_distance
_ccdc_geom_bond_type
Ba3   O48   3.177164 S    
C23   H19   1.112036 S    
N15   O78   1.291311 A    
C15   C19   1.621178 S    
C28   H32   1.105705 S    
P5    O37   1.817772 S    
C15   N31   1.422526 S    
C93   Cl21  1.755711 S    
P7    C64   1.988672 S    
P8    O40   1.818868 S    
C59   H39   1.076850 S    
C41   C85   1.440586 A    
C66   C74   1.412535 A    
C96   Cl24  1.756013 S    
N22   O91   1.298328 A    
Ba1   O45   2.925964 S    
O14   P13   1.548526 D    
C78   N22   1.405528 S    
C24   H20   1.112092 S    
C44   C56   1.460502 A    
C60   H40   1.077730 S    
C42   C46   1.405258 A    
C17   N1    1.473889 S    
N26   O100  1.294257 A    
O2    Ba2   2.947642 S    
C6    C10   1.540925 S    
N23   O94   1.288376 A    
N32   O111  1.288433 A    
C39   C71   1.410450 A    
P4    O8    1.623305 S    
C2    N10   1.465280 S    
O22   C30   1.410090 S    
C21   C25   1.514098 S    
C26   H30   1.105650 S    
C30   H34   1.099998 S    
C9    H13   1.113095 S    
C76   C78   1.395563 A    
C61   C65   1.476555 A    
O12   Ba4   2.933732 S    
P7    O39   1.817699 S    
N31   O109  1.291338 A    
C48   Cl12  1.757308 S    
C11   N19   1.457545 S    
N28   O103  1.290782 A    
C22   H18   1.112086 S    
C69   C87   1.470264 A    
C82   C86   1.421882 A    
O21   P14   1.779220 S    
C62   C94   1.428223 A    
O17   C21   1.398843 S    
O23   P16   1.779219 S    
N7    O61   1.301160 A    
C50   Cl14  1.738717 S    
O44   C8    1.405134 S    
P9    O33   1.540944 D    
N8    O64   1.298262 A    
C29   H33   1.089895 S    
Ba2   O46   2.938334 S    
C33   C93   1.433486 A    
N20   O88   1.301121 A    
C24   Cl8   1.781528 S    
C66   C70   1.450965 A    
C37   C49   1.406877 A    
O20   C24   1.397792 S    
C46   Cl10  1.757305 S    
P10   O42   1.761753 S    
P8    O47   1.624779 S    
C22   C26   1.512759 S    
C45   C51   1.393785 A    
C16   Cl32  1.735487 S    
P14   C89   1.954822 S    
O42   C6    1.405149 S    
C47   C49   1.393793 A    
C36   C96   1.431756 A    
P3    O7    1.618064 S    
C13   N29   1.422468 S    
P1    Ba1   3.610034 S    
C9    H9    1.107864 S    
P3    Ba3   3.610034 S    
O25   Ba1   2.950295 S    
C11   H11   1.107897 S    
C79   C83   1.393284 A    
O27   Ba3   2.950295 S    
N14   O75   1.296957 A    
C3    N11   1.467508 S    
O18   C22   1.397798 S    
C14   Cl30  1.735577 S    
C11   H15   1.113130 S    
N13   O73   1.300246 A    
C5    Cl25  1.795892 S    
C58   H38   1.077741 S    
C25   H25   1.105145 S    
C4    C32   1.561915 S    
C17   N5    1.454109 S    
N17   O81   1.298544 A    
N4    O56   1.298040 A    
H3    C31   1.111146 S    
C35   C39   1.436689 A    
H1    C29   1.111144 S    
C43   C87   1.440620 A    
N18   O83   1.300274 A    
N25   O98   1.293444 A    
P11   C36   1.924941 S    
O8    Ba3   2.939762 S    
C4    N16   1.452537 S    
P6    O38   1.818781 S    
O40   C15   1.424926 S    
P6    C61   2.006731 S    
P8    O28   1.650523 D    
C94   Cl22  1.755926 S    
P9    O29   1.761167 S    
P4    Ba4   3.609342 S    
N9    O65   1.299806 A    
P10   O34   1.517244 D    
C3    N15   1.453918 S    
C67   C75   1.403865 A    
C65   C73   1.403892 A    
C9    N17   1.457567 S    
N1    O50   1.292516 A    
C24   C28   1.512760 S    
P2    Ba2   3.609342 S    
O16   P15   1.548528 D    
C19   N3    1.473950 S    
C16   N32   1.423364 S    
O26   Ba2   2.947777 S    
P11   O35   1.540938 D    
N31   O110  1.291708 A    
N30   O108  1.292807 A    
P5    O46   1.630108 S    
C40   C52   1.419898 A    
C43   C47   1.410529 A    
P2    O18   1.749254 S    
N5    O57   1.301131 A    
P8    Ba4   3.611644 S    
C39   C51   1.406889 A    
C22   Cl6   1.781524 S    
C32   H36   1.100033 S    
C27   H27   1.105151 S    
P5    C62   1.988801 S    
C40   C72   1.421453 A    
C57   C89   1.427998 A    
P3    C55   1.965607 S    
C38   C50   1.419918 A    
C5    C9    1.542802 S    
P6    O26   1.650523 D    
P10   C33   1.926247 S    
C18   N2    1.461968 S    
C15   Cl31  1.695766 S    
N7    O62   1.297744 A    
C62   C66   1.468467 A    
N27   O102  1.293465 A    
P9    O41   1.756725 S    
C95   Cl23  1.755663 S    
Ba3   O47   2.925964 S    
C25   H21   1.109392 S    
N12   O71   1.300235 A    
Ba4   O47   3.175739 S    
C27   H23   1.109370 S    
C82   C90   1.442014 A    
C44   C48   1.405256 A    
N19   O85   1.298597 A    
C60   C92   1.427733 A    
C81   C85   1.418142 A    
C42   C54   1.460506 A    
N21   O90   1.288122 A    
C84   C88   1.421855 A    
N22   O92   1.299592 A    
N16   O79   1.296950 A    
C3    C31   1.563458 S    
C8    N28   1.452897 S    
P9    C34   1.924991 S    
O12   P15   1.701753 S    
C18   Cl2   1.808630 S    
C65   C69   1.441223 A    
N32   O112  1.292764 A    
C47   Cl11  1.745977 S    
O5    Ba2   2.927375 S    
C68   C72   1.450934 A    
P6    O45   1.624779 S    
C70   C88   1.472259 A    
C10   N18   1.455999 S    
O7    Ba4   2.927375 S    
C44   C88   1.448881 A    
C73   Cl17  1.671826 S    
C80   N24   1.405508 S    
O39   C16   1.419210 S    
C75   Cl19  1.671814 S    
P16   C91   1.954791 S    
N6    O59   1.274901 A    
C12   H16   1.112122 S    
P1    O1    1.650642 D    
C56   C60   1.422683 A    
C7    Cl27  1.795892 S    
C52   Cl16  1.738710 S    
P3    O3    1.650642 D    
C8    Cl28  1.790538 S    
O11   Ba3   2.920946 S    
P4    O20   1.749244 S    
O13   P14   1.547127 D    
N28   O104  1.294271 A    
N11   O69   1.299822 A    
O15   P16   1.547129 D    
O23   C31   1.412901 S    
C49   Cl13  1.733089 S    
N24   O95   1.298294 A    
C78   C82   1.407956 A    
P5    O25   1.653937 D    
N29   O106  1.291729 A    
O22   P13   1.772392 S    
P5    Ba1   3.610930 S    
N2    O51   1.296815 A    
C12   N20   1.456023 S    
P7    Ba3   3.610930 S    
C20   N4    1.461942 S    
C8    C12   1.540935 S    
C68   C76   1.412520 A    
C79   N23   1.420181 S    
C43   C55   1.460461 A    
C76   Cl20  1.747720 S    
C6    Cl26  1.790545 S    
C25   H29   1.103499 S    
C10   H14   1.112130 S    
C27   H31   1.103490 S    
C12   H12   1.106196 S    
P1    O5    1.618064 S    
Ba1   O46   3.177164 S    
C34   C38   1.443597 A    
C13   C17   1.621483 S    
O6    Ba1   2.939762 S    
H2    C30   1.108613 S    
C1    H5    1.088502 S    
C28   H24   1.107262 S    
O9    Ba1   2.920946 S    
P8    C63   2.006901 S    
C45   Cl9   1.745964 S    
C3    H7    1.088510 S    
C18   N6    1.433195 S    
C61   C93   1.431151 A    
C72   C86   1.472262 A    
N3    O53   1.305198 A    
C59   C91   1.428046 A    
P2    C54   1.977073 S    
P10   O30   1.753617 S    
P12   O44   1.761769 S    
C1    N13   1.453898 S    
O9    P14   1.730090 S    
O11   P16   1.730155 S    
C14   C18   1.612076 S    
C53   C57   1.427168 A    
N14   O76   1.299842 A    
C1    C29   1.563466 S    
O32   Ba4   2.921763 S    
C33   C37   1.436715 A    
C64   C96   1.428117 A    
C19   N7    1.453986 S    
P6    Ba2   3.611644 S    
C36   C40   1.443622 A    
C63   C67   1.476572 A    
C23   C27   1.514110 S    
C28   H28   1.106423 S    
C73   C79   1.385688 A    
P15   C92   1.942762 S    
N19   O86   1.301005 A    
P7    O27   1.653937 D    
P13   C90   1.942823 S    
O41   C5    1.408643 S    
O43   C7    1.408547 S    
N8    O63   1.274868 A    
C1    N9    1.467533 S    
O37   C14   1.419330 S    
Ba2   O45   3.175739 S    
C64   C68   1.468400 A    
N18   O84   1.301120 A    
N25   O97   1.300423 A    
C10   H10   1.106210 S    
N20   O87   1.300273 A    
C5    N25   1.449053 S    
O10   Ba2   2.933732 S    
C41   C45   1.410526 A    
O19   C23   1.398860 S    
N27   O101  1.300455 A    
P1    O17   1.751600 S    
Ba1   Ba2   4.961137 S    
C4    N12   1.465258 S    
P3    O19   1.751620 S    
Ba3   Ba4   4.961137 S    
O4    Ba4   2.947642 S    
C13   Cl29  1.695707 S    
P4    O4    1.654065 D    
O21   C29   1.412888 S    
C38   C70   1.421443 A    
N1    O49   1.304857 A    
O10   P13   1.701825 S    
C26   H26   1.106411 S    
C57   H37   1.076829 S    
C31   H35   1.089921 S    
C35   C95   1.433532 A    
C14   N30   1.423386 S    
C41   C53   1.460449 A    
C20   Cl4   1.808701 S    
N10   O67   1.300237 A    
C16   C20   1.612218 S    
N11   O70   1.298281 A    
C74   Cl18  1.747810 S    
C51   Cl15  1.733094 S    
C83   C87   1.418174 A    
C46   C52   1.392360 A    
C37   C69   1.410468 A    
P2    O2    1.654065 D    
P11   O43   1.756625 S    
P12   O36   1.517234 D    
O24   C32   1.410095 S    
O38   C13   1.424790 S    
N12   O72   1.302509 A    
N13   O74   1.291292 A    
Ba4   O48   2.938334 S    
O29   Ba1   2.934538 S    
C4    H8    1.102409 S    
O31   Ba3   2.934538 S    
N17   O82   1.300970 A    
C77   C81   1.393206 A    
N4    O55   1.296845 A    
C2    C30   1.561894 S    
N21   O89   1.298763 A    
C67   C71   1.441244 A    
C80   C84   1.407962 A    
N16   O80   1.299830 A    
C77   N21   1.420034 S    
C23   Cl7   1.781412 S    
C20   N8    1.433053 S    
C21   Cl5   1.781406 S    
C58   C90   1.427755 A    
N10   O68   1.302505 A    
C6    N26   1.452911 S    
C34   C94   1.431816 A    
N3    O54   1.292621 A    
C48   C50   1.392344 A    
N9    O66   1.298257 A    
N23   O93   1.298901 A    
C55   C59   1.427199 A    
N15   O77   1.300310 A    
P2    O6    1.623305 S    
C7    N27   1.449090 S    
H4    C32   1.108619 S    
N26   O99   1.290784 A    
P11   O31   1.761254 S    
C26   H22   1.107211 S    
P12   O32   1.753565 S    
C63   C95   1.431196 A    
P12   C35   1.926251 S    
C83   C91   1.433783 A    
C2    H6    1.102398 S    
C81   C89   1.433791 A    
N6    O60   1.298339 A    
C71   C85   1.470277 A    
O1    Ba1   2.945151 S    
O24   P15   1.772397 S    
O3    Ba3   2.945151 S    
N30   O107  1.288430 A    
P1    C53   1.965500 S    
N5    O58   1.297789 A    
C7    C11   1.542683 S    
P4    C56   1.977040 S    
O28   Ba4   2.947777 S    
N24   O96   1.299615 A    
C19   Cl3   1.801576 S    
N29   O105  1.291082 A    
C74   C80   1.395576 A    
O30   Ba2   2.921763 S    
C54   C58   1.422702 A    
C17   Cl1   1.801337 S    
C84   C92   1.442010 A    
N2    O52   1.297974 A    
C42   C86   1.448873 A    
C2    N14   1.452531 S    
P7    O48   1.630108 S    
C21   H17   1.112039 S    
C75   C77   1.385637 A    
