data_mof_unit_36118.cif
_audit_creation_date              2012-12-10T18:22:22-0500
_audit_creation_method            fapswitch 2.2
_symmetry_space_group_name_H-M    P1
_symmetry_Int_Tables_number       1
_space_group_crystal_system       triclinic
_cell_length_a                    14.911054
_cell_length_b                    14.123614
_cell_length_c                    15.721813
_cell_angle_alpha                 89.76608
_cell_angle_beta                  88.250153
_cell_angle_gamma                 90.007367
_cell_volume                      3309.41022897

loop_
_atom_site_label
_atom_site_type_symbol
_atom_type_description
_atom_site_fract_x
_atom_site_fract_y
_atom_site_fract_z
_atom_type_partial_charge
C1    C     C_R   0.326998 0.499874 0.497260 0.926983
C2    C     C_R   0.904965 0.431537 0.550037 0.072501
C3    C     C_R   0.952973 0.481158 0.484131 0.023745
C4    C     C_R   0.500535 0.500173 0.338396 0.957254
C5    C     C_R   0.906946 0.534230 0.422061 0.046964
C6    C     C_R   0.950584 0.375546 0.610298 0.113682
C7    C     C_R   0.045236 0.377133 0.608714 -0.036579
C8    C     C_R   0.092284 0.431872 0.546283 0.023418
C9    C     C_R   0.046509 0.481063 0.482142 0.024231
C10   C     C_R   0.094462 0.532093 0.417065 0.022288
C11   C     C_R   0.047843 0.566617 0.345716 -0.059192
C12   C     C_3   0.585240 0.475591 0.949424 -0.413775
C13   C     C_R   0.953869 0.574997 0.351557 -0.074227
C14   C     C_R   0.185162 0.438001 0.546386 -0.281772
C15   C     C_R   0.231347 0.497322 0.489936 -0.103410
C16   C     C_R   0.672958 0.499833 0.500055 0.865517
C17   C     C_R   0.187378 0.547104 0.425812 -0.030913
C18   C     C_R   0.561521 0.798886 0.449953 0.054658
C19   C     C_R   0.556669 0.201965 0.445086 0.048395
C20   C     C_R   0.438529 0.798754 0.549786 0.048478
C21   C     C_R   0.440791 0.200619 0.552243 0.054791
C22   C     C_R   0.426868 0.898881 0.539872 -0.050600
C23   C     C_3   0.585692 0.481246 0.047297 -0.497299
C24   C     C_R   0.427558 0.100742 0.541521 -0.016081
C25   C     C_R   0.493672 0.949712 0.493989 0.018513
C26   C     C_R   0.493218 0.050582 0.493781 0.021984
C27   C     C_R   0.561034 0.899705 0.447746 0.024041
C28   C     C_R   0.558394 0.101392 0.445105 0.013446
C29   C     C_R   0.347934 0.948698 0.568226 0.156823
C30   C     C_R   0.348181 0.050663 0.569689 0.139899
C31   C     C_R   0.622750 0.050423 0.396680 -0.182555
C32   C     C_R   0.624044 0.951813 0.397939 -0.158809
C33   C     C_R   0.499264 0.499833 0.661679 0.885804
C34   C     C_1   0.493175 0.499974 0.826012 -0.074248
C35   C     C_3   0.461467 0.601831 0.048673 0.005780
C36   C     C_3   0.428421 0.419000 0.050874 0.004526
C37   C     C_3   0.420887 0.428684 0.952862 -0.436925
C38   C     C_3   0.464678 0.600986 0.949625 -0.361285
C39   C     C_1   0.496042 0.499578 0.750628 -0.139545
C40   C     C_3   0.489178 0.501320 0.083310 0.263618
C41   C     C_3   0.491007 0.501094 0.917531 0.268521
C42   C     C_2   0.095397 0.326783 0.675523 0.364396
C43   C     C_2   0.235749 0.620266 0.373624 0.450753
C44   C     C_2   0.094106 0.578479 0.260833 0.365572
C45   C     C_1   0.493655 0.500950 0.174685 -0.108127
C46   C     C_2   0.904225 0.621150 0.281859 0.386576
C47   C     C_2   0.631789 0.745954 0.402280 0.432899
C48   C     C_2   0.617156 0.255463 0.386758 0.452471
C49   C     C_2   0.398125 0.750054 0.624613 0.466676
C50   C     C_2   0.401784 0.249359 0.627215 0.432847
C51   C     C_3   0.259156 0.894703 0.578631 -0.429769
C52   C     C_3   0.223745 0.889342 0.671253 -0.774430
C53   C     C_3   0.260143 0.105316 0.586378 -0.380361
C54   C     C_3   0.229381 0.156276 0.506275 -0.846081
C55   C     C_3   0.376268 0.649114 0.090808 -0.384878
C56   C     C_1   0.497467 0.500645 0.249773 -0.120261
C57   C     C_3   0.287259 0.637603 0.045483 -0.831190
C58   C     C_3   0.335877 0.406567 0.098540 -0.394281
C59   C     C_3   0.336091 0.325531 0.163460 -0.802597
C60   C     C_3   0.899059 0.318772 0.678939 -0.377067
C61   C     C_3   0.875147 0.380291 0.756025 -0.868482
C62   C     C_R   0.814239 0.543882 0.431468 -0.200687
C63   C     C_R   0.768436 0.497763 0.497075 -0.048415
C64   C     C_R   0.811873 0.440859 0.554565 -0.252585
H1    H     H_    0.400355 0.622129 0.921713 0.195251
H2    H     H_    0.632763 0.537961 0.066544 0.185569
H3    H     H_    0.612008 0.413567 0.073284 0.200009
H4    H     H_    0.636610 0.524929 0.921645 0.185934
H5    H     H_    0.603835 0.402691 0.928753 0.191164
H6    H     H_    0.775961 0.584773 0.386971 0.154324
H7    H     H_    0.771015 0.406640 0.603551 0.159178
H8    H     H_    0.134368 0.367003 0.720009 0.064330
H9    H     H_    0.203915 0.688051 0.362202 0.033485
H10   H     H_    0.075740 0.634823 0.217838 0.121303
H11   H     H_    0.845680 0.587139 0.256274 0.055572
H12   H     H_    0.352746 0.451970 0.935057 0.168671
H13   H     H_    0.614450 0.696302 0.353378 0.067834
H14   H     H_    0.676769 0.288967 0.410192 0.068212
H15   H     H_    0.359893 0.685723 0.618203 0.073885
H16   H     H_    0.366755 0.315696 0.621044 0.094213
H17   H     H_    0.249237 0.948505 0.710079 0.272340
H18   H     H_    0.149290 0.892247 0.672856 0.238303
H19   H     H_    0.243204 0.821602 0.701267 0.270094
H20   H     H_    0.208390 0.928349 0.538034 0.205617
H21   H     H_    0.263177 0.822207 0.551997 0.176514
H22   H     H_    0.276542 0.213617 0.486760 0.257626
H23   H     H_    0.223104 0.399641 0.593002 0.133485
H24   H     H_    0.224022 0.105122 0.453194 0.256743
H25   H     H_    0.162436 0.188654 0.518702 0.287403
H26   H     H_    0.264661 0.155392 0.639580 0.248753
H27   H     H_    0.203680 0.060299 0.608374 0.241477
H28   H     H_    0.282506 0.690340 0.993232 0.250525
H29   H     H_    0.279234 0.565992 0.018839 0.253783
H30   H     H_    0.230535 0.650981 0.091284 0.267111
H31   H     H_    0.366806 0.624878 0.157664 0.244139
H32   H     H_    0.388770 0.726578 0.095267 0.206669
H33   H     H_    0.348951 0.257056 0.130803 0.250350
H34   H     H_    0.673571 0.086260 0.357899 0.162323
H35   H     H_    0.388244 0.337053 0.211200 0.278998
H36   H     H_    0.269682 0.321545 0.197247 0.276255
H37   H     H_    0.316044 0.471506 0.133285 0.274372
H38   H     H_    0.282259 0.390848 0.053113 0.217515
H39   H     H_    0.937260 0.406217 0.785477 0.259854
H40   H     H_    0.833992 0.442087 0.737556 0.260063
H41   H     H_    0.836294 0.337815 0.803953 0.256939
H42   H     H_    0.838048 0.285763 0.653423 0.195099
H43   H     H_    0.937439 0.256875 0.701018 0.257540
H44   H     H_    0.674907 0.917260 0.358676 0.184394
H45   H     H_    0.465989 0.351705 0.060719 0.181474
H46   H     H_    0.516826 0.650124 0.066993 0.122230
H47   H     H_    0.432288 0.358184 0.922922 0.185827
H48   H     H_    0.515146 0.653589 0.925599 0.164668
N1    N     N_R   0.500070 0.750030 0.500040 -0.171714
N2    N     N_R   0.500070 0.249970 0.500040 -0.176544
O1    O     O_R   0.367860 0.580280 0.500020 -0.637640
O2    O     O_2   0.308652 0.603855 0.339499 -0.565188
O3    O     O_2   0.151616 0.522200 0.236852 -0.569320
O4    O     O_2   0.926757 0.698897 0.254551 -0.566538
O5    O     O_2   0.710738 0.757883 0.417712 -0.574040
O6    O     O_2   0.602529 0.258579 0.310832 -0.585439
O7    O     O_2   0.409144 0.781632 0.695707 -0.576351
O8    O     O_2   0.409169 0.214996 0.698063 -0.585353
O9    O     O_R   0.367860 0.419720 0.500020 -0.649524
O10   O     O_R   0.500020 0.580310 0.377140 -0.627463
O11   O     O_R   0.500020 0.419690 0.377140 -0.591890
O12   O     O_R   0.632160 0.580270 0.499980 -0.599980
O13   O     O_R   0.632160 0.419730 0.499980 -0.654812
O14   O     O_R   0.500010 0.580240 0.622850 -0.618562
O15   O     O_R   0.500010 0.419760 0.622850 -0.629926
O16   O     O_2   0.096684 0.240441 0.678592 -0.592055
Zn1   Zn    Zn3+2 0.500020 0.607200 0.499990 0.964547
Zn2   Zn    Zn3+2 0.500020 0.392800 0.499990 0.948751

loop_
_geom_bond_atom_site_label_1
_geom_bond_atom_site_label_2
_ccdc_geom_bond_type
C43   H9    S    
C12   H5    S    
C57   H28   S    
O9    Zn2   S    
C59   H35   S    
C50   O8    D    
C18   C47   S    
C51   H21   S    
C1    O9    A    
C7    C8    A    
C48   O6    D    
O1    Zn1   S    
C53   C54   S    
C12   H4    S    
C12   C23   S    
C4    O10   A    
C62   C63   A    
C4    O11   A    
O12   Zn1   S    
C23   H2    S    
C36   C37   S    
C22   C29   A    
C24   C26   A    
C14   H23   S    
C36   C58   S    
C13   C46   S    
C64   H7    S    
C10   C17   A    
C23   H3    S    
C23   C40   S    
C46   O4    D    
C7    C42   S    
C48   H14   S    
O13   Zn2   S    
C21   C50   S    
C45   C56   T    
C8    C9    A    
C22   C25   A    
C53   H27   S    
C1    C15   S    
C16   C63   S    
C29   C30   A    
C61   H41   S    
C9    C10   A    
C5    C13   A    
O15   Zn2   S    
C47   O5    D    
C57   H29   S    
C4    C56   S    
C59   H36   S    
C62   H6    S    
C2    C6    A    
C34   C41   S    
C18   N1    A    
C46   H11   S    
C2    C64   A    
C40   C45   S    
C30   C53   S    
C35   C55   S    
C34   C39   T    
C6    C60   S    
C36   C40   S    
C61   H40   S    
C54   H25   S    
C55   H31   S    
C54   H22   S    
C19   C48   S    
C21   N2    A    
C19   N2    A    
C25   C26   A    
C33   O14   A    
C49   H15   S    
O10   Zn1   S    
C60   C61   S    
C52   H19   S    
C52   H18   S    
C17   C43   S    
C20   C49   S    
C3    C9    A    
C43   O2    D    
C31   C32   A    
C38   H1    S    
C49   O7    D    
C35   C38   S    
C42   H8    S    
C11   C44   S    
C42   O16   D    
C58   H37   S    
C33   C39   S    
C44   H10   S    
C19   C28   A    
C35   H46   S    
C60   H43   S    
C38   C41   S    
C58   H38   S    
C37   H12   S    
C20   C22   A    
C57   H30   S    
C55   C57   S    
C59   H33   S    
C47   H13   S    
C38   H48   S    
C31   H34   S    
O14   Zn1   S    
C36   H45   S    
C60   H42   S    
C12   C41   S    
C29   C51   S    
C33   O15   A    
C15   C17   A    
C8    C14   A    
N1    Zn1   S    
C61   H39   S    
C27   C32   A    
N2    Zn2   S    
C28   C31   A    
C18   C27   A    
C55   H32   S    
C3    C5    A    
C50   H16   S    
C6    C7    A    
C25   C27   A    
C26   C28   A    
C35   C40   S    
C58   C59   S    
C51   C52   S    
C54   H24   S    
C11   C13   A    
O11   Zn2   S    
C20   N1    A    
C44   O3    D    
C5    C62   A    
C2    C3    A    
C37   C41   S    
C52   H17   S    
C16   O13   A    
C24   C30   A    
C37   H47   S    
C10   C11   A    
C63   C64   A    
C32   H44   S    
C21   C24   A    
C53   H26   S    
C14   C15   A    
C1    O1    A    
C16   O12   A    
C51   H20   S    
