data_mof_unit_31831.cif
_audit_creation_date              2012-12-10T18:58:12-0500
_audit_creation_method            fapswitch 2.2
_symmetry_space_group_name_H-M    P1
_symmetry_Int_Tables_number       1
_space_group_crystal_system       triclinic
_cell_length_a                    10.823802
_cell_length_b                    9.978359
_cell_length_c                    15.791257
_cell_angle_alpha                 89.977462
_cell_angle_beta                  93.903178
_cell_angle_gamma                 90.498123
_cell_volume                      1701.49520673

loop_
_atom_site_label
_atom_site_type_symbol
_atom_type_description
_atom_site_fract_x
_atom_site_fract_y
_atom_site_fract_z
_atom_type_partial_charge
C1    C     C_R   0.872139 0.501643 0.487376 -0.149767
C2    C     C_R   0.449110 0.375671 0.953234 0.146924
C3    C     C_R   0.454631 0.499500 0.910207 0.042460
C4    C     C_R   0.451921 0.499543 0.085605 0.042203
C5    C     C_1   0.472548 0.499667 0.822044 -0.010131
C6    C     C_1   0.469643 0.499771 0.175437 -0.008492
C7    C     C_1   0.484841 0.499921 0.250602 -0.193723
C8    C     C_1   0.487223 0.499818 0.748214 -0.190019
C9    C     C_R   0.577192 0.072368 0.556718 0.218966
C10   C     C_R   0.422810 0.927626 0.443269 0.219841
C11   C     C_R   0.423353 0.071143 0.442943 0.220673
C12   C     C_R   0.127995 0.498333 0.513078 -0.149258
C13   C     C_R   0.576613 0.928858 0.557066 0.219760
C14   C     C_R   0.061458 0.376086 0.504939 -0.067505
C15   C     C_R   0.938690 0.623890 0.495667 -0.067812
C16   C     C_R   0.935242 0.378616 0.484552 -0.067103
C17   C     C_R   0.064913 0.621332 0.516037 -0.066808
C18   C     C_3   0.666250 0.144035 0.619766 -0.806438
C19   C     C_3   0.333784 0.855952 0.380185 -0.806872
C20   C     C_3   0.339500 0.141884 0.376882 -0.804778
C21   C     C_3   0.660296 0.858102 0.623206 -0.804552
C22   C     C_3   0.443044 0.755925 0.089348 -0.874807
C23   C     C_R   0.261024 0.499393 0.506352 0.869392
C24   C     C_3   0.447697 0.242793 0.905765 -0.871376
C25   C     C_3   0.446859 0.756038 0.905509 -0.871740
C26   C     C_3   0.443949 0.242968 0.089600 -0.875110
C27   C     C_1   0.118314 0.247093 0.524152 0.215247
C28   C     C_1   0.881902 0.752934 0.476529 0.215358
C29   C     C_1   0.874066 0.255263 0.454682 0.216358
C30   C     C_1   0.126182 0.744626 0.545933 0.216362
C31   C     C_R   0.739025 0.500604 0.493769 0.868837
C32   C     C_R   0.498506 0.500007 0.339456 0.891965
C33   C     C_R   0.499915 0.499979 0.660507 0.887571
C34   C     C_R   0.448699 0.623236 0.953111 0.147239
C35   C     C_R   0.447519 0.375717 0.042182 0.149563
C36   C     C_R   0.447092 0.623227 0.042060 0.149164
H1    H     H_    0.665336 0.252397 0.615546 0.285672
H2    H     H_    0.666617 0.750700 0.614081 0.285066
H3    H     H_    0.757165 0.894290 0.621763 0.217423
H4    H     H_    0.627304 0.875722 0.687273 0.215368
H5    H     H_    0.438379 0.745288 0.158866 0.243169
H6    H     H_    0.527013 0.816448 0.078461 0.243196
H7    H     H_    0.359489 0.812573 0.066562 0.238457
H8    H     H_    0.446991 0.253070 0.835918 0.246522
H9    H     H_    0.530869 0.183970 0.926610 0.239329
H10   H     H_    0.363240 0.184545 0.918707 0.241067
H11   H     H_    0.446227 0.745692 0.835673 0.246201
H12   H     H_    0.645004 0.117706 0.685548 0.213887
H13   H     H_    0.362200 0.812374 0.918374 0.241245
H14   H     H_    0.529820 0.816769 0.926313 0.239275
H15   H     H_    0.439300 0.253552 0.159110 0.242503
H16   H     H_    0.360576 0.184405 0.066896 0.238563
H17   H     H_    0.528111 0.184347 0.078747 0.243251
H18   H     H_    0.762915 0.115985 0.609193 0.219041
H19   H     H_    0.334652 0.747588 0.384424 0.285729
H20   H     H_    0.237112 0.884028 0.390712 0.219242
H21   H     H_    0.355085 0.882233 0.314402 0.213060
H22   H     H_    0.333390 0.249332 0.385876 0.285140
H23   H     H_    0.372137 0.124023 0.312741 0.214240
H24   H     H_    0.242615 0.105854 0.378588 0.217707
N1    N     N_R   0.500000 0.857200 0.500000 -0.115064
N2    N     N_R   0.500000 0.142800 0.500000 -0.115088
N3    N     N_1   0.162765 0.144373 0.540264 -0.185169
N4    N     N_1   0.837525 0.855706 0.460466 -0.184562
N5    N     N_1   0.825628 0.157425 0.430395 -0.180210
N6    N     N_1   0.174707 0.842409 0.570234 -0.181189
O1    O     O_R   0.316770 0.614620 0.499990 -0.622250
O2    O     O_R   0.683230 0.385380 0.500010 -0.621919
O3    O     O_R   0.683230 0.614620 0.500010 -0.623754
O4    O     O_R   0.316770 0.385380 0.499990 -0.624103
O5    O     O_R   0.499980 0.614630 0.378020 -0.619799
O6    O     O_R   0.500020 0.385370 0.621980 -0.620108
O7    O     O_R   0.500020 0.614630 0.621980 -0.618501
O8    O     O_R   0.499980 0.385370 0.378020 -0.618193
Zn1   Zn    Zn3+2 0.500000 0.653120 0.500000 0.951981
Zn2   Zn    Zn3+2 0.500000 0.346880 0.500000 0.951983

loop_
_geom_bond_atom_site_label_1
_geom_bond_atom_site_label_2
_ccdc_geom_bond_type
C2    C35   A    
C19   H20   S    
C5    C8    T    
C4    C36   A    
C25   H11   S    
C6    C7    T    
C1    C15   A    
C26   H16   S    
C14   C27   S    
O2    Zn2   S    
C13   N1    A    
C22   C36   S    
C25   C34   S    
C22   H7    S    
C21   H3    S    
C1    C31   S    
C10   C19   S    
O6    Zn2   S    
C11   N2    A    
C24   H10   S    
C2    C3    A    
C4    C35   A    
C13   C21   S    
C1    C16   A    
C22   H6    S    
C26   H15   S    
N1    Zn1   S    
C12   C17   A    
O5    Zn1   S    
C17   C30   S    
O7    Zn1   S    
C12   C23   S    
N2    Zn2   S    
C15   C28   S    
C30   N6    T    
C21   H4    S    
O8    Zn2   S    
C29   N5    T    
C24   H9    S    
C28   N4    T    
C33   O7    A    
C18   H1    S    
C12   C14   A    
O3    Zn1   S    
C32   O5    A    
C34   C36   A    
C8    C33   S    
C2    C24   S    
C31   O2    A    
C24   H8    S    
C14   C16   A    
C11   C20   S    
C22   H5    S    
C20   H24   S    
C10   C11   A    
C18   H18   S    
O4    Zn2   S    
C20   H22   S    
C9    N2    A    
C10   N1    A    
C26   H17   S    
C9    C18   S    
C31   O3    A    
O1    Zn1   S    
C3    C34   A    
C4    C6    S    
C23   O1    A    
C26   C35   S    
C15   C17   A    
C19   H19   S    
C25   H14   S    
C27   N3    T    
C32   O8    A    
C9    C13   A    
C7    C32   S    
C33   O6    A    
C3    C5    S    
C16   C29   S    
C19   H21   S    
C21   H2    S    
C18   H12   S    
C20   H23   S    
C25   H13   S    
C23   O4    A    
