data_mof_unit_56157.cif
_audit_creation_date              2012-10-26T18:34:23-0400
_audit_creation_method            fapswitch 2.2
_symmetry_space_group_name_H-M    P1
_symmetry_Int_Tables_number       1
_space_group_crystal_system       triclinic
_cell_length_a                    10.938687
_cell_length_b                    9.618952
_cell_length_c                    9.069186
_cell_angle_alpha                 89.999558
_cell_angle_beta                  93.570007
_cell_angle_gamma                 89.995218
_cell_volume                      952.396249278

loop_
_atom_site_label
_atom_site_type_symbol
_atom_type_description
_atom_site_fract_x
_atom_site_fract_y
_atom_site_fract_z
_atom_type_partial_charge
C1    C     C_R   0.262812 0.500448 0.508833 0.575733
C2    C     C_R   0.063654 0.630305 0.510440 0.209995
C3    C     C_R   0.871308 0.502502 0.483475 -0.069302
C4    C     C_R   0.128681 0.502534 0.516430 -0.069298
C5    C     C_R   0.420449 0.073875 0.405278 0.147148
C6    C     C_R   0.571462 0.925539 0.602734 0.159624
C7    C     C_R   0.579549 0.073856 0.594731 0.147105
C8    C     C_R   0.428545 0.925560 0.397255 0.159585
C9    C     C_2   0.320908 0.145627 0.314679 0.359059
C10   C     C_2   0.636796 0.851758 0.727441 0.369441
C11   C     C_2   0.679061 0.145587 0.685389 0.358901
C12   C     C_R   0.737183 0.500436 0.491135 0.575747
C13   C     C_2   0.363213 0.851807 0.272528 0.369423
C14   C     C_R   0.499572 0.500012 0.220882 0.548095
C15   C     C_R   0.500427 0.500011 0.779118 0.548137
C16   C     C_1   0.499845 0.500043 0.065606 0.015409
C17   C     C_1   0.500154 0.500042 0.934394 0.015442
C18   C     C_R   0.062848 0.376300 0.516551 0.217934
C19   C     C_R   0.936298 0.630283 0.489189 0.210016
C20   C     C_R   0.937175 0.376273 0.483566 0.217899
Cl1   Cl    Cl    0.130545 0.216828 0.576517 -0.351480
Cl2   Cl    Cl    0.864017 0.794375 0.457095 -0.379936
Cl3   Cl    Cl    0.869528 0.216719 0.423840 -0.351413
Cl4   Cl    Cl    0.135870 0.794470 0.542151 -0.379929
Cu1   Cu    Cu3+1 0.500000 0.640660 0.500000 1.044756
Cu2   Cu    Cu3+1 0.500000 0.359340 0.500000 1.021249
H1    H     H_    0.330501 0.248731 0.272570 0.145790
H2    H     H_    0.693253 0.762201 0.709704 0.162751
H3    H     H_    0.669499 0.248738 0.727378 0.145913
H4    H     H_    0.306976 0.762055 0.290210 0.162838
N1    N     N_R   0.500000 0.852070 0.500000 -0.298693
N2    N     N_R   0.500000 0.147930 0.500000 -0.301880
O1    O     O_R   0.319640 0.618740 0.499990 -0.491376
O2    O     O_2   0.627111 0.891389 0.854138 -0.446185
O3    O     O_2   0.777876 0.089008 0.712652 -0.390391
O4    O     O_2   0.372645 0.891658 0.145861 -0.446201
O5    O     O_R   0.680360 0.381260 0.500010 -0.484576
O6    O     O_R   0.680360 0.618740 0.500010 -0.491389
O7    O     O_R   0.319640 0.381260 0.499990 -0.484549
O8    O     O_R   0.500000 0.618760 0.288390 -0.501020
O9    O     O_R   0.500000 0.381240 0.711610 -0.529714
O10   O     O_R   0.500000 0.618760 0.711610 -0.500849
O11   O     O_R   0.500000 0.381240 0.288390 -0.529702
O12   O     O_2   0.222045 0.089115 0.287596 -0.390107

loop_
_geom_bond_atom_site_label_1
_geom_bond_atom_site_label_2
_ccdc_geom_bond_type
Cu1   O10   S    
C6    C10   S    
C5    C8    A    
C2    C4    A    
Cu2   O5    S    
Cu2   N2    S    
C6    C7    A    
C7    N2    A    
Cu1   O6    S    
C18   Cl1   S    
C20   Cl3   S    
C5    N2    A    
C4    C18   A    
C9    H1    S    
C1    C4    S    
C11   O3    D    
C6    N1    A    
C2    C19   A    
C1    O1    A    
C3    C20   A    
C10   O2    D    
C3    C19   A    
C15   O9    A    
C5    C9    S    
C8    C13   S    
Cu2   O9    S    
Cu2   O11   S    
C7    C11   S    
C18   C20   A    
Cu1   O8    S    
C2    Cl4   S    
C14   C16   S    
Cu2   O7    S    
C1    O7    A    
C14   O8    A    
C12   O6    A    
C13   H4    S    
C19   Cl2   S    
C11   H3    S    
C13   O4    D    
C10   H2    S    
C12   O5    A    
C15   C17   S    
C16   C17   T    
C9    O12   D    
C3    C12   S    
Cu1   Cu2   S    
C8    N1    A    
Cu1   N1    S    
C15   O10   A    
Cu1   O1    S    
C14   O11   A    
