data_mof_unit_7715.cif
_audit_creation_date              2012-10-26T19:05:05-0400
_audit_creation_method            fapswitch 2.2
_symmetry_space_group_name_H-M    P1
_symmetry_Int_Tables_number       1
_space_group_crystal_system       triclinic
_cell_length_a                    15.877354
_cell_length_b                    10.784163
_cell_length_c                    9.608613
_cell_angle_alpha                 91.400281
_cell_angle_beta                  89.75224
_cell_angle_gamma                 92.069339
_cell_volume                      1643.65123395

loop_
_atom_site_label
_atom_site_type_symbol
_atom_type_description
_atom_site_fract_x
_atom_site_fract_y
_atom_site_fract_z
_atom_type_partial_charge
C1    C     C_R   0.499850 0.262773 0.498135 0.538984
C2    C     C_R   0.275875 0.074375 0.635528 -0.124802
C3    C     C_R   0.278875 0.950992 0.671358 -0.109001
C4    C     C_R   0.340359 0.499883 0.500302 0.534801
C5    C     C_R   0.351271 0.883442 0.645257 -0.011845
C6    C     C_R   0.420404 0.937573 0.568796 0.013515
C7    C     C_R   0.419638 0.067399 0.547543 0.019565
C8    C     C_R   0.491964 0.128969 0.493862 0.010171
C9    C     C_R   0.559055 0.063088 0.440904 -0.132258
C10   C     C_R   0.556586 0.935225 0.445151 -0.140150
C11   C     C_R   0.489373 0.871445 0.509667 0.004505
C12   C     C_3   0.948432 0.391525 0.586820 0.675119
C13   C     C_R   0.612045 0.664223 0.146941 -0.070661
C14   C     C_R   0.665770 0.745468 0.076353 -0.133438
C15   C     C_R   0.664833 0.746443 0.933052 -0.123452
C16   C     C_R   0.492789 0.736847 0.502602 0.532409
C17   C     C_R   0.610360 0.665882 0.859422 -0.064544
C18   C     C_R   0.554377 0.581392 0.926895 0.165116
C19   C     C_R   0.554766 0.580937 0.076381 0.163611
C20   C     C_R   0.448065 0.422838 0.072106 0.017617
C21   C     C_R   0.448161 0.422746 0.924291 0.028660
C22   C     C_R   0.659658 0.500430 0.499730 0.533323
C23   C     C_3   0.917271 0.501181 0.500184 0.046605
C24   C     C_3   0.046271 0.392429 0.586999 -0.215309
C25   C     C_3   0.049223 0.486041 0.349256 0.296476
C26   C     C_3   0.951310 0.486129 0.348927 0.222292
C27   C     C_1   0.749362 0.500982 0.499386 0.050378
C28   C     C_3   0.082975 0.501215 0.500410 -0.107115
C29   C     C_1   0.356877 0.774784 0.728019 0.219936
C30   C     C_3   0.954330 0.625697 0.563164 0.243578
C31   C     C_3   0.051963 0.624473 0.565414 -0.181499
C32   C     C_1   0.824946 0.501268 0.499629 0.122994
C33   C     C_1   0.175173 0.500859 0.500989 -0.011071
C34   C     C_1   0.250715 0.500397 0.500912 0.007945
C35   C     C_R   0.346515 0.133615 0.579098 -0.106114
Cu1   Cu    Cu3+1 0.499990 0.499990 0.640660 0.972020
Cu2   Cu    Cu3+1 0.500010 0.500010 0.359340 0.960308
F1    F     F_    0.917450 0.279498 0.530160 -0.621635
F2    F     F_    0.919134 0.401101 0.722731 -0.506437
F3    F     F_    0.082376 0.580388 0.267510 -0.545616
F4    F     F_    0.923515 0.580608 0.267029 -0.564923
F5    F     F_    0.923795 0.646365 0.696879 -0.565984
H1    H     H_    0.069965 0.401257 0.695807 0.177718
H2    H     H_    0.618630 0.671221 0.256593 0.177915
H3    H     H_    0.708575 0.808115 0.133640 0.151448
H4    H     H_    0.706873 0.809866 0.878168 0.162232
H5    H     H_    0.615215 0.673979 0.749943 0.182605
H6    H     H_    0.405601 0.359381 0.867745 0.122215
H7    H     H_    0.069937 0.396453 0.303040 0.118871
H8    H     H_    0.926488 0.396891 0.301876 0.158382
H9    H     H_    0.075008 0.635825 0.674405 0.187169
H10   H     H_    0.078473 0.704729 0.506799 0.168305
H11   H     H_    0.934637 0.704098 0.499026 0.187896
H12   H     H_    0.613704 0.111016 0.396751 0.143339
H13   H     H_    0.342739 0.231273 0.557733 0.116789
H14   H     H_    0.220021 0.126072 0.658127 0.130965
H15   H     H_    0.225722 0.909820 0.727096 0.137538
H16   H     H_    0.608818 0.885493 0.400635 0.117014
H17   H     H_    0.405476 0.359523 0.125766 0.124248
H18   H     H_    0.068488 0.302741 0.543305 0.130003
N1    N     N_R   0.500800 0.501210 0.147910 -0.242269
N2    N     N_R   0.500820 0.501290 0.852040 -0.232850
N3    N     N_1   0.359503 0.690820 0.800323 -0.240958
O1    O     O_R   0.499990 0.319640 0.618810 -0.496226
O2    O     O_R   0.500000 0.319660 0.381240 -0.501386
O3    O     O_R   0.379430 0.499990 0.618840 -0.489515
O4    O     O_R   0.379440 0.500020 0.381260 -0.486381
O5    O     O_R   0.500000 0.680340 0.618760 -0.518743
O6    O     O_R   0.500010 0.680360 0.381190 -0.516067
O7    O     O_R   0.620560 0.499980 0.618740 -0.499716
O8    O     O_R   0.620570 0.500010 0.381160 -0.514616

loop_
_geom_bond_atom_site_label_1
_geom_bond_atom_site_label_2
_ccdc_geom_bond_type
C2    C35   A    
C4    O4    A    
Cu2   N1    S    
Cu1   O5    S    
C6    C7    A    
C16   O5    A    
Cu2   O6    S    
C1    C8    S    
C24   C28   S    
C9    C10   A    
C12   C24   S    
C1    O2    A    
C31   H10   S    
C24   H18   S    
C21   H6    S    
C23   C32   S    
C12   F2    S    
C26   H8    S    
C2    C3    A    
C27   C32   T    
C7    C8    A    
C25   F3    S    
C2    H14   S    
C13   C14   A    
C13   H2    S    
C20   H17   S    
C4    O3    A    
C12   C23   S    
C21   N2    A    
C30   C31   S    
C19   N1    A    
Cu1   N2    S    
Cu2   O4    S    
C29   N3    T    
C10   H16   S    
Cu1   O7    S    
C28   C33   S    
C33   C34   T    
C14   H3    S    
C5    C29   S    
C22   C27   S    
Cu2   O8    S    
C4    C34   S    
C12   F1    S    
C5    C6    A    
C30   H11   S    
Cu1   O3    S    
C10   C11   A    
C13   C19   A    
C35   H13   S    
C23   C30   S    
C3    H15   S    
C22   O8    A    
C6    C11   A    
C20   C21   A    
C17   C18   A    
C18   C19   A    
C11   C16   S    
C23   C26   S    
C20   N1    A    
C15   C17   A    
C24   H1    S    
C14   C15   A    
Cu1   Cu2   S    
C18   N2    A    
C9    H12   S    
C15   H4    S    
C3    C5    A    
C25   C26   S    
Cu1   O1    S    
C7    C35   A    
C1    O1    A    
C22   O7    A    
C28   C31   S    
C30   F5    S    
C16   O6    A    
C17   H5    S    
C26   F4    S    
C31   H9    S    
C8    C9    A    
C25   C28   S    
C25   H7    S    
Cu2   O2    S    
