data_mof_unit_68512.cif
_audit_creation_date              2012-12-11T17:48:47-0500
_audit_creation_method            fapswitch 2.2
_symmetry_space_group_name_H-M    P1
_symmetry_Int_Tables_number       1
_space_group_crystal_system       triclinic
_cell_length_a                    8.282989
_cell_length_b                    12.678147
_cell_length_c                    14.901552
_cell_angle_alpha                 96.640046
_cell_angle_beta                  97.741653
_cell_angle_gamma                 98.332571
_cell_volume                      1519.5770622

loop_
_atom_site_label
_atom_site_type_symbol
_atom_type_description
_atom_site_fract_x
_atom_site_fract_y
_atom_site_fract_z
_atom_type_partial_charge
Ba1   Ba    Ba6+2 0.843750 0.550210 0.455600 1.697863
Ba2   Ba    Ba6+2 0.346090 0.449880 0.544410 1.706458
C1    C     C_3   0.617353 0.929770 0.195754 -0.368110
C2    C     C_R   0.893476 0.444024 0.923406 -0.004433
C3    C     C_R   0.036218 0.454371 0.110232 -0.031457
C4    C     C_3   0.102132 0.798000 0.207089 0.337952
C5    C     C_R   0.875717 0.398994 0.076999 -0.041170
C6    C     C_R   0.803899 0.397306 0.986588 -0.092795
C7    C     C_R   0.106081 0.466313 0.204389 0.049493
C8    C     C_R   0.266970 0.521468 0.232593 -0.290406
C9    C     C_R   0.083416 0.530394 0.795556 -0.001874
C10   C     C_R   0.154927 0.535369 0.889173 -0.046774
C11   C     C_R   0.059461 0.492717 0.952999 0.057919
C12   C     C_3   0.606537 0.827543 0.240266 0.376714
C13   C     C_R   0.319641 0.580486 0.921235 -0.049828
C14   C     C_R   0.389268 0.587624 0.012124 -0.073768
C15   C     C_R   0.296074 0.549581 0.076668 -0.058679
C16   C     C_3   0.168414 0.870435 0.141433 -0.322408
C17   C     C_R   0.130194 0.499465 0.046868 0.025385
C18   C     C_R   0.364137 0.560058 0.169965 -0.018551
C19   C     C_R   0.920364 0.480248 0.768313 -0.281245
C20   C     C_R   0.770651 0.180068 0.530912 -0.282204
C21   C     C_R   0.421727 0.808715 0.464110 -0.191622
C22   C     C_R   0.391603 0.985595 0.427212 -0.084307
C23   C     C_3   0.413908 0.287717 0.264690 0.300013
C24   C     C_R   0.325505 0.878114 0.425415 0.039109
C25   C     C_R   0.581159 0.847217 0.510943 0.110012
C26   C     C_R   0.648286 0.958529 0.517057 -0.009969
C27   C     C_R   0.551391 0.027968 0.473848 -0.043388
C28   C     C_3   0.351689 0.799067 0.768147 0.657827
C29   C     C_R   0.614594 0.138936 0.481455 0.033716
C30   C     C_R   0.870581 0.112533 0.568764 -0.033241
C31   C     C_R   0.807561 0.003248 0.565440 -0.041692
C32   C     C_3   0.331649 0.833048 0.868079 -0.324074
C33   C     C_3   0.907287 0.217208 0.342150 0.276185
C34   C     C_3   0.370413 0.256078 0.161607 -0.395477
C35   C     C_3   0.946520 0.103340 0.338959 -0.344124
C36   C     C_3   0.803310 0.706775 0.732113 0.275240
C37   C     C_3   0.919018 0.765451 0.817696 0.390321
C38   C     C_3   0.153826 0.235724 0.795050 0.385885
C39   C     C_3   0.202252 0.211998 0.892070 -0.325991
C40   C     C_3   0.672266 0.185267 0.769834 0.398165
C41   C     C_3   0.751222 0.121989 0.839664 -0.244832
C42   C     C_R   0.824066 0.440601 0.830828 0.021494
H1    H     H_    0.697810 0.841608 0.304098 0.062586
H2    H     H_    0.878963 0.667553 0.686688 -0.028006
H3    H     H_    0.710031 0.643279 0.749329 0.037947
H4    H     H_    0.594333 0.997680 0.243880 0.075602
H5    H     H_    0.017342 0.718636 0.834572 -0.084101
H6    H     H_    0.976279 0.845264 0.803423 0.056351
H7    H     H_    0.480190 0.808736 0.257384 -0.101405
H8    H     H_    0.524896 0.917985 0.132754 0.114801
H9    H     H_    0.304139 0.311734 0.291515 0.028613
H10   H     H_    0.516981 0.356869 0.278669 0.056867
H11   H     H_    0.264662 0.188681 0.145383 0.132664
H12   H     H_    0.285989 0.765361 0.901985 0.051950
H13   H     H_    0.335943 0.325392 0.128700 0.056812
H14   H     H_    0.478264 0.230538 0.133329 0.119510
H15   H     H_    0.741222 0.949052 0.175759 0.133520
H16   H     H_    0.264558 0.936129 0.179917 0.086284
H17   H     H_    0.254388 0.294202 0.779157 0.115517
H18   H     H_    0.040204 0.272334 0.792225 -0.078993
H19   H     H_    0.324028 0.184661 0.899319 0.174895
H20   H     H_    0.210644 0.286029 0.941359 0.049075
H21   H     H_    0.109478 0.148041 0.908937 0.126196
H22   H     H_    0.772776 0.230909 0.740649 -0.147205
H23   H     H_    0.451672 0.874593 0.907655 0.145529
H24   H     H_    0.596441 0.130984 0.711195 0.152020
H25   H     H_    0.829099 0.178609 0.896697 0.053005
H26   H     H_    0.829323 0.069470 0.807028 0.131249
H27   H     H_    0.000505 0.735435 0.169149 0.132576
H28   H     H_    0.655275 0.071483 0.868269 0.181670
H29   H     H_    0.801431 0.357462 0.120247 0.100986
H30   H     H_    0.677500 0.357574 0.967140 0.099747
H31   H     H_    0.517368 0.623988 0.030517 0.169302
H32   H     H_    0.397604 0.613522 0.876827 0.153948
H33   H     H_    0.320456 0.529856 0.303930 0.066139
H34   H     H_    0.241719 0.889300 0.873255 0.139513
H35   H     H_    0.865538 0.474686 0.697446 0.060814
H36   H     H_    0.314114 0.035564 0.394338 0.080555
H37   H     H_    0.884430 0.955037 0.601099 0.092821
H38   H     H_    0.817880 0.265144 0.536677 0.059427
H39   H     H_    0.202751 0.755818 0.234591 -0.086585
H40   H     H_    0.368136 0.725300 0.462458 0.056948
H41   H     H_    0.222454 0.823092 0.089037 0.106543
H42   H     H_    0.067442 0.907268 0.107194 0.181109
H43   H     H_    0.458811 0.756998 0.764317 0.072974
H44   H     H_    0.773107 0.920446 0.003194 0.349951
H45   H     H_    0.772377 0.213283 0.333104 0.020559
H46   H     H_    0.151787 0.907919 0.633047 0.351280
H47   H     H_    0.964495 0.262336 0.409978 0.040772
H48   H     H_    0.943384 0.066813 0.267424 0.143613
H49   H     H_    0.856334 0.052418 0.370935 0.060531
H50   H     H_    0.071518 0.104840 0.376434 0.130651
O1    O     O_2   0.827880 0.435260 0.277750 -0.474110
O2    O     O_2   0.209985 0.117377 0.569956 -0.422556
O3    O     O_3   0.129121 0.140231 0.733346 -0.559898
O4    O     O_3   0.100280 0.438960 0.391170 -0.490475
O5    O     O_3   0.587780 0.631850 0.546230 -0.490241
O6    O     O_2   0.332590 0.233690 0.456160 -0.464794
O7    O     O_3   0.460414 0.199210 0.303880 -0.655759
O8    O     O_2   0.483151 0.438002 0.826708 -0.504093
O9    O     O_3   0.568715 0.247910 0.811701 -0.608160
O10   O     O_3   0.625580 0.634130 0.333250 -0.500663
O11   O     O_2   0.698653 0.549951 0.175293 -0.470091
O12   O     O_3   0.724822 0.782923 0.690539 -0.600601
O13   O     O_3   0.964759 0.262905 0.269089 -0.643813
O14   O     O_3   0.643233 0.745086 0.178874 -0.570315
O15   O     O_2   0.857130 0.766340 0.543890 -0.476287
O16   O     O_3   0.056550 0.691050 0.379010 -0.470288
O17   O     O_2   0.996553 0.883077 0.443671 -0.479867
O18   O     O_2   0.913137 0.729989 0.990740 -0.331753
O19   O     O_2   0.647845 0.733721 0.899887 -0.386306
O20   O     O_3   0.843045 0.915781 0.954475 -0.547828
O21   O     O_2   0.356319 0.015187 0.777412 -0.324297
O22   O     O_2   0.563872 0.939203 0.702021 -0.359986
O23   O     O_3   0.038669 0.861157 0.273690 -0.616172
O24   O     O_3   0.263377 0.906132 0.616765 -0.502345
O25   O     O_2   0.361830 0.564780 0.722310 -0.497261
O26   O     O_3   0.089430 0.561130 0.608830 -0.452943
O27   O     O_3   0.564130 0.365960 0.666760 -0.463118
O28   O     O_3   0.206343 0.738013 0.716978 -0.669578
O29   O     O_3   0.601940 0.368240 0.453770 -0.486323
O30   O     O_3   0.133170 0.309040 0.621000 -0.504720
P1    P     P_3+3 0.998730 0.403530 0.291970 0.971310
P2    P     P_3+3 0.687380 0.751030 0.571310 1.038921
P3    P     P_3+3 0.105870 0.829602 0.382059 0.996122
P4    P     P_3+3 0.190990 0.596560 0.708040 0.965587
P5    P     P_3+3 0.085075 0.169785 0.621393 1.001196
P6    P     P_3+3 0.581255 0.620824 0.214408 0.961938
P7    P     P_3+3 0.504676 0.233620 0.422824 0.927472
P8    P     P_3+3 0.610202 0.378215 0.784956 0.963515
S1    S     S_3+6 0.825768 0.783478 0.918189 -0.123131
S2    S     S_3+6 0.388165 0.919431 0.717200 -0.102747

loop_
_geom_bond_atom_site_label_1
_geom_bond_atom_site_label_2
_ccdc_geom_bond_type
C32   H12   S    
C41   H28   S    
C14   H31   S    
O18   S1    D    
C2    C6    A    
C40   O9    S    
Ba1   O5    S    
O6    P7    D    
C5    C6    A    
C5    H29   S    
Ba2   O29   S    
C16   H42   S    
C20   C30   A    
C20   H38   S    
H46   O24   S    
C26   C27   A    
C33   C35   S    
O8    P8    D    
C34   H14   S    
C37   S1    S    
C36   C37   S    
C25   P2    S    
O22   S2    D    
C13   C14   A    
C1    H4    S    
C15   C18   A    
C38   H18   S    
Ba1   Ba2   S    
C21   C24   A    
C2    C11   A    
C22   C27   A    
C29   P7    S    
Ba1   O15   S    
C22   H36   S    
O4    P1    S    
C28   O28   S    
C8    C18   A    
C14   C15   A    
C28   S2    S    
O30   P5    S    
C21   C25   A    
C12   H1    S    
O9    P8    S    
C4    O23   S    
O14   P6    S    
O24   S2    S    
O16   P3    S    
O25   P4    D    
C12   O14   S    
C13   H32   S    
Ba2   O6    S    
C41   H25   S    
O10   P6    S    
C40   H24   S    
C30   P5    S    
C8    H33   S    
O5    P2    S    
C4    H27   S    
C4    C16   S    
C16   H41   S    
C20   C29   A    
C28   C32   S    
Ba1   P2    S    
O13   P1    S    
C34   H13   S    
C21   H40   S    
C18   P6    S    
C38   O3    S    
C3    C5    A    
Ba2   O26   S    
C11   C17   A    
C39   H21   S    
C2    C42   A    
C9    C19   A    
C7    P1    S    
C38   H17   S    
Ba1   O26   S    
C36   O12   S    
Ba1   O29   S    
C3    C7    A    
Ba1   O16   S    
C19   C42   A    
O1    P1    D    
C12   H7    S    
C10   C13   A    
Ba1   O1    S    
C19   H35   S    
C6    H30   S    
C35   H49   S    
C23   H10   S    
O23   P3    S    
Ba1   O10   S    
C36   H3    S    
C1    C12   S    
C33   H45   S    
C16   H16   S    
C38   C39   S    
C37   H5    S    
C26   C31   A    
C41   H26   S    
O17   P3    D    
C40   C41   S    
C39   H19   S    
O27   P8    S    
O7    P7    S    
C7    C8    A    
Ba2   O27   S    
C1    H15   S    
C4    H39   S    
C35   H48   S    
O29   P7    S    
C22   C24   A    
C23   H9    S    
C32   H23   S    
Ba2   O5    S    
Ba2   O25   S    
O26   P4    S    
O28   P4    S    
O11   P6    D    
C3    C17   A    
O21   S2    D    
Ba2   O30   S    
C42   P8    S    
O12   P2    S    
Ba1   P1    S    
C30   C31   A    
C9    P4    S    
Ba1   O4    S    
O3    P5    S    
C27   C29   A    
C34   H11   S    
C1    H8    S    
C23   O7    S    
C15   C17   A    
O20   S1    S    
C35   H50   S    
C24   P3    S    
H44   O20   S    
C36   H2    S    
C33   O13   S    
C23   C34   S    
O15   P2    D    
C37   H6    S    
C10   C11   A    
Ba2   O4    S    
C25   C26   A    
C40   H22   S    
O19   S1    D    
C39   H20   S    
C28   H43   S    
C31   H37   S    
C32   H34   S    
C9    C10   A    
C33   H47   S    
O2    P5    D    
Ba2   P4    S    
