data_mof_unit_32135.cif
_audit_creation_date              2012-12-11T15:55:05-0500
_audit_creation_method            fapswitch 2.2
_symmetry_space_group_name_H-M    P1
_symmetry_Int_Tables_number       1
_space_group_crystal_system       triclinic
_cell_length_a                    18.083836
_cell_length_b                    24.627699
_cell_length_c                    15.209655
_cell_angle_alpha                 90.618729
_cell_angle_beta                  125.877779
_cell_angle_gamma                 89.580329
_cell_volume                      5488.29349584

loop_
_atom_site_label
_atom_site_type_symbol
_atom_type_description
_atom_site_fract_x
_atom_site_fract_y
_atom_site_fract_z
_atom_type_partial_charge
C1    C     C_R   0.939525 0.849103 0.088464 0.499951
C2    C     C_R   0.950376 0.153486 0.090747 0.554715
C3    C     C_R   0.440030 0.348943 0.088734 0.539037
C4    C     C_R   0.449908 0.652328 0.093702 0.551394
C5    C     C_R   0.070857 0.854284 0.907516 -0.035507
C6    C     C_R   0.090158 0.129340 0.906727 -0.047959
C7    C     C_R   0.571080 0.354593 0.906988 -0.007352
C8    C     C_R   0.569453 0.645486 0.907534 -0.055781
C9    C     C_R   0.180904 0.130737 0.089164 0.539308
C10   C     C_R   0.150376 0.849424 0.087777 0.578609
C11   C     C_R   0.656647 0.648037 0.088871 0.491606
C12   C     C_R   0.651280 0.349645 0.087483 0.558724
C13   C     C_R   0.293338 0.998793 0.371112 0.312966
C14   C     C_R   0.821755 0.497576 0.289408 0.287885
C15   C     C_R   0.932432 0.999190 0.630407 0.254465
C16   C     C_R   0.434534 0.498775 0.631281 0.216276
C17   C     C_R   0.135235 0.823581 0.996744 0.260558
C18   C     C_R   0.172423 0.149294 0.996566 0.121282
C19   C     C_R   0.635599 0.323838 0.995793 0.255123
C20   C     C_R   0.640679 0.672929 0.997077 0.134548
C21   C     C_3   0.975733 0.060078 0.426931 0.529879
C22   C     C_3   0.952557 0.954255 0.397105 0.546683
C23   C     C_3   0.476152 0.559329 0.425979 0.525822
C24   C     C_3   0.454937 0.453307 0.398138 0.544699
C25   C     C_3   0.952799 0.060387 0.512138 0.752536
C26   C     C_3   0.902565 0.961412 0.453508 0.753073
C27   C     C_3   0.453414 0.559794 0.511409 0.756869
C28   C     C_3   0.405079 0.460315 0.454769 0.749994
C29   C     C_3   0.110255 0.994281 0.558818 0.678055
C30   C     C_3   0.611992 0.494553 0.559070 0.671468
C31   C     C_3   0.026279 0.003128 0.435565 -0.645868
C32   C     C_3   0.527621 0.502724 0.435644 -0.649875
C33   C     C_3   0.964336 0.000195 0.557773 -0.514966
C34   C     C_3   0.466129 0.499755 0.558263 -0.500433
C35   C     C_R   0.861782 0.154086 0.912398 0.490449
C36   C     C_R   0.855412 0.847709 0.909136 0.476517
C37   C     C_R   0.364444 0.655058 0.915542 0.486116
C38   C     C_R   0.358823 0.346597 0.909872 0.407815
C39   C     C_3   0.071732 0.983874 0.627962 0.434211
C40   C     C_3   0.573736 0.484209 0.628530 0.422698
C41   C     C_3   0.719975 0.212670 0.892567 0.068293
C42   C     C_3   0.723938 0.770853 0.874601 0.111439
C43   C     C_3   0.222383 0.712809 0.894858 0.048359
C44   C     C_3   0.241639 0.257370 0.872909 0.113749
C45   C     C_3   0.149012 0.746069 0.895064 0.775756
C46   C     C_3   0.176376 0.215919 0.870702 0.717678
C47   C     C_3   0.646895 0.245282 0.894060 0.731580
C48   C     C_3   0.652950 0.735374 0.873051 0.725978
C49   C     C_3   0.351342 0.781558 0.014746 0.639770
C50   C     C_3   0.385295 0.222848 0.052768 0.706739
C51   C     C_3   0.849184 0.281609 0.008264 0.638157
C52   C     C_3   0.862846 0.726777 0.047031 0.744799
C53   C     C_3   0.810907 0.205162 0.098857 0.654031
C54   C     C_3   0.772251 0.808546 0.059281 0.774055
C55   C     C_3   0.310195 0.704615 0.101383 0.649368
C56   C     C_3   0.273661 0.295028 0.050359 0.785466
C57   C     C_3   0.819550 0.220189 0.002601 -0.395824
C58   C     C_3   0.810240 0.782468 0.995627 -0.524474
C59   C     C_3   0.320771 0.719997 0.006630 -0.387565
C60   C     C_3   0.321135 0.274526 0.994494 -0.504636
C61   C     C_3   0.201036 0.785711 0.998947 -0.469824
C62   C     C_3   0.225331 0.194276 0.992417 -0.515389
C63   C     C_3   0.700054 0.285527 0.995951 -0.420034
C64   C     C_3   0.700106 0.712945 0.993702 -0.519722
C65   C     C_3   0.273393 0.820926 0.995706 0.533872
C66   C     C_3   0.323782 0.172412 0.030507 0.601047
C67   C     C_3   0.769548 0.320281 0.985881 0.546166
C68   C     C_3   0.792197 0.682627 0.026181 0.580018
C69   C     C_3   0.251784 0.749689 0.107080 0.693180
C70   C     C_3   0.229706 0.244811 0.064803 0.648552
C71   C     C_3   0.752498 0.250056 0.104585 0.666753
C72   C     C_3   0.718500 0.763698 0.071967 0.689719
C73   C     C_3   0.426112 0.940862 0.506794 0.075409
C74   C     C_3   0.440638 0.017392 0.406981 0.153971
C75   C     C_3   0.972084 0.447080 0.374651 0.124042
C76   C     C_3   0.968304 0.549771 0.369626 0.148498
C77   C     C_R   0.734871 0.953755 0.718692 0.517930
C78   C     C_R   0.733587 0.044699 0.720051 0.540545
C79   C     C_R   0.247757 0.456460 0.694003 0.513640
C80   C     C_R   0.243911 0.545811 0.702069 0.494126
C81   C     C_3   0.529515 0.940370 0.600449 0.759090
C82   C     C_3   0.544014 0.004328 0.478880 0.735545
C83   C     C_3   0.069054 0.442200 0.481691 0.771674
C84   C     C_3   0.074170 0.542665 0.443445 0.746814
C85   C     C_3   0.421384 0.037552 0.563446 0.687042
C86   C     C_3   0.933359 0.500376 0.492346 0.667389
C87   C     C_3   0.392134 0.999819 0.462586 -0.503098
C88   C     C_3   0.920710 0.498403 0.380026 -0.531406
C89   C     C_3   0.572784 0.997531 0.598746 -0.464927
C90   C     C_3   0.097481 0.501043 0.538869 -0.502655
C91   C     C_3   0.528234 0.045634 0.629143 0.540167
C92   C     C_3   0.036972 0.513546 0.583790 0.583185
C93   C     C_R   0.054238 0.046180 0.305628 0.541007
C94   C     C_R   0.057303 0.957355 0.308454 0.457405
C95   C     C_R   0.555971 0.546017 0.306330 0.569060
C96   C     C_R   0.558600 0.457263 0.308932 0.504150
C97   C     C_R   0.874884 0.820038 0.997938 0.139841
C98   C     C_R   0.886818 0.184235 0.002438 0.019405
C99   C     C_R   0.376699 0.319412 0.998216 0.152387
C100  C     C_R   0.388336 0.684082 0.006819 0.022101
C101  C     C_R   0.676165 0.998577 0.676975 0.020274
C102  C     C_R   0.196338 0.501901 0.634536 0.022457
C103  C     C_R   0.061314 0.002700 0.365855 0.226642
C104  C     C_R   0.562592 0.502519 0.366093 0.204976
C105  C     C_R   0.251398 0.954377 0.303187 -0.157262
C106  C     C_R   0.246390 0.043540 0.308467 -0.018643
C107  C     C_R   0.765353 0.453295 0.263099 -0.001461
C108  C     C_R   0.766000 0.543619 0.248513 -0.039470
C109  C     C_R   0.943066 0.044072 0.693222 0.466043
C110  C     C_R   0.945895 0.954731 0.694012 0.433068
C111  C     C_R   0.443995 0.543850 0.693264 0.479376
C112  C     C_R   0.447499 0.454411 0.694854 0.463302
H1    H     H_    0.721191 0.228641 0.825556 0.184058
H2    H     H_    0.747925 0.747614 0.832933 0.177207
H3    H     H_    0.227672 0.727832 0.830572 0.146293
H4    H     H_    0.273095 0.236757 0.837272 0.181019
H5    H     H_    0.418023 0.917696 0.438271 0.163040
H6    H     H_    0.409863 0.993712 0.330065 0.188507
H7    H     H_    0.977600 0.455250 0.306908 0.206138
H8    H     H_    0.945648 0.551534 0.284127 0.209720
H9    H     H_    0.267691 0.912071 0.321577 0.178432
H10   H     H_    0.256271 0.084653 0.334865 0.203245
H11   H     H_    0.780348 0.412934 0.293251 0.211286
H12   H     H_    0.783924 0.584510 0.250512 0.219173
H13   H     H_    0.042511 0.848646 0.823778 0.241939
H14   H     H_    0.058488 0.135096 0.821884 0.232453
H15   H     H_    0.541260 0.348347 0.822828 0.246165
H16   H     H_    0.529571 0.656647 0.823728 0.237115
N1    N     N_R   0.950530 0.896220 0.057200 -0.140135
N2    N     N_R   0.950530 0.103780 0.057200 -0.105755
N3    N     N_R   0.450530 0.396220 0.057200 -0.149132
N4    N     N_R   0.450530 0.603780 0.057200 -0.109207
N5    N     N_R   0.893330 0.103780 0.942800 -0.116369
N6    N     N_R   0.893330 0.896220 0.942800 -0.127062
N7    N     N_R   0.393330 0.603780 0.942800 -0.107774
N8    N     N_R   0.393330 0.396220 0.942800 -0.120590
N9    N     N_R   0.818150 0.971400 0.792440 -0.164323
N10   N     N_R   0.818150 0.028600 0.792440 -0.162794
N11   N     N_R   0.318150 0.471400 0.792440 -0.135380
N12   N     N_R   0.318150 0.528600 0.792440 -0.135488
N13   N     N_R   0.025710 0.028600 0.207560 -0.144690
N14   N     N_R   0.025710 0.971400 0.207560 -0.145870
N15   N     N_R   0.525710 0.528600 0.207560 -0.145680
N16   N     N_R   0.525710 0.471400 0.207560 -0.150385
N17   N     N_R   0.181850 0.971400 0.207560 -0.074789
N18   N     N_R   0.181850 0.028600 0.207560 -0.077401
N19   N     N_R   0.681850 0.471400 0.207560 -0.117450
N20   N     N_R   0.681850 0.528600 0.207560 -0.097419
N21   N     N_R   0.974290 0.028600 0.792440 -0.145615
N22   N     N_R   0.974290 0.971400 0.792440 -0.131580
N23   N     N_R   0.474290 0.528600 0.792440 -0.148054
N24   N     N_R   0.474290 0.471400 0.792440 -0.139815
N25   N     N_R   0.049470 0.896220 0.942800 -0.107121
N26   N     N_R   0.049470 0.103780 0.942800 -0.110793
N27   N     N_R   0.549470 0.396220 0.942800 -0.106754
N28   N     N_R   0.549470 0.603780 0.942800 -0.105875
N29   N     N_R   0.106670 0.103780 0.057200 -0.141688
N30   N     N_R   0.106670 0.896220 0.057200 -0.138000
N31   N     N_R   0.606670 0.603780 0.057200 -0.137509
N32   N     N_R   0.606670 0.396220 0.057200 -0.149697
Ni1   Ni    Ni4+2 0.065600 0.934400 0.131190 0.250561
Ni2   Ni    Ni4+2 0.065600 0.065600 0.131190 0.269137
Ni3   Ni    Ni4+2 0.565600 0.434400 0.131190 0.236979
Ni4   Ni    Ni4+2 0.565600 0.565600 0.131190 0.276085
Ni5   Ni    Ni4+2 0.934400 0.065600 0.868810 0.264490
Ni6   Ni    Ni4+2 0.934400 0.934400 0.868810 0.261008
Ni7   Ni    Ni4+2 0.434400 0.565600 0.868810 0.260828
Ni8   Ni    Ni4+2 0.434400 0.434400 0.868810 0.275297
O1    O     O_3   0.003209 0.826364 0.186633 -0.663672
H17   H     H_    0.007083 0.851202 0.240211 0.379333
O2    O     O_3   0.028114 0.174665 0.182444 -0.740866
H18   H     H_    0.031310 0.213808 0.170979 0.369396
O3    O     O_3   0.500416 0.327245 0.189224 -0.628977
H19   H     H_    0.550994 0.352689 0.229602 0.342019
O4    O     O_3   0.526243 0.671673 0.189323 -0.716524
H20   H     H_    0.532480 0.710766 0.180478 0.372411
Cl1   Cl    Cl    0.874347 0.069268 0.291490 -0.359173
Cl2   Cl    Cl    0.868299 0.949467 0.251256 -0.408638
Cl3   Cl    Cl    0.374456 0.567554 0.290364 -0.367365
Cl4   Cl    Cl    0.370327 0.447399 0.252401 -0.405500
O5    O     O_3   0.861964 0.078172 0.461464 -0.537306
H21   H     H_    0.859590 0.117680 0.447257 0.409668
O6    O     O_3   0.817412 0.987165 0.381372 -0.585755
H22   H     H_    0.770639 0.959685 0.332292 0.420929
O7    O     O_3   0.362249 0.576964 0.460476 -0.555556
H23   H     H_    0.359072 0.616415 0.445422 0.406776
O8    O     O_3   0.319380 0.485447 0.382326 -0.600092
H24   H     H_    0.272975 0.457599 0.334183 0.418512
O9    O     O_3   0.007885 0.097826 0.598189 -0.677952
H25   H     H_    0.071909 0.095663 0.624622 0.383097
O10   O     O_3   0.880807 0.910742 0.475703 -0.619927
H26   H     H_    0.935288 0.888619 0.524025 0.417852
O11   O     O_3   0.507860 0.597748 0.596702 -0.667964
H27   H     H_    0.571866 0.596226 0.622756 0.385220
O12   O     O_3   0.384469 0.409545 0.477975 -0.617115
H28   H     H_    0.439314 0.387640 0.525973 0.413884
Cl5   Cl    Cl    0.188971 0.050381 0.607394 -0.333822
Cl6   Cl    Cl    0.188810 0.941581 0.579085 -0.216902
Cl7   Cl    Cl    0.690128 0.550955 0.606687 -0.320570
Cl8   Cl    Cl    0.691661 0.442310 0.580330 -0.224749
Cl9   Cl    Cl    0.140264 0.017962 0.758604 -0.492769
Cl10  Cl    Cl    0.092508 0.914699 0.675718 -0.459123
Cl11  Cl    Cl    0.641624 0.518969 0.758458 -0.478546
Cl12  Cl    Cl    0.595424 0.415309 0.677262 -0.444405
O13   O     O_3   0.694317 0.158016 0.866047 -0.593779
H29   H     H_    0.638765 0.157662 0.790651 0.409767
O14   O     O_3   0.682416 0.818242 0.813340 -0.594577
H30   H     H_    0.646632 0.807543 0.735570 0.378576
O15   O     O_3   0.195520 0.658200 0.866786 -0.576811
H31   H     H_    0.143342 0.657741 0.788973 0.427422
O16   O     O_3   0.192387 0.301907 0.805353 -0.592335
H32   H     H_    0.161175 0.289434 0.729041 0.396219
Cl13  Cl    Cl    0.566681 0.202699 0.896617 -0.335391
Cl14  Cl    Cl    0.547446 0.771803 0.822543 -0.361439
Cl15  Cl    Cl    0.069119 0.702880 0.896008 -0.277257
Cl16  Cl    Cl    0.064207 0.245554 0.812884 -0.362354
O17   O     O_3   0.091765 0.772980 0.794730 -0.675944
H33   H     H_    0.123929 0.784173 0.763132 0.376611
O18   O     O_3   0.162142 0.173298 0.799519 -0.709923
H34   H     H_    0.129853 0.188485 0.725372 0.378390
O19   O     O_3   0.594116 0.273092 0.794852 -0.682823
H35   H     H_    0.559904 0.245872 0.735402 0.381912
O20   O     O_3   0.629487 0.693027 0.797577 -0.716498
H36   H     H_    0.596184 0.709115 0.724042 0.372079
O21   O     O_3   0.372696 0.791411 0.940102 -0.628261
H37   H     H_    0.317271 0.790769 0.864626 0.373246
O22   O     O_3   0.441715 0.213371 0.017387 -0.598984
H38   H     H_    0.404789 0.206321 0.938547 0.391975
O23   O     O_3   0.871213 0.290612 0.933966 -0.627578
H39   H     H_    0.816839 0.287063 0.858241 0.379918
O24   O     O_3   0.911785 0.710333 0.004529 -0.600583
H40   H     H_    0.870521 0.705829 0.924985 0.383460
Cl17  Cl    Cl    0.851101 0.185509 0.802579 -0.549206
Cl18  Cl    Cl    0.849896 0.813079 0.803746 -0.590421
Cl19  Cl    Cl    0.363169 0.689582 0.814313 -0.591097
Cl20  Cl    Cl    0.370438 0.310231 0.817983 -0.634116
O25   O     O_3   0.228005 0.845812 0.893546 -0.713255
H41   H     H_    0.269983 0.872542 0.895832 0.426493
O26   O     O_3   0.316027 0.140082 0.948413 -0.632210
H42   H     H_    0.281179 0.106901 0.939323 0.413679
O27   O     O_3   0.721590 0.341133 0.879889 -0.647004
H43   H     H_    0.760968 0.368099 0.877531 0.421243
O28   O     O_3   0.774271 0.648352 0.940855 -0.628797
H44   H     H_    0.735019 0.618086 0.933611 0.403123
O29   O     O_3   0.894046 0.198209 0.202574 -0.619185
H45   H     H_    0.935553 0.228999 0.223063 0.385196
O30   O     O_3   0.839404 0.832179 0.161123 -0.645263
H46   H     H_    0.883558 0.805380 0.213554 0.395237
O31   O     O_3   0.392278 0.696880 0.205611 -0.623641
H47   H     H_    0.435132 0.726949 0.226823 0.378827
O32   O     O_3   0.332327 0.323173 0.150007 -0.617017
H48   H     H_    0.381917 0.300015 0.206483 0.411058
Cl21  Cl    Cl    0.759191 0.138933 0.074846 -0.287895
Cl22  Cl    Cl    0.701228 0.867100 0.988643 -0.244845
Cl23  Cl    Cl    0.257409 0.638579 0.074885 -0.299439
Cl24  Cl    Cl    0.190012 0.347441 0.970277 -0.244960
O33   O     O_3   0.688057 0.225892 0.115975 -0.562964
H49   H     H_    0.721652 0.210059 0.189796 0.415918
O34   O     O_3   0.634823 0.785483 0.043633 -0.568466
H50   H     H_    0.609269 0.761072 0.071095 0.379615
O35   O     O_3   0.185815 0.725411 0.115598 -0.571434
H51   H     H_    0.218107 0.709097 0.188886 0.412854
O36   O     O_3   0.140771 0.258852 0.030860 -0.583573
H52   H     H_    0.121341 0.233565 0.064070 0.353659
O37   O     O_3   0.307479 0.781727 0.202293 -0.655304
H53   H     H_    0.360947 0.795925 0.208676 0.363789
O38   O     O_3   0.279586 0.234034 0.176622 -0.658193
H54   H     H_    0.338377 0.217097 0.202569 0.393537
O39   O     O_3   0.809060 0.282482 0.198091 -0.617882
H55   H     H_    0.857286 0.298739 0.196348 0.381813
O40   O     O_3   0.768100 0.750199 0.182650 -0.617268
H56   H     H_    0.822250 0.728647 0.204683 0.385412
O41   O     O_3   0.432337 0.790889 0.118486 -0.768041
H57   H     H_    0.462852 0.823506 0.115607 0.424431
O42   O     O_3   0.444307 0.232160 0.165324 -0.695985
H58   H     H_    0.500121 0.209624 0.196585 0.437643
O43   O     O_3   0.929497 0.292376 0.111806 -0.768945
H59   H     H_    0.959036 0.325165 0.107759 0.423101
O44   O     O_3   0.928038 0.733869 0.159524 -0.697986
H60   H     H_    0.978046 0.707013 0.185959 0.439898
Cl25  Cl    Cl    0.319676 0.877797 0.091689 -0.547635
Cl26  Cl    Cl    0.380225 0.128235 0.146054 -0.398904
Cl27  Cl    Cl    0.812850 0.380269 0.072774 -0.563036
Cl28  Cl    Cl    0.843559 0.637561 0.140527 -0.582809
Cl29  Cl    Cl    0.358794 0.900296 0.534495 -0.346322
Cl30  Cl    Cl    0.417520 0.086453 0.360538 -0.342563
Cl31  Cl    Cl    0.922976 0.380648 0.333359 -0.468428
Cl32  Cl    Cl    0.936075 0.615560 0.393791 -0.356958
O45   O     O_3   0.563272 0.895048 0.577674 -0.635399
H61   H     H_    0.535901 0.861747 0.583802 0.369869
O46   O     O_3   0.555654 0.955169 0.439913 -0.681570
H62   H     H_    0.622059 0.949077 0.478007 0.393922
O47   O     O_3   0.128123 0.425828 0.454158 -0.643849
H63   H     H_    0.111455 0.388304 0.424322 0.400377
O48   O     O_3   0.099383 0.519664 0.379288 -0.695152
H64   H     H_    0.167117 0.517335 0.425205 0.400460
O49   O     O_3   0.719976 0.905323 0.666357 -0.629038
H65   H     H_    0.776609 0.895627 0.674764 0.358621
O50   O     O_3   0.715120 0.094715 0.674319 -0.595293
H66   H     H_    0.767192 0.104234 0.672758 0.374717
O51   O     O_3   0.249734 0.409034 0.648877 -0.637481
H67   H     H_    0.259206 0.381165 0.699975 0.380213
O52   O     O_3   0.221426 0.599163 0.685906 -0.608985
H68   H     H_    0.268831 0.615563 0.682100 0.372203
Cl33  Cl    Cl    0.555008 0.927427 0.732354 -0.306112
Cl34  Cl    Cl    0.608821 0.053481 0.461373 -0.356362
Cl35  Cl    Cl    0.072005 0.388592 0.566353 -0.397546
Cl36  Cl    Cl    0.127273 0.608666 0.474131 -0.361494
Cl37  Cl    Cl    0.389098 0.009093 0.644993 -0.238771
Cl38  Cl    Cl    0.360187 0.101030 0.532782 -0.357736
Cl39  Cl    Cl    0.895331 0.437802 0.514739 -0.338857
Cl40  Cl    Cl    0.856403 0.547340 0.494056 -0.342421
Cl41  Cl    Cl    0.583000 0.050295 0.773551 -0.332463
Cl42  Cl    Cl    0.545816 0.112953 0.599134 -0.373216
Cl43  Cl    Cl    0.077266 0.478890 0.708880 -0.322498
Cl44  Cl    Cl    0.049374 0.582488 0.630211 -0.331629
O53   O     O_3   0.115575 0.088109 0.355379 -0.612536
H69   H     H_    0.118693 0.106014 0.300067 0.346596
O54   O     O_3   0.118282 0.915607 0.361425 -0.613425
H70   H     H_    0.129134 0.899148 0.310711 0.307926
O55   O     O_3   0.620134 0.586567 0.356765 -0.577496
H71   H     H_    0.630228 0.600554 0.304160 0.341363
O56   O     O_3   0.623805 0.417637 0.363078 -0.612017
H72   H     H_    0.654347 0.413228 0.326803 0.294700
O57   O     O_3   0.896918 0.092175 0.650536 -0.633131
H73   H     H_    0.909068 0.114941 0.711538 0.340595
O58   O     O_3   0.905562 0.905119 0.653136 -0.670608
H74   H     H_    0.911741 0.884628 0.712409 0.334530
O59   O     O_3   0.396161 0.591279 0.648813 -0.645341
H75   H     H_    0.403162 0.613007 0.708057 0.325972
O60   O     O_3   0.407740 0.404621 0.654235 -0.625399
H76   H     H_    0.408413 0.385514 0.711384 0.359310
O61   O     O_3   0.246117 0.143119 0.195250 -0.632833
H77   H     H_    0.212674 0.151027 0.227273 0.335871
O62   O     O_3   0.173662 0.823558 0.180286 -0.618137
H78   H     H_    0.160907 0.848701 0.220579 0.316484
O63   O     O_3   0.698981 0.669996 0.190768 -0.648694
H79   H     H_    0.685385 0.646718 0.232016 0.340722
O64   O     O_3   0.677740 0.324287 0.181765 -0.614268
H80   H     H_    0.671812 0.350785 0.226342 0.297932
Cl45  Cl    Cl    0.030791 0.124227 0.441821 -0.366349
Cl46  Cl    Cl    0.002516 0.887104 0.422645 -0.421302
Cl47  Cl    Cl    0.530490 0.623520 0.439143 -0.372784
Cl48  Cl    Cl    0.506579 0.386580 0.424370 -0.382808

loop_
_geom_bond_atom_site_label_1
_geom_bond_atom_site_label_2
_ccdc_geom_bond_type
C79   N11   A    
C92   Cl44  S    
C93   O53   S    
N25   Ni6   S    
C15   C109  A    
C77   C101  A    
O20   H36   S    
C42   C58   S    
O63   H79   S    
C91   Cl41  S    
C11   N31   A    
C95   O55   S    
O61   H77   S    
C24   Cl48  S    
C46   C62   S    
N10   Ni5   S    
C3    N3    A    
C55   C59   S    
C69   O37   S    
C86   C88   S    
C74   Cl30  S    
N15   N16   A    
C28   O12   S    
C62   C70   S    
C66   Cl26  S    
C17   C61   S    
O42   H58   S    
C19   C63   S    
C10   O62   S    
C32   C104  S    
C79   C102  A    
C36   C97   A    
C51   C57   S    
C38   N8    A    
C23   Cl3   S    
C2    O2    S    
C21   Cl1   S    
C49   O41   S    
O29   H45   S    
C78   C101  A    
C35   N5    A    
C108  H12   S    
C73   C81   S    
N9    Ni6   S    
C44   C46   S    
N17   N18   A    
C23   C27   S    
C11   C20   A    
O10   H26   S    
N32   Ni3   S    
O32   H48   S    
C67   Cl27  S    
C28   O8    S    
C69   O35   S    
O51   H67   S    
C96   O56   S    
N20   Ni4   S    
O6    H22   S    
C24   C32   S    
O23   H39   S    
C96   N16   A    
C90   C92   S    
O22   H38   S    
C71   O39   S    
C12   O64   S    
C42   O14   S    
C54   O30   S    
C11   O63   S    
C52   C58   S    
C14   C107  A    
C63   C71   S    
C7    C19   A    
C96   C104  A    
C53   C71   S    
C77   O49   S    
O13   H29   S    
C89   C101  S    
C41   H1    S    
C13   C106  A    
C110  N22   A    
N11   N12   A    
C85   Cl38  S    
C1    N1    A    
C14   C88   S    
C47   C63   S    
N17   Ni1   S    
N23   Ni7   S    
C45   Cl15  S    
C55   Cl23  S    
C43   O15   S    
C21   Cl45  S    
C82   O46   S    
O62   H78   S    
O49   H65   S    
C61   C65   S    
O8    H24   S    
C44   H4    S    
O55   H71   S    
C39   Cl10  S    
O57   H73   S    
N29   Ni2   S    
O40   H56   S    
C16   C111  A    
C108  N20   A    
C30   Cl8   S    
N19   N20   A    
C25   O5    S    
N14   Ni1   S    
C81   Cl33  S    
C4    N4    A    
C84   O48   S    
C21   C31   S    
O31   H47   S    
C76   H8    S    
C82   C89   S    
C64   C68   S    
O35   H51   S    
C36   Cl18  S    
N22   Ni6   S    
C56   O32   S    
C51   O43   S    
O33   H49   S    
C27   O7    S    
N25   N30   A    
C90   C102  S    
C16   C34   S    
C8    H16   S    
C40   Cl12  S    
C4    O4    S    
C24   Cl4   S    
N26   Ni5   S    
C74   C87   S    
C89   C91   S    
C10   N30   A    
N30   Ni1   S    
C43   C59   S    
N2    Ni2   S    
N12   Ni7   S    
C47   O19   S    
N13   Ni2   S    
O25   H41   S    
C59   C100  S    
C54   Cl22  S    
C106  H10   S    
O9    H25   S    
C84   C90   S    
C37   Cl19  S    
C22   Cl46  S    
C86   Cl39  S    
C74   H6    S    
C62   C66   S    
C105  H9    S    
C94   N14   A    
N21   Ni5   S    
N3    N8    A    
C18   C62   S    
C51   C67   S    
O17   H33   S    
O12   H28   S    
C80   C102  A    
O47   H63   S    
C26   C33   S    
O44   H60   S    
C13   C87   S    
C55   O31   S    
O15   H31   S    
C41   C47   S    
N1    Ni1   S    
C42   C48   S    
C43   C45   S    
C55   C69   S    
C52   O44   S    
O11   H27   S    
C56   Cl24  S    
C49   O21   S    
C21   C25   S    
C24   C28   S    
C36   N6    A    
C112  N24   A    
C65   Cl25  S    
O38   H54   S    
C52   O24   S    
C71   O33   S    
C29   Cl5   S    
C49   C59   S    
C44   O16   S    
C50   C60   S    
C111  O59   S    
N19   Ni3   S    
C3    C99   A    
C9    C18   A    
C80   O52   S    
C72   O34   S    
C29   Cl6   S    
C5    H13   S    
N7    Ni7   S    
N31   Ni4   S    
C76   Cl32  S    
C7    H15   S    
C110  O58   S    
C81   O45   S    
C37   C100  A    
C25   C33   S    
C68   Cl28  S    
C95   N15   A    
C51   O23   S    
O26   H42   S    
C107  H11   S    
C76   C84   S    
O36   H52   S    
C9    O61   S    
O5    H21   S    
N18   Ni2   S    
C77   N9    A    
C38   Cl20  S    
C48   C64   S    
C5    C17   A    
C68   O28   S    
O28   H44   S    
O1    H17   S    
C73   C87   S    
C112  O60   S    
C50   O42   S    
C72   O40   S    
N23   N24   A    
N6    Ni6   S    
C35   Cl17  S    
C35   C98   A    
C25   O9    S    
C109  O57   S    
C81   C89   S    
C26   O6    S    
C82   Cl34  S    
C14   C108  A    
C92   Cl43  S    
C28   C34   S    
O39   H55   S    
C15   C110  A    
C93   C103  A    
C50   O22   S    
C53   Cl21  S    
C74   C82   S    
C37   N7    A    
N24   Ni8   S    
C91   Cl42  S    
C85   C91   S    
C48   Cl14  S    
O14   H30   S    
C6    H14   S    
N26   N29   A    
C13   C105  A    
O18   H34   S    
C84   Cl36  S    
C53   C57   S    
C85   Cl37  S    
C80   N12   A    
C56   C60   S    
O50   H66   S    
N4    Ni4   S    
N5    Ni5   S    
C107  N19   A    
O64   H80   S    
C9    N29   A    
N27   Ni8   S    
C105  N17   A    
C26   O10   S    
C8    C20   A    
C12   N32   A    
C6    N26   A    
C94   C103  A    
C46   Cl16  S    
C39   Cl9   S    
N16   Ni3   S    
N2    N5    A    
N15   Ni4   S    
O48   H64   S    
C93   N13   A    
C16   C112  A    
C38   C99   A    
C23   C32   S    
C41   C57   S    
O58   H74   S    
O60   H76   S    
N21   N22   A    
C75   C83   S    
O7    H23   S    
C44   C60   S    
C57   C98   S    
C47   Cl13  S    
C12   C19   A    
C45   C61   S    
C2    N2    A    
N11   Ni8   S    
O54   H70   S    
C73   Cl29  S    
C7    N27   A    
C22   C26   S    
C94   O54   S    
C23   Cl47  S    
O2    H18   S    
C66   O26   S    
C45   O17   S    
O59   H75   S    
C22   Cl2   S    
C60   C99   S    
C67   O27   S    
C70   O38   S    
O3    H19   S    
C86   Cl40  S    
C33   C39   S    
C49   C65   S    
C34   C40   S    
O27   H43   S    
C10   C17   A    
C43   H3    S    
C3    O3    S    
O4    H20   S    
C27   O11   S    
N3    Ni3   S    
O37   H53   S    
C79   O51   S    
C52   C68   S    
O46   H62   S    
C30   Cl7   S    
O52   H68   S    
C65   O25   S    
C58   C97   S    
C78   N10   A    
C42   H2    S    
C85   C87   S    
C27   C34   S    
C70   O36   S    
C6    C18   A    
C63   C67   S    
C73   H5    S    
C22   C31   S    
C75   H7    S    
C1    C97   A    
N8    Ni8   S    
N28   Ni7   S    
C31   C103  S    
C20   C64   S    
C109  N21   A    
O16   H32   S    
O19   H35   S    
C40   Cl11  S    
C83   Cl35  S    
C29   C39   S    
O21   H37   S    
C30   C40   S    
C50   C66   S    
C78   O50   S    
C56   C70   S    
C4    C100  A    
C75   Cl31  S    
O34   H50   S    
C95   C104  A    
O45   H61   S    
C54   C58   S    
C61   C69   S    
C83   C90   S    
C76   C88   S    
C46   O18   S    
N27   N32   A    
N28   N31   A    
C111  N23   A    
O30   H46   S    
C48   O20   S    
N9    N10   A    
C106  N18   A    
C29   C31   S    
C86   C92   S    
N13   N14   A    
C30   C32   S    
C83   O47   S    
N4    N7    A    
C5    N25   A    
C1    O1    S    
O56   H72   S    
C64   C72   S    
C41   O13   S    
O53   H69   S    
C8    N28   A    
C53   O29   S    
N1    N6    A    
C75   C88   S    
C54   C72   S    
C2    C98   A    
O24   H40   S    
O43   H59   S    
C15   C33   S    
O41   H57   S    
