data_mof_unit_55321.cif
_audit_creation_date              2012-12-11T14:07:42-0500
_audit_creation_method            fapswitch 2.2
_symmetry_space_group_name_H-M    P1
_symmetry_Int_Tables_number       1
_space_group_crystal_system       triclinic
_cell_length_a                    19.876592
_cell_length_b                    17.121236
_cell_length_c                    15.481964
_cell_angle_alpha                 90.048942
_cell_angle_beta                  53.965867
_cell_angle_gamma                 90.108906
_cell_volume                      4260.61052136

loop_
_atom_site_label
_atom_site_type_symbol
_atom_type_description
_atom_site_fract_x
_atom_site_fract_y
_atom_site_fract_z
_atom_type_partial_charge
C1    C     C_R   0.371915 0.195169 0.999634 0.752652
C2    C     C_R   0.699507 0.845044 0.000376 0.051964
C3    C     C_R   0.202689 0.652567 0.994559 0.050632
C4    C     C_R   0.199385 0.344946 0.000585 0.052216
C5    C     C_R   0.638794 0.824747 0.685292 -0.347035
C6    C     C_R   0.633665 0.177490 0.687283 -0.338309
C7    C     C_R   0.138452 0.324602 0.685431 -0.346766
C8    C     C_R   0.133081 0.677730 0.687523 -0.337784
C9    C     C_3   0.306134 0.176167 0.504380 0.632208
C10   C     C_3   0.301149 0.826271 0.506191 0.629891
C11   C     C_3   0.806770 0.676519 0.504178 0.633415
C12   C     C_R   0.372933 0.804257 0.998068 0.752122
C13   C     C_3   0.802189 0.325698 0.505902 0.630903
C14   C     C_3   0.239771 0.215731 0.608422 -0.549877
C15   C     C_3   0.234229 0.787051 0.610318 -0.545586
C16   C     C_3   0.740558 0.716211 0.608197 -0.551399
C17   C     C_3   0.735264 0.286467 0.610021 -0.547200
C18   C     C_3   0.345722 0.307077 0.408771 -0.014575
C19   C     C_3   0.341706 0.694712 0.412148 -0.011238
C20   C     C_3   0.845971 0.807329 0.408409 -0.015475
C21   C     C_3   0.841958 0.194310 0.411476 -0.011522
C22   C     C_3   0.735880 0.720916 0.420030 -0.065446
C23   C     C_R   0.871925 0.695179 0.999623 0.752839
C24   C     C_3   0.732781 0.279865 0.420313 -0.065430
C25   C     C_3   0.235587 0.221017 0.419980 -0.065708
C26   C     C_3   0.232474 0.779464 0.420042 -0.064993
C27   C     C_3   0.320974 0.221670 0.406544 -0.125258
C28   C     C_3   0.317205 0.779724 0.408279 -0.124847
C29   C     C_3   0.821353 0.721824 0.406373 -0.125225
C30   C     C_3   0.817717 0.279538 0.408038 -0.124968
C31   C     C_3   0.703773 0.786148 0.585735 0.009416
C32   C     C_3   0.699037 0.215860 0.587520 0.001862
C33   C     C_3   0.203390 0.285981 0.585893 0.008720
C34   C     C_R   0.872882 0.304287 0.998123 0.752418
C35   C     C_3   0.198440 0.716117 0.587760 0.000997
C36   C     C_3   0.776284 0.845646 0.513652 0.609047
C37   C     C_3   0.771713 0.156387 0.516708 0.603624
C38   C     C_3   0.276143 0.345324 0.514126 0.608141
C39   C     C_3   0.271367 0.656793 0.517324 0.603356
C40   C     C_R   0.402856 0.800964 0.207769 0.283877
C41   C     C_R   0.404550 0.199320 0.206740 0.285250
C42   C     C_R   0.903089 0.300921 0.207629 0.283894
C43   C     C_R   0.904728 0.699355 0.206636 0.285134
C44   C     C_3   0.666493 0.755276 0.529001 -0.315600
C45   C     C_R   0.661013 0.909964 0.065408 -0.080418
C46   C     C_3   0.662737 0.245626 0.529218 -0.311323
C47   C     C_3   0.166218 0.255557 0.528829 -0.315721
C48   C     C_3   0.162311 0.745423 0.529047 -0.310941
C49   C     C_2   0.269970 0.694145 0.982354 -0.095864
C50   C     C_2   0.264466 0.302087 0.991201 -0.090008
C51   C     C_2   0.769664 0.194360 0.982849 -0.095233
C52   C     C_2   0.764704 0.802265 0.990836 -0.090384
C53   C     C_2   0.803711 0.255794 0.917178 -0.126582
C54   C     C_2   0.800633 0.742790 0.922103 -0.128636
C55   C     C_2   0.303861 0.755726 0.916928 -0.126262
C56   C     C_R   0.663076 0.088611 0.061696 -0.078664
C57   C     C_2   0.300535 0.242747 0.922269 -0.128555
C58   C     C_R   0.362462 0.890172 0.900591 -0.196714
C59   C     C_R   0.361409 0.109194 0.901931 -0.194963
C60   C     C_R   0.862402 0.390213 0.900660 -0.196935
C61   C     C_R   0.861442 0.609218 0.901893 -0.195456
C62   C     C_R   0.404298 0.104387 0.304589 -0.164447
C63   C     C_R   0.402688 0.896233 0.305495 -0.159346
C64   C     C_R   0.904464 0.604446 0.304498 -0.164849
C65   C     C_R   0.902940 0.396138 0.305356 -0.160533
C66   C     C_R   0.340761 0.183849 0.942209 -0.064559
C67   C     C_R   0.160917 0.409888 0.065572 -0.080507
C68   C     C_R   0.342641 0.815048 0.939455 -0.063018
C69   C     C_R   0.840810 0.683885 0.942140 -0.064477
C70   C     C_R   0.842542 0.315113 0.939586 -0.062994
C71   C     C_R   0.382182 0.819399 0.307952 0.056599
C72   C     C_R   0.385101 0.181472 0.306380 0.059999
C73   C     C_R   0.882629 0.319258 0.307721 0.057810
C74   C     C_R   0.885432 0.681577 0.306213 0.060438
C75   C     C_R   0.656117 0.181042 0.962057 -0.077354
C76   C     C_R   0.654179 0.817359 0.965661 -0.078700
C77   C     C_R   0.156225 0.680939 0.961836 -0.077022
C78   C     C_R   0.163191 0.588525 0.061485 -0.078619
C79   C     C_R   0.154129 0.317315 0.965748 -0.078695
C80   C     C_R   0.615775 0.806173 0.785937 0.633897
C81   C     C_R   0.612888 0.194978 0.787103 0.626481
C82   C     C_R   0.115575 0.306098 0.786020 0.633518
C83   C     C_R   0.112553 0.695094 0.787249 0.625654
C84   C     C_R   0.603063 0.103998 0.692222 0.819204
C85   C     C_R   0.606477 0.897362 0.690616 0.815631
C86   C     C_R   0.102731 0.604129 0.692386 0.819912
C87   C     C_R   0.106284 0.397283 0.690707 0.816664
C88   C     C_R   0.702519 0.152702 0.994875 0.050570
F1    F     F_    0.391833 0.265374 0.018290 -0.667504
F2    F     F_    0.607006 0.267021 0.827318 -0.670951
F3    F     F_    0.110824 0.233922 0.825061 -0.675112
F4    F     F_    0.106549 0.767106 0.827618 -0.670494
F5    F     F_    0.588046 0.074279 0.624021 -0.564521
F6    F     F_    0.593698 0.927312 0.620502 -0.560580
F7    F     F_    0.087763 0.574284 0.624195 -0.565043
F8    F     F_    0.093621 0.427356 0.620544 -0.561082
F9    F     F_    0.378406 0.168895 0.498054 -0.643572
F10   F     F_    0.372744 0.834428 0.501361 -0.645271
F11   F     F_    0.879176 0.669310 0.497537 -0.643544
F12   F     F_    0.393809 0.734427 0.015945 -0.670128
F13   F     F_    0.874018 0.333349 0.500614 -0.645055
F14   F     F_    0.891827 0.765365 0.018341 -0.667578
F15   F     F_    0.893745 0.234429 0.015938 -0.670020
F16   F     F_    0.749446 0.910937 0.489042 -0.576111
F17   F     F_    0.745251 0.090620 0.492093 -0.576493
F18   F     F_    0.249618 0.410984 0.489742 -0.576756
F19   F     F_    0.245241 0.590819 0.492620 -0.576706
F20   F     F_    0.611041 0.733976 0.824906 -0.675306
H1    H     H_    0.283120 0.116143 0.507259 0.023526
H2    H     H_    0.260861 0.768166 0.653258 0.230569
H3    H     H_    0.767825 0.736190 0.650004 0.229801
H4    H     H_    0.761945 0.267238 0.652763 0.230079
H5    H     H_    0.800999 0.866376 0.558079 0.039350
H6    H     H_    0.795754 0.136312 0.562114 0.038273
H7    H     H_    0.300877 0.365571 0.558722 0.039803
H8    H     H_    0.295230 0.637017 0.563048 0.038052
H9    H     H_    0.719571 0.659159 0.417252 0.127039
H10   H     H_    0.716676 0.341492 0.416894 0.127126
H11   H     H_    0.219119 0.159304 0.417288 0.127175
H12   H     H_    0.278286 0.886005 0.507768 0.023081
H13   H     H_    0.216254 0.840937 0.416104 0.126918
H14   H     H_    0.619233 0.709356 0.578707 0.167608
H15   H     H_    0.615118 0.291355 0.578038 0.167646
H16   H     H_    0.118640 0.209841 0.578424 0.167739
H17   H     H_    0.114630 0.791180 0.577527 0.167225
H18   H     H_    0.633105 0.802734 0.520045 0.278530
H19   H     H_    0.630052 0.197531 0.519811 0.279488
H20   H     H_    0.133246 0.303299 0.519616 0.278918
H21   H     H_    0.129736 0.697155 0.519742 0.279635
H22   H     H_    0.351738 0.340032 0.343118 0.207586
H23   H     H_    0.783699 0.616474 0.507316 0.023248
H24   H     H_    0.348696 0.661090 0.346282 0.207517
H25   H     H_    0.851998 0.840123 0.342647 0.207671
H26   H     H_    0.848512 0.160948 0.345710 0.207595
H27   H     H_    0.279829 0.681291 0.042471 0.216976
H28   H     H_    0.271912 0.312557 0.054063 0.213820
H29   H     H_    0.779329 0.181678 0.043189 0.216763
H30   H     H_    0.772315 0.812902 0.053518 0.214077
H31   H     H_    0.792696 0.268381 0.857795 0.145379
H32   H     H_    0.791291 0.731884 0.860778 0.145936
H33   H     H_    0.292701 0.768447 0.857711 0.145415
H34   H     H_    0.779513 0.385600 0.507841 0.023045
H35   H     H_    0.291337 0.231967 0.860790 0.145973
H36   H     H_    0.357057 0.915835 0.841089 0.180379
H37   H     H_    0.355420 0.083440 0.842915 0.180537
H38   H     H_    0.856975 0.415880 0.841180 0.180268
H39   H     H_    0.855474 0.583473 0.842854 0.180511
H40   H     H_    0.406396 0.071450 0.362410 0.179396
H41   H     H_    0.403994 0.929570 0.363719 0.179800
H42   H     H_    0.906613 0.571515 0.362287 0.179061
H43   H     H_    0.904398 0.429409 0.363513 0.179076
H44   H     H_    0.665055 0.233953 0.918984 0.182521
H45   H     H_    0.691410 0.672222 0.659509 0.242211
H46   H     H_    0.661941 0.763533 0.924818 0.187520
H47   H     H_    0.165234 0.733771 0.918589 0.182076
H48   H     H_    0.161882 0.263484 0.924907 0.187461
H49   H     H_    0.675744 0.936310 0.115689 0.135204
H50   H     H_    0.679147 0.061693 0.110187 0.133744
H51   H     H_    0.175572 0.436187 0.115958 0.135292
H52   H     H_    0.179344 0.561563 0.109867 0.133663
H53   H     H_    0.685839 0.330302 0.660654 0.240704
H54   H     H_    0.190411 0.171824 0.659433 0.241709
H55   H     H_    0.184567 0.830736 0.660791 0.240363
H56   H     H_    0.266840 0.235346 0.650616 0.230377
I1    I     I_    0.465081 0.321409 0.381929 -0.206815
I2    I     I_    0.470474 0.303411 0.125061 -0.140128
I3    I     I_    0.968046 0.196194 0.127766 -0.144112
I4    I     I_    0.970739 0.803361 0.124746 -0.139933
I5    I     I_    0.460129 0.681604 0.388042 -0.207465
I6    I     I_    0.965264 0.822001 0.381652 -0.207841
I7    I     I_    0.960604 0.180431 0.386595 -0.207475
I8    I     I_    0.729477 0.780480 0.300864 -0.239279
I9    I     I_    0.727677 0.219730 0.300337 -0.236346
I10   I     I_    0.229477 0.280587 0.300586 -0.240089
I11   I     I_    0.228004 0.718430 0.300094 -0.234509
I12   I     I_    0.467931 0.696220 0.128178 -0.144271
N1    N     N_R   0.408680 0.130160 0.995800 -0.122189
N2    N     N_R   0.403730 0.078230 0.935950 -0.090385
N3    N     N_R   0.903730 0.421770 0.935950 -0.089684
N4    N     N_R   0.903730 0.578230 0.935950 -0.090448
N5    N     N_R   0.426630 0.075970 0.212960 -0.080000
N6    N     N_R   0.426630 0.924030 0.212960 -0.080213
N7    N     N_R   0.926630 0.575970 0.212960 -0.079887
N8    N     N_R   0.926630 0.424030 0.212960 -0.079968
N9    N     N_R   0.591320 0.134600 0.004200 -0.047337
N10   N     N_R   0.591320 0.865400 0.004200 -0.048118
N11   N     N_R   0.091320 0.634600 0.004200 -0.047267
N12   N     N_R   0.408680 0.869840 0.995800 -0.121624
N13   N     N_R   0.091320 0.365400 0.004200 -0.048163
N14   N     N_R   0.578320 0.867660 0.846880 -0.160247
N15   N     N_R   0.578320 0.132340 0.846880 -0.161843
N16   N     N_R   0.078320 0.367660 0.846880 -0.160310
N17   N     N_R   0.078320 0.632340 0.846880 -0.161931
N18   N     N_R   0.573370 0.074390 0.787040 -0.183634
N19   N     N_R   0.573370 0.925610 0.787040 -0.183025
N20   N     N_R   0.073370 0.574390 0.787040 -0.183467
N21   N     N_R   0.073370 0.425610 0.787040 -0.182891
N22   N     N_R   0.596270 0.927870 0.064040 -0.057646
N23   N     N_R   0.908680 0.630160 0.995800 -0.122193
N24   N     N_R   0.596270 0.072130 0.064040 -0.057014
N25   N     N_R   0.096270 0.427870 0.064040 -0.057696
N26   N     N_R   0.096270 0.572130 0.064040 -0.056985
N27   N     N_R   0.908680 0.369840 0.995800 -0.121633
N28   N     N_R   0.421680 0.867580 0.153120 -0.089717
N29   N     N_R   0.421680 0.132420 0.153120 -0.090101
N30   N     N_R   0.921680 0.367580 0.153120 -0.089606
N31   N     N_R   0.921680 0.632420 0.153120 -0.090056
N32   N     N_R   0.403730 0.921770 0.935950 -0.089615
Ni1   Ni    Ni4+2 0.500000 0.131190 0.000000 0.310696
Ni2   Ni    Ni4+2 0.500000 0.868810 0.000000 0.310272
Ni3   Ni    Ni4+2 0.000000 0.631190 0.000000 0.310840
Ni4   Ni    Ni4+2 0.000000 0.368810 0.000000 0.310317
Ni5   Ni    Ni4+2 0.488650 1.000000 0.862740 0.262039
Ni6   Ni    Ni4+2 0.988650 0.500000 0.862740 0.262091
Ni7   Ni    Ni4+2 0.511350 1.000000 0.137260 0.234686
Ni8   Ni    Ni4+2 0.011350 0.500000 0.137260 0.234652

loop_
_geom_bond_atom_site_label_1
_geom_bond_atom_site_label_2
_ccdc_geom_bond_type
C22   H9    S    
C20   I6    S    
C14   H54   S    
N32   Ni5   S    
C55   H33   S    
C40   C71   A    
C8    C83   A    
N7    N31   A    
C23   C69   A    
C6    C32   S    
C57   C66   S    
N18   Ni5   S    
C55   C68   S    
C3    C49   S    
C16   H3    S    
C65   C73   A    
C47   H20   S    
C81   N15   A    
C43   I4    S    
C16   C31   S    
C39   F19   S    
C83   F4    S    
C12   C68   A    
N11   N26   A    
C44   H18   S    
N6    N28   A    
C15   H55   S    
C22   C29   S    
C10   C15   S    
C59   C66   A    
C56   C88   A    
C23   F14   S    
C53   C70   S    
C61   C69   A    
C12   N12   A    
C23   N23   A    
C19   H24   S    
N24   Ni7   S    
N8    N30   A    
C21   C37   S    
C11   F11   S    
C11   C16   S    
N1    Ni1   S    
C10   F10   S    
N16   Ni4   S    
C63   H41   S    
C56   H50   S    
C86   N20   A    
C79   H48   S    
C64   N7    A    
C1    N1    A    
C25   I10   S    
N5    N29   A    
C22   C44   S    
C40   N28   A    
C84   N18   A    
C52   H30   S    
C26   H13   S    
C60   C70   A    
C20   H25   S    
C22   I8    S    
C34   N27   A    
C8    C86   A    
C26   C48   S    
C46   H15   S    
C17   H53   S    
C5    C85   A    
C43   C74   A    
C48   H17   S    
C63   N6    A    
C62   H40   S    
C41   I2    S    
N31   Ni3   S    
C7    C33   S    
C15   H2    S    
N29   Ni1   S    
C75   N9    A    
C60   H38   S    
C14   C33   S    
C36   H5    S    
C25   H11   S    
C15   C35   S    
C18   I1    S    
C52   C54   D    
C20   C29   S    
C61   H39   S    
C2    C45   A    
C9    H1    S    
C54   H32   S    
C6    C84   A    
C31   C44   S    
C57   H35   S    
C43   N31   A    
C41   N29   A    
C19   I5    S    
C13   C30   S    
C45   H49   S    
C4    C79   A    
C40   I12   S    
C30   C73   S    
C34   C70   A    
C85   N19   A    
C76   N10   A    
C6    C81   A    
C37   H6    S    
N8    Ni8   S    
N13   N25   A    
C45   N22   A    
C21   I7    S    
C82   F3    S    
C49   H27   S    
C64   H42   S    
C65   H43   S    
C60   N3    A    
C8    C35   S    
C38   F18   S    
C35   C39   S    
C9    C14   S    
N25   Ni8   S    
C37   F17   S    
C67   N25   A    
C58   H36   S    
N20   Ni6   S    
C85   F6    S    
C46   H19   S    
C4    C50   S    
C58   N32   A    
C75   H44   S    
N17   N20   A    
C87   F8    S    
C1    C66   A    
C62   C72   A    
N5    Ni7   S    
C32   C37   S    
C5    C80   A    
C19   C28   S    
C35   C48   S    
C63   C71   A    
C19   C39   S    
N14   N19   A    
N15   Ni1   S    
C41   C72   A    
C9    F9    S    
C81   F2    S    
C51   H29   S    
C58   C68   A    
N11   Ni3   S    
N3    N27   A    
N10   Ni2   S    
N26   Ni8   S    
N6    Ni7   S    
C77   N11   A    
N9    Ni1   S    
N27   Ni4   S    
C18   H22   S    
C28   C71   S    
C87   N21   A    
C13   F13   S    
C3    C77   A    
C17   H4    S    
C59   H37   S    
C21   H26   S    
C2    C76   A    
C42   I3    S    
C9    C27   S    
C80   N14   A    
C10   C28   S    
N7    Ni8   S    
C25   C47   S    
N12   N32   A    
C42   C73   A    
C1    F1    S    
N2    Ni5   S    
C82   N16   A    
N14   Ni2   S    
C50   C57   D    
C32   C46   S    
C59   N2    A    
C18   C27   S    
C78   N26   A    
N22   Ni7   S    
N13   Ni4   S    
C11   H23   S    
C51   C88   S    
C4    C67   A    
C67   H51   S    
C29   C74   S    
C25   C27   S    
C21   C30   S    
C80   F20   S    
C26   C28   S    
C34   F15   S    
C2    C52   S    
C13   C17   S    
C36   F16   S    
C24   C46   S    
N4    Ni6   S    
C18   C38   S    
N15   N18   A    
N4    N23   A    
C49   C55   D    
N16   N21   A    
C62   N5    A    
C38   H7    S    
C47   H16   S    
C54   C69   S    
C5    C31   S    
C26   I11   S    
C53   H31   S    
C33   C47   S    
C78   H52   S    
N3    Ni6   S    
C44   H14   S    
C24   H10   S    
C76   H46   S    
C42   N30   A    
N23   Ni3   S    
C84   F5    S    
N9    N24   A    
C14   H56   S    
C48   H21   S    
C24   C30   S    
C12   F12   S    
N17   Ni3   S    
C10   H12   S    
C86   F7    S    
N21   Ni6   S    
C20   C36   S    
N30   Ni4   S    
C75   C88   A    
C7    C82   A    
C7    C87   A    
C11   C29   S    
C61   N4    A    
N1    N2    A    
C79   N13   A    
N28   Ni2   S    
C16   H45   S    
C39   H8    S    
C17   C32   S    
C64   C74   A    
C31   C36   S    
N10   N22   A    
C33   C38   S    
C50   H28   S    
C51   C53   D    
C3    C78   A    
N12   Ni2   S    
C77   H47   S    
C27   C72   S    
N19   Ni5   S    
C24   I9    S    
C83   N17   A    
C56   N24   A    
C65   N8    A    
C13   H34   S    
