data_mof_unit_13490.cif
_audit_creation_date              2012-12-11T17:34:16-0500
_audit_creation_method            fapswitch 2.2
_symmetry_space_group_name_H-M    P1
_symmetry_Int_Tables_number       1
_space_group_crystal_system       triclinic
_cell_length_a                    23.790497
_cell_length_b                    7.225345
_cell_length_c                    20.648491
_cell_angle_alpha                 89.999294
_cell_angle_beta                  105.423667
_cell_angle_gamma                 89.999802
_cell_volume                      3421.53496275

loop_
_atom_site_label
_atom_site_type_symbol
_atom_type_description
_atom_site_fract_x
_atom_site_fract_y
_atom_site_fract_z
_atom_type_partial_charge
O1    O     O_R   0.449110 0.494310 0.552140 -0.537758
O2    O     O_R   0.550890 0.994310 0.447860 -0.537757
O3    O     O_R   0.440010 0.824420 0.415850 -0.533726
O4    O     O_R   0.559990 0.324420 0.584150 -0.533725
C1    C     C_R   0.425311 0.655743 0.391011 0.682911
C2    C     C_R   0.574689 0.155741 0.608989 0.682911
O5    O     O_R   0.442260 0.824040 0.549660 -0.540279
O6    O     O_R   0.557740 0.324040 0.450340 -0.540280
O7    O     O_R   0.553160 0.993960 0.582620 -0.531394
O8    O     O_R   0.446840 0.493960 0.417380 -0.531393
C3    C     C_R   0.428656 0.655345 0.567621 0.678126
C4    C     C_R   0.571344 0.155345 0.432379 0.678124
O9    O     O_3   0.536380 0.660670 0.510660 -0.372916
O10   O     O_3   0.463620 0.160670 0.489340 -0.372916
V1    V     V_3+5 0.493250 0.935680 0.498020 1.408045
V2    V     V_3+5 0.506750 0.435680 0.501980 1.408044
C5    C     C_R   0.817428 0.918022 0.163510 -0.170603
C6    C     C_R   0.182570 0.418022 0.836489 -0.170607
H1    H     H_    0.795251 0.794776 0.173526 0.155855
H2    H     H_    0.204747 0.294775 0.826473 0.155857
C7    C     C_R   0.856860 0.903853 0.123857 -0.163280
C8    C     C_R   0.143139 0.403853 0.876142 -0.163280
H3    H     H_    0.864167 0.769435 0.104370 0.147307
H4    H     H_    0.135832 0.269434 0.895629 0.147305
C9    C     C_R   0.886216 0.061277 0.109498 -0.110408
C10   C     C_R   0.113784 0.561279 0.890502 -0.110405
C11   C     C_R   0.874953 0.232891 0.136075 -0.164540
C12   C     C_R   0.125048 0.732893 0.863925 -0.164545
H5    H     H_    0.896842 0.356990 0.126164 0.138410
H6    H     H_    0.103159 0.856993 0.873837 0.138408
C13   C     C_R   0.835835 0.248624 0.176174 0.234243
C14   C     C_R   0.164166 0.748626 0.823826 0.234246
C15   C     C_R   0.806593 0.088961 0.190158 0.082143
C16   C     C_R   0.193406 0.588962 0.809841 0.082145
C17   C     C_1   0.766118 0.097143 0.231951 -0.056496
C18   C     C_1   0.233881 0.597144 0.768048 -0.056495
C19   C     C_1   0.732583 0.106984 0.266985 -0.062998
C20   C     C_1   0.267416 0.606984 0.733015 -0.062998
C21   C     C_R   0.669744 0.959196 0.330116 -0.139194
C22   C     C_R   0.330257 0.459195 0.669887 -0.139194
H7    H     H_    0.681950 0.824269 0.315380 0.106503
H8    H     H_    0.318054 0.324268 0.684626 0.106503
C23   C     C_R   0.630810 0.970934 0.370346 -0.169146
C24   C     C_R   0.369192 0.470933 0.629658 -0.169146
H9    H     H_    0.613994 0.843476 0.385483 0.125351
H10   H     H_    0.386010 0.343475 0.614524 0.125350
C25   C     C_R   0.613755 0.144226 0.390420 -0.052121
C26   C     C_R   0.386245 0.644225 0.609580 -0.052120
C27   C     C_R   0.637149 0.305288 0.369077 -0.168177
C28   C     C_R   0.362849 0.805287 0.630919 -0.168177
H11   H     H_    0.625204 0.441065 0.383210 0.121888
H12   H     H_    0.374792 0.941064 0.616784 0.121888
C29   C     C_R   0.676142 0.293037 0.328749 -0.137665
C30   C     C_R   0.323855 0.793036 0.671247 -0.137665
H13   H     H_    0.693389 0.418858 0.312860 0.104695
H14   H     H_    0.306607 0.918856 0.687133 0.104695
C31   C     C_R   0.692547 0.119951 0.308966 0.132496
C32   C     C_R   0.307452 0.619950 0.691033 0.132497
C33   C     C_R   0.642395 0.193535 0.795230 -0.157391
C34   C     C_R   0.357601 0.693610 0.204772 -0.157393
H15   H     H_    0.556296 0.221860 0.729720 0.107270
H16   H     H_    0.443699 0.721940 0.270282 0.107272
H17   H     H_    0.726813 0.192763 0.908636 0.129415
H18   H     H_    0.273182 0.692868 0.091368 0.129415
H19   H     H_    0.627774 0.225381 0.839407 0.116118
H20   H     H_    0.372220 0.725490 0.160596 0.116118
C35   C     C_R   0.618579 0.149677 0.674792 -0.034923
C36   C     C_R   0.381420 0.649689 0.325208 -0.034927
C37   C     C_R   0.901922 0.014241 0.768215 -0.159514
C38   C     C_R   0.098081 0.514187 0.231783 -0.159510
C39   C     C_R   0.863530 0.010135 0.704386 -0.119372
C40   C     C_R   0.136474 0.510061 0.295612 -0.119374
C41   C     C_R   0.804253 0.043755 0.695301 -0.156791
C42   C     C_R   0.195750 0.543701 0.304697 -0.156791
C43   C     C_R   0.781524 0.083279 0.750501 0.077201
C44   C     C_R   0.218477 0.583267 0.249499 0.077201
C45   C     C_R   0.821507 0.089366 0.816148 0.068098
C46   C     C_R   0.178493 0.589376 0.183853 0.068099
C47   C     C_R   0.720554 0.116605 0.742735 0.073025
C48   C     C_R   0.279446 0.616613 0.257265 0.073025
C49   C     C_R   0.701477 0.157211 0.800832 0.136219
C50   C     C_R   0.298521 0.657262 0.199169 0.136220
C51   C     C_R   0.741358 0.162258 0.864293 -0.196604
C52   C     C_R   0.258638 0.662329 0.135710 -0.196604
C53   C     C_R   0.800284 0.128489 0.871949 -0.190577
C54   C     C_R   0.199714 0.628540 0.128053 -0.190580
C55   C     C_R   0.677631 0.112057 0.679593 -0.212965
C56   C     C_R   0.322370 0.612042 0.320406 -0.212967
C57   C     C_R   0.601514 0.191097 0.732814 -0.164130
C58   C     C_R   0.398483 0.691154 0.267188 -0.164127
C59   C     C_R   0.881943 0.054081 0.824505 -0.078474
C60   C     C_R   0.118058 0.554069 0.175495 -0.078479
H21   H     H_    0.688583 0.082427 0.633274 0.094638
H22   H     H_    0.311419 0.582380 0.366724 0.094641
H23   H     H_    0.947696 0.985692 0.773811 0.103444
H24   H     H_    0.052308 0.485619 0.226187 0.103446
H25   H     H_    0.777393 0.037565 0.644355 0.108828
H26   H     H_    0.222611 0.537494 0.355642 0.108828
H27   H     H_    0.879855 0.979554 0.661366 0.119405
H28   H     H_    0.120151 0.479448 0.338631 0.119405
H29   H     H_    0.829222 0.133718 0.922215 0.114247
H30   H     H_    0.170774 0.633786 0.077787 0.114254
O11   O     O_R   0.053190 0.709680 0.082610 -0.531510
O12   O     O_R   0.946810 0.209680 0.917390 -0.531510
O13   O     O_R   0.057740 0.380240 0.950340 -0.538910
O14   O     O_R   0.942260 0.880240 0.049660 -0.538911
C61   C     C_R   0.071351 0.549090 0.932406 0.687580
C62   C     C_R   0.928649 0.049089 0.067594 0.687578
O15   O     O_R   0.060000 0.379940 0.084150 -0.533080
O16   O     O_R   0.940000 0.879940 0.915850 -0.533080
O17   O     O_R   0.949110 0.210100 0.052140 -0.538982
O18   O     O_R   0.050890 0.710100 0.947860 -0.538983
C63   C     C_R   0.074736 0.548246 0.109001 0.675453
C64   C     C_R   0.925264 0.048249 0.890999 0.675454
O19   O     O_3   0.963630 0.543720 0.989330 -0.372081
O20   O     O_3   0.036370 0.043720 0.010670 -0.372082
V3    V     V_3+5 0.006750 0.268680 0.001980 1.413811
V4    V     V_3+5 0.993250 0.768680 0.998020 1.413809
N1    N     N_3   0.827059 0.428905 0.201351 -0.699420
H31   H     H_    0.865547 0.465966 0.236975 0.221471
H32   H     H_    0.793943 0.429071 0.225847 0.231233
N2    N     N_3   0.172942 0.928908 0.798649 -0.699420
H33   H     H_    0.134453 0.965982 0.763028 0.221470
H34   H     H_    0.206055 0.929071 0.774148 0.231232

loop_
_geom_bond_atom_site_label_1
_geom_bond_atom_site_label_2
_ccdc_geom_bond_type
C11   H5    S    
C61   O18   A    
O1    C3    A    
O2    C4    A    
O16   V4    S    
C2    O7    A    
C47   C55   A    
O15   V3    S    
C25   C27   A    
C41   H25   S    
O13   C61   A    
C28   C30   A    
C42   C44   A    
C17   C19   T    
C44   C46   A    
C1    C36   S    
C40   H28   S    
C21   C31   A    
C55   H21   S    
C35   C57   A    
O20   V3    S    
C33   C57   A    
C37   C39   A    
H18   C52   S    
C53   H29   S    
C5    H1    S    
C20   C32   S    
C34   C50   A    
C24   H10   S    
C27   H11   S    
C36   C58   A    
C13   C15   A    
C23   C25   A    
C60   C63   S    
O16   C64   A    
C16   C18   S    
O15   C63   A    
C46   C54   A    
C26   C28   A    
C34   H20   S    
O6    V2    S    
O14   V4    S    
C41   C43   A    
O13   V3    S    
C3    C26   S    
C5    C15   A    
C4    C25   S    
C49   C51   A    
H15   C57   S    
O5    C3    A    
C56   H22   S    
C29   H13   S    
C30   H14   S    
C22   C32   A    
C11   C13   A    
C14   N2    S    
C12   C14   A    
C40   C42   A    
C39   C41   A    
C29   C31   A    
C21   C23   A    
O5    V1    S    
O3    C1    A    
C39   H27   S    
C5    C7    A    
H17   C51   S    
C14   C16   A    
O4    V2    S    
C38   H24   S    
C43   C45   A    
C28   H12   S    
O6    C4    A    
O19   V4    S    
O1    V2    S    
O2    V1    S    
C6    C16   A    
C13   N1    S    
N1    H32   S    
O12   C64   A    
C48   C50   A    
C2    C35   S    
C51   C53   A    
C50   C52   A    
C7    H3    S    
C36   C56   A    
C8    H4    S    
O4    C2    A    
C44   C48   A    
N2    H34   S    
C18   C20   T    
C54   H30   S    
O3    V1    S    
C47   C49   A    
O12   V3    S    
C30   C32   A    
C7    C9    A    
C45   C59   A    
C42   H26   S    
O11   C63   A    
C6    C8    A    
C10   C12   A    
C38   C60   A    
C33   C49   A    
C52   C54   A    
C37   H23   S    
C10   C61   S    
N1    H31   S    
C62   O17   A    
C34   C58   A    
C9    C11   A    
C35   C55   A    
C59   C64   S    
O17   V3    S    
C46   C60   A    
C12   H6    S    
O7    V1    S    
C1    O8    A    
C48   C56   A    
O8    V2    S    
C33   H19   S    
O18   V4    S    
O14   C62   A    
C27   C29   A    
H16   C58   S    
C22   H8    S    
C15   C17   S    
C6    H2    S    
C45   C53   A    
O11   V4    S    
C22   C24   A    
C21   H7    S    
C8    C10   A    
O9    V2    S    
O10   V1    S    
C38   C40   A    
N2    H33   S    
C37   C59   A    
C43   C47   A    
C23   H9    S    
C19   C31   S    
C24   C26   A    
C9    C62   S    
