data_mof_unit_44117.cif
_audit_creation_date              2012-12-11T14:56:00-0500
_audit_creation_method            fapswitch 2.2
_symmetry_space_group_name_H-M    P1
_symmetry_Int_Tables_number       1
_space_group_crystal_system       triclinic
_cell_length_a                    27.927203
_cell_length_b                    17.314121
_cell_length_c                    18.11836
_cell_angle_alpha                 90.13611
_cell_angle_beta                  138.159954
_cell_angle_gamma                 89.905622
_cell_volume                      5843.94485439

loop_
_atom_site_label
_atom_site_type_symbol
_atom_type_description
_atom_site_fract_x
_atom_site_fract_y
_atom_site_fract_z
_atom_type_partial_charge
C1    C     C_R   0.688770 0.897675 0.798729 -0.091790
C2    C     C_3   0.194298 0.676287 0.021317 0.881586
C3    C     C_3   0.707597 0.732780 0.940092 -0.417358
C4    C     C_3   0.182789 0.773558 0.931511 -0.438070
C5    C     C_3   0.794650 0.191482 0.099097 -0.428482
C6    C     C_3   0.836384 0.717316 0.020323 -0.395724
C7    C     C_3   0.222071 0.180994 0.888155 -0.429457
C8    C     C_3   0.188948 0.764827 0.023210 -0.159825
C9    C     C_3   0.757044 0.219006 0.984879 -0.153638
C10   C     C_3   0.762470 0.692081 0.902974 -0.143263
C11   C     C_3   0.227520 0.190106 0.979156 -0.155979
C12   C     C_3   0.702243 0.231108 0.058093 -0.155023
C13   C     C_3   0.234119 0.277564 0.979279 0.855543
C14   C     C_3   0.271384 0.689808 0.020102 -0.156676
C15   C     C_3   0.310553 0.264993 0.977428 -0.161653
C16   C     C_3   0.780150 0.759334 0.055084 -0.140503
C17   C     C_3   0.270806 0.769110 0.110883 -0.145925
C18   C     C_3   0.686809 0.181893 0.931256 -0.123005
C19   C     C_3   0.729546 0.768703 0.890969 -0.119597
C20   C     C_3   0.309743 0.185106 0.068301 -0.133527
C21   C     C_3   0.771872 0.267720 0.109850 -0.127758
C22   C     C_3   0.189167 0.684821 0.931395 -0.133637
C23   C     C_3   0.228669 0.269295 0.889307 -0.143316
C24   C     C_3   0.741520 0.656300 0.953470 0.823128
C25   C     C_3   0.813664 0.682283 0.068960 -0.122960
C26   C     C_R   0.146086 0.805272 0.032728 0.195907
C27   C     C_R   0.165045 0.796325 0.128991 -0.119907
C28   C     C_R   0.126308 0.834566 0.139657 -0.109911
C29   C     C_R   0.068021 0.881347 0.053916 -0.067113
C30   C     C_R   0.048455 0.889948 0.957466 -0.128607
C31   C     C_R   0.087513 0.852415 0.946924 -0.133512
C32   C     C_R   0.796185 0.211861 0.957065 0.169176
C33   C     C_R   0.800767 0.274655 0.913528 -0.108438
C34   C     C_R   0.847228 0.271777 0.906384 -0.154554
C35   C     C_3   0.264828 0.777240 0.020334 0.856239
C36   C     C_R   0.888237 0.205682 0.940083 -0.033331
C37   C     C_R   0.881868 0.141784 0.979094 -0.090237
C38   C     C_R   0.836343 0.144870 0.988044 -0.181048
C39   C     C_R   0.748597 0.657087 0.812325 0.200508
C40   C     C_R   0.679718 0.629959 0.715333 -0.084611
C41   C     C_R   0.665606 0.600082 0.628838 -0.156992
C42   C     C_R   0.720177 0.596902 0.638685 -0.084225
C43   C     C_R   0.789057 0.623055 0.735370 -0.081769
C44   C     C_R   0.803337 0.653111 0.821983 -0.150648
C45   C     C_R   0.177131 0.154188 0.976500 0.172711
C46   C     C_3   0.723870 0.154861 0.044588 0.851181
C47   C     C_R   0.176085 0.180953 0.048526 -0.107794
C48   C     C_R   0.125380 0.152352 0.040117 -0.103636
C49   C     C_R   0.076746 0.095477 0.962103 -0.089866
C50   C     C_R   0.078499 0.067293 0.891853 -0.130946
C51   C     C_R   0.128278 0.096611 0.898620 -0.158948
C52   C     C_R   0.677129 0.236014 0.107895 0.203077
C53   C     C_R   0.725662 0.221709 0.221350 -0.125815
C54   C     C_R   0.702859 0.225719 0.268597 -0.109618
C55   C     C_R   0.631268 0.242832 0.202607 -0.056522
C56   C     C_R   0.582519 0.256138 0.089418 -0.113869
C57   C     C_3   0.801749 0.794088 0.005653 0.806724
C58   C     C_R   0.605339 0.253308 0.042120 -0.130598
C59   C     C_R   0.321630 0.654032 0.022269 0.176175
C60   C     C_R   0.321049 0.679477 0.948074 -0.111983
C61   C     C_R   0.371543 0.651115 0.955789 -0.102181
C62   C     C_R   0.421750 0.595957 0.035559 -0.081575
C63   C     C_R   0.421732 0.569189 0.108183 -0.137559
C64   C     C_R   0.372035 0.598134 0.101884 -0.156253
C65   C     C_R   0.353147 0.306262 0.968047 0.199627
C66   C     C_R   0.332730 0.299934 0.870220 -0.120014
C67   C     C_R   0.369836 0.340856 0.858432 -0.120858
C68   C     C_3   0.305117 0.176482 0.978853 0.880217
C69   C     C_R   0.428107 0.387503 0.944718 -0.097936
C70   C     C_R   0.449739 0.392676 0.043250 -0.142746
C71   C     C_R   0.412136 0.352706 0.054796 -0.134588
C72   C     C_R   0.789110 0.805169 0.135791 0.188499
C73   C     C_R   0.852492 0.847373 0.220909 -0.094363
C74   C     C_R   0.857662 0.898157 0.286629 -0.147032
C75   C     C_R   0.799508 0.907728 0.267524 -0.014129
C76   C     C_R   0.736907 0.864667 0.185033 -0.059515
C77   C     C_R   0.731729 0.813293 0.119699 -0.138287
C78   C     C_R   0.607101 0.859556 0.349171 -0.047779
C79   C     C_R   0.280718 0.241429 0.379687 -0.064357
C80   C     C_R   0.392629 0.858056 0.650072 -0.052343
C81   C     C_R   0.329740 0.079613 0.182611 -0.109165
C82   C     C_R   0.718273 0.240577 0.615944 -0.056116
C83   C     C_R   0.106997 0.357738 0.349261 -0.054409
C84   C     C_R   0.785094 0.743459 0.390187 -0.045677
C85   C     C_R   0.893897 0.358400 0.651547 -0.041043
C86   C     C_R   0.218840 0.741341 0.619134 -0.064900
C87   C     C_R   0.257146 0.373504 0.391098 -0.085530
C88   C     C_R   0.600788 0.756626 0.251428 -0.119613
C89   C     C_R   0.742392 0.372767 0.606577 -0.120863
C90   C     C_R   0.399752 0.751888 0.744169 -0.102210
C91   C     C_R   0.765444 0.873224 0.414567 -0.149943
C92   C     C_R   0.311113 0.897514 0.201549 -0.070086
C93   C     C_R   0.099478 0.251944 0.253756 -0.118369
C94   C     C_R   0.242270 0.873428 0.608009 -0.084526
C95   C     C_R   0.899641 0.250842 0.742398 -0.139002
C96   C     C_R   0.301128 0.319759 0.407077 -0.278057
C97   C     C_R   0.571108 0.795508 0.277191 -0.252062
C98   C     C_R   0.698204 0.319017 0.589778 -0.289262
C99   C     C_R   0.429431 0.793676 0.720805 -0.271313
C100  C     C_R   0.810227 0.818518 0.434747 -0.297258
C101  C     C_R   0.070070 0.293426 0.278019 -0.264469
C102  C     C_R   0.198467 0.819695 0.592299 -0.276294
C103  C     C_R   0.668064 0.077949 0.816962 -0.107247
C104  C     C_R   0.930294 0.293526 0.721366 -0.244048
C105  C     C_R   0.209764 0.221044 0.316725 0.658869
C106  C     C_R   0.661224 0.895295 0.369974 0.706158
C107  C     C_R   0.788737 0.219695 0.677077 0.690605
C108  C     C_R   0.339037 0.892822 0.631903 0.700059
C109  C     C_R   0.711453 0.727313 0.313974 0.681532
C110  C     C_R   0.160342 0.392719 0.367142 0.697627
C111  C     C_R   0.289527 0.720840 0.680965 0.658716
C112  C     C_R   0.840224 0.392954 0.633240 0.689690
C113  C     C_R   0.165765 0.274826 0.301237 -0.073461
C114  C     C_R   0.188837 0.397503 0.798488 -0.071193
C115  C     C_R   0.696677 0.851689 0.357479 -0.088174
C116  C     C_R   0.833091 0.273589 0.694060 -0.104199
C117  C     C_R   0.306740 0.849202 0.650369 -0.094511
C118  C     C_R   0.668259 0.779455 0.302917 -0.093462
C119  C     C_R   0.192579 0.349246 0.348301 -0.095093
C120  C     C_R   0.333488 0.774715 0.696788 -0.077000
C121  C     C_R   0.806960 0.348545 0.649313 -0.094353
C122  C     C_R   0.324783 0.103043 0.404354 -0.075525
C123  C     C_R   0.638659 0.930683 0.506402 -0.094331
C124  C     C_R   0.674955 0.102863 0.594658 -0.068141
C125  C     C_R   0.830116 0.579158 0.182620 -0.086194
C126  C     C_R   0.361421 0.930867 0.493930 -0.104536
C127  C     C_R   0.825537 0.603648 0.407520 -0.089604
C128  C     C_R   0.138559 0.430634 0.506041 -0.104294
C129  C     C_R   0.175158 0.603071 0.595548 -0.076071
C130  C     C_R   0.861855 0.430959 0.494613 -0.102215
C131  C     C_R   0.444310 0.837142 0.581616 -0.130363
C132  C     C_R   0.592194 0.195758 0.503196 -0.143067
C133  C     C_R   0.555379 0.837352 0.417602 -0.118396
C134  C     C_R   0.407352 0.196029 0.495353 -0.148066
C135  C     C_R   0.944671 0.337239 0.581975 -0.133060
C136  C     C_R   0.811391 0.397043 0.201039 -0.038188
C137  C     C_R   0.092479 0.695962 0.504384 -0.148280
C138  C     C_R   0.055791 0.336840 0.418426 -0.127564
C139  C     C_R   0.908654 0.696080 0.497427 -0.135356
C140  C     C_R   0.584710 0.171736 0.726287 -0.126283
C141  C     C_R   0.393830 0.805353 0.290360 -0.101407
C142  C     C_R   0.413663 0.172625 0.273010 -0.123588
C143  C     C_R   0.606108 0.805526 0.710073 -0.163098
C144  C     C_R   0.085675 0.672707 0.726492 -0.124811
C145  C     C_R   0.894741 0.305510 0.289876 -0.156815
C146  C     C_R   0.915935 0.669848 0.273247 -0.138671
C147  C     C_R   0.169247 0.579122 0.817155 -0.110847
C148  C     C_R   0.106089 0.305361 0.709313 -0.101235
C149  C     C_R   0.677704 0.821083 0.799930 0.131923
C150  C     C_R   0.353573 0.142372 0.170143 0.174856
C151  C     C_R   0.322155 0.820669 0.202312 0.128287
C152  C     C_R   0.643332 0.140107 0.828874 0.157718
C153  C     C_R   0.177705 0.320685 0.797664 0.126971
C154  C     C_R   0.855810 0.639840 0.170500 0.134655
C155  C     C_R   0.823337 0.320645 0.199986 0.122116
C156  C     C_R   0.145173 0.641996 0.829383 0.176558
C157  C     C_R   0.335681 0.181784 0.428081 0.127005
C158  C     C_3   0.734094 0.294101 0.996132 0.832972
C159  C     C_R   0.600045 0.876466 0.420533 0.108697
C160  C     C_R   0.663650 0.181294 0.569445 0.123179
C161  C     C_R   0.399646 0.876191 0.578953 0.111965
C162  C     C_R   0.837643 0.682400 0.432968 0.126709
C163  C     C_R   0.100310 0.375818 0.420915 0.110894
C164  C     C_R   0.164078 0.681713 0.571386 0.127368
C165  C     C_R   0.900423 0.376460 0.579907 0.111478
C166  C     C_3   0.663409 0.258043 0.942382 -0.410394
C167  C     C_3   0.277318 0.680816 0.111576 -0.430352
C168  C     C_3   0.316190 0.273861 0.068606 -0.438023
F1    F     F_    0.738802 0.368044 0.973127 -0.696913
F2    F     F_    0.186140 0.147149 0.284439 -0.752560
F3    F     F_    0.311547 0.963000 0.582724 -0.722240
F4    F     F_    0.812433 0.145858 0.709533 -0.746525
F5    F     F_    0.187767 0.462939 0.416560 -0.722294
F6    F     F_    0.683024 0.658723 0.259884 -0.745193
F7    F     F_    0.813549 0.463744 0.585861 -0.742457
F8    F     F_    0.312844 0.646772 0.711660 -0.750182
F9    F     F_    0.156091 0.622969 0.018349 -0.677280
F10   F     F_    0.196511 0.331257 0.977599 -0.695338
F11   F     F_    0.710361 0.584325 0.925750 -0.690791
F12   F     F_    0.302187 0.830773 0.021522 -0.694246
F13   F     F_    0.717240 0.081823 0.066915 -0.695547
F14   F     F_    0.833558 0.865560 0.032644 -0.732285
F15   F     F_    0.343549 0.123130 0.982122 -0.676864
F16   F     F_    0.686864 0.966177 0.417810 -0.726142
H1    H     H_    0.739727 0.926436 0.849988 0.155568
H2    H     H_    0.074917 0.197578 0.209875 0.183073
H3    H     H_    0.222128 0.931457 0.576518 0.191228
H4    H     H_    0.923654 0.195978 0.784658 0.185263
H5    H     H_    0.277312 0.431507 0.423038 0.192801
H6    H     H_    0.575990 0.703302 0.204636 0.188501
H7    H     H_    0.722573 0.430931 0.575883 0.178606
H8    H     H_    0.424182 0.697413 0.787463 0.189477
H9    H     H_    0.274133 0.073875 0.339674 0.178192
H10   H     H_    0.679207 0.969804 0.533671 0.189741
H11   H     H_    0.725732 0.074039 0.659580 0.177912
H12   H     H_    0.282255 0.045369 0.118357 0.121399
H13   H     H_    0.321429 0.970441 0.468009 0.191286
H14   H     H_    0.774440 0.574640 0.346640 0.179428
H15   H     H_    0.178535 0.470172 0.532003 0.191948
H16   H     H_    0.225893 0.574143 0.660472 0.177658
H17   H     H_    0.821897 0.470371 0.469020 0.182856
H18   H     H_    0.481568 0.791528 0.636855 0.104640
H19   H     H_    0.566910 0.251358 0.481172 0.089268
H20   H     H_    0.517772 0.792139 0.361238 0.106489
H21   H     H_    0.432552 0.251579 0.516816 0.094657
H22   H     H_    0.981997 0.291639 0.637142 0.108190
H23   H     H_    0.259877 0.926322 0.148227 0.095637
H24   H     H_    0.067191 0.751507 0.482778 0.090614
H25   H     H_    0.018692 0.291039 0.363249 0.105479
H26   H     H_    0.933816 0.751356 0.516992 0.087251
H27   H     H_    0.555436 0.223558 0.706900 0.109860
H28   H     H_    0.418868 0.748975 0.318783 0.087802
H29   H     H_    0.443630 0.223698 0.292423 0.102280
H30   H     H_    0.580833 0.749351 0.682171 0.099809
H31   H     H_    0.056219 0.724400 0.706959 0.102248
H32   H     H_    0.920002 0.249297 0.319797 0.099563
H33   H     H_    0.947536 0.718929 0.292458 0.106286
H34   H     H_    0.714996 0.043344 0.881811 0.127832
H35   H     H_    0.080884 0.249071 0.681120 0.087884
H36   H     H_    0.609823 0.285778 0.877421 0.169237
H37   H     H_    0.314931 0.644640 0.187228 0.168751
H38   H     H_    0.352772 0.312486 0.141917 0.164930
H39   H     H_    0.653755 0.737790 0.904129 0.168893
H40   H     H_    0.146137 0.812245 0.858475 0.164029
H41   H     H_    0.848087 0.163402 0.164209 0.169430
H42   H     H_    0.890334 0.711020 0.057015 0.175004
H43   H     H_    0.184503 0.144805 0.812328 0.168360
H44   H     H_    0.524421 0.770427 0.249562 0.165856
H45   H     H_    0.240093 0.426323 0.852132 0.097882
H46   H     H_    0.353272 0.339388 0.449117 0.151135
H47   H     H_    0.476359 0.769872 0.748097 0.151232
H48   H     H_    0.646341 0.338878 0.548754 0.149796
H49   H     H_    0.023244 0.269502 0.250870 0.156481
H50   H     H_    0.865544 0.835066 0.490599 0.148383
H51   H     H_    0.977436 0.269914 0.749119 0.165506
H52   H     H_    0.146485 0.839360 0.550981 0.148375
H53   H     H_    0.210136 0.760237 0.196012 0.129818
H54   H     H_    0.141435 0.827867 0.214337 0.131262
H55   H     H_    0.037938 0.910797 0.062093 0.122765
H56   H     H_    0.781732 0.546091 0.118534 0.178359
H57   H     H_    0.003025 0.925812 0.890872 0.118695
H58   H     H_    0.071719 0.860020 0.871809 0.107856
H59   H     H_    0.769880 0.326567 0.887058 0.188487
H60   H     H_    0.851668 0.321047 0.875113 0.136486
H61   H     H_    0.924591 0.203791 0.935274 0.121178
H62   H     H_    0.913386 0.090437 0.004676 0.129545
H63   H     H_    0.834536 0.095985 0.023050 0.144039
H64   H     H_    0.636992 0.631890 0.706680 0.126038
H65   H     H_    0.612315 0.579582 0.554061 0.115719
H66   H     H_    0.709081 0.574325 0.571379 0.139455
H67   H     H_    0.759822 0.425046 0.147816 0.116074
H68   H     H_    0.831303 0.620477 0.742936 0.150110
H69   H     H_    0.856783 0.673948 0.895572 0.127958
H70   H     H_    0.213346 0.225177 0.109315 0.145407
H71   H     H_    0.122976 0.175093 0.092820 0.163432
H72   H     H_    0.037494 0.073590 0.955744 0.119619
H73   H     H_    0.040743 0.023323 0.831215 0.115097
H74   H     H_    0.128151 0.074495 0.842615 0.123226
H75   H     H_    0.781160 0.207759 0.273224 0.118044
H76   H     H_    0.740598 0.215207 0.356223 0.129633
H77   H     H_    0.613480 0.245404 0.239011 0.125295
H78   H     H_    0.216482 0.544709 0.881640 0.122165
H79   H     H_    0.526936 0.268146 0.038202 0.143451
H80   H     H_    0.566818 0.263612 0.954303 0.120630
H81   H     H_    0.282635 0.722487 0.886052 0.143811
H82   H     H_    0.372583 0.672773 0.901205 0.167276
H83   H     H_    0.460880 0.574316 0.041438 0.126240
H84   H     H_    0.460749 0.526624 0.170281 0.113890
H85   H     H_    0.373540 0.577123 0.159733 0.121857
H86   H     H_    0.287402 0.264293 0.802521 0.128712
H87   H     H_    0.353395 0.336427 0.782401 0.132600
H88   H     H_    0.457003 0.418941 0.935740 0.127768
H89   H     H_    0.787856 0.928843 0.455341 0.193940
H90   H     H_    0.495567 0.427891 0.110598 0.119294
H91   H     H_    0.429200 0.358107 0.131244 0.108058
H92   H     H_    0.897046 0.843240 0.233979 0.137602
H93   H     H_    0.906259 0.931274 0.350917 0.113187
H94   H     H_    0.803109 0.948288 0.317035 0.115305
H95   H     H_    0.692118 0.871582 0.171090 0.126893
H96   H     H_    0.682351 0.781443 0.055336 0.124813
N1    N     N_R   0.625380 0.928280 0.709340 -0.051696
N2    N     N_R   0.613900 0.929750 0.547530 -0.061086
N3    N     N_R   0.613900 0.070250 0.547530 -0.060706
N4    N     N_R   0.386100 0.929750 0.452470 -0.063303
N5    N     N_R   0.886100 0.570250 0.452470 -0.056637
N6    N     N_R   0.113900 0.429750 0.547530 -0.062670
N7    N     N_R   0.113900 0.570250 0.547530 -0.060850
N8    N     N_R   0.886100 0.429750 0.452470 -0.061829
N9    N     N_R   0.437800 0.869550 0.507970 -0.049234
N10   N     N_R   0.562200 0.130450 0.492030 -0.039171
N11   N     N_R   0.562200 0.869550 0.492030 -0.047482
N12   N     N_R   0.374620 0.071720 0.290660 -0.055292
N13   N     N_R   0.437800 0.130450 0.507970 -0.041118
N14   N     N_R   0.937800 0.369550 0.507970 -0.049385
N15   N     N_R   0.062200 0.630450 0.492030 -0.041099
N16   N     N_R   0.062200 0.369550 0.492030 -0.049363
N17   N     N_R   0.937800 0.630450 0.507970 -0.038652
N18   N     N_R   0.573690 0.128980 0.653840 -0.048486
N19   N     N_R   0.426310 0.871020 0.346160 -0.043786
N20   N     N_R   0.426310 0.128980 0.346160 -0.049521
N21   N     N_R   0.573690 0.871020 0.653840 -0.040099
N22   N     N_R   0.073690 0.628980 0.653840 -0.049855
N23   N     N_R   0.374620 0.928280 0.290660 -0.043994
N24   N     N_R   0.926310 0.371020 0.346160 -0.042990
N25   N     N_R   0.926310 0.628980 0.346160 -0.046349
N26   N     N_R   0.073690 0.371020 0.653840 -0.042451
N27   N     N_R   0.625380 0.071720 0.709340 -0.056149
N28   N     N_R   0.125380 0.428280 0.709340 -0.043535
N29   N     N_R   0.874620 0.571720 0.290660 -0.059860
N30   N     N_R   0.874620 0.428280 0.290660 -0.054654
N31   N     N_R   0.125380 0.571720 0.709340 -0.055657
N32   N     N_R   0.386100 0.070250 0.452470 -0.060643
Ni1   Ni    Ni4+2 0.616560 1.000000 0.627280 0.226292
Ni2   Ni    Ni4+2 0.383440 0.000000 0.372720 0.224010
Ni3   Ni    Ni4+2 0.116560 0.500000 0.627280 0.224181
Ni4   Ni    Ni4+2 0.883440 0.500000 0.372720 0.227960
Ni5   Ni    Ni4+2 0.497990 0.870580 0.500000 0.214451
Ni6   Ni    Ni4+2 0.502010 0.129420 0.500000 0.215911
Ni7   Ni    Ni4+2 0.997990 0.370580 0.500000 0.211139
Ni8   Ni    Ni4+2 0.002010 0.629420 0.500000 0.213374

loop_
_geom_bond_atom_site_label_1
_geom_bond_atom_site_label_2
_ccdc_geom_bond_type
C74   H93   S    
C102  H52   S    
C54   H76   S    
C100  H50   S    
C60   H81   S    
C18   C166  S    
N30   Ni4   S    
N24   N30   A    
C14   C59   S    
C27   H53   S    
C46   F13   S    
C135  N14   A    
C94   C117  A    
C6    C25   S    
N10   Ni6   S    
C8    C26   S    
C21   C158  S    
C7    C68   S    
C104  H51   S    
C30   H57   S    
C2    C22   S    
C71   H91   S    
C3    C19   S    
C2    F9    S    
N8    N14   A    
C91   C100  A    
C140  C152  A    
C88   C97   A    
C145  N24   A    
C59   C60   A    
C82   C98   A    
C17   C151  S    
C18   C152  S    
C109  C118  A    
C76   C77   A    
C45   C47   A    
C11   C20   S    
C116  C121  A    
C84   C100  A    
C137  N15   A    
C130  N8    A    
C93   C101  A    
C134  H21   S    
C129  C164  A    
N22   Ni8   S    
C43   C44   A    
C79   C157  S    
C37   C38   A    
C66   H86   S    
C82   C160  S    
C146  C154  A    
C115  C118  A    
N6    N16   A    
C24   C25   S    
C52   C58   A    
C103  C152  A    
C135  H22   S    
C98   H48   S    
C23   C153  S    
C148  C153  A    
C125  N29   A    
C127  H14   S    
C16   C25   S    
C132  H19   S    
C25   C154  S    
C20   C68   S    
C139  C162  A    
C142  H29   S    
C72   C73   A    
N24   Ni7   S    
C99   H47   S    
C1    H1    S    
C5    C46   S    
C15   C68   S    
C8    C17   S    
C106  C115  A    
C78   C106  A    
C85   C165  S    
C128  H15   S    
C79   C96   A    
C4    H40   S    
N23   Ni2   S    
C1    N1    A    
C11   C13   S    
C130  C165  A    
C123  C159  A    
C9    C158  S    
C124  C160  A    
N21   Ni5   S    
N7    N15   A    
C69   C70   A    
C148  H35   S    
C143  C149  A    
C97   H44   S    
C5    C21   S    
C94   C102  A    
C140  H27   S    
C41   C42   A    
N31   Ni3   S    
C127  N5    A    
C31   H58   S    
C85   C112  A    
C90   H8    S    
C53   C54   A    
C87   C119  A    
C7    H43   S    
C133  N11   A    
C105  C113  A    
C36   C37   A    
N12   Ni2   S    
C13   F10   S    
C13   C23   S    
N7    Ni3   S    
C131  H18   S    
C75   C76   A    
N13   N32   A    
C146  N25   A    
C5    H41   S    
N22   N31   A    
C123  H10   S    
N18   N27   A    
C93   H2    S    
C66   C67   A    
C36   H61   S    
C3    C24   S    
C92   C151  A    
C57   F14   S    
C81   N12   A    
N3    N10   A    
C131  N9    A    
C111  F8    S    
C129  N7    A    
C56   H79   S    
C47   H70   S    
C12   C46   S    
C39   C40   A    
C136  C155  A    
C13   C168  S    
C10   C24   S    
C90   C120  A    
C144  C156  A    
C5    C9    S    
C29   C30   A    
N28   Ni3   S    
C145  H32   S    
C4    C22   S    
N2    N11   A    
C95   C116  A    
C78   C97   A    
C21   C155  S    
C83   C110  A    
C52   C53   A    
C48   H71   S    
C138  C163  A    
C125  H56   S    
N9    Ni5   S    
C51   H74   S    
C127  C162  A    
C80   C99   A    
C33   H59   S    
C88   C118  A    
C86   C102  A    
C90   C99   A    
C125  C154  A    
C54   C55   A    
C3    H39   S    
C83   C101  A    
C58   H80   S    
C108  C117  A    
C110  C119  A    
C39   C44   A    
N20   Ni6   S    
C80   C108  A    
C103  N27   A    
C84   C109  A    
C89   C98   A    
C14   C22   S    
C86   C111  A    
C112  C121  A    
C92   H23   S    
C69   H88   S    
N25   N29   A    
C19   C149  S    
C20   C150  S    
C34   C36   A    
C61   C62   A    
C107  C116  A    
C103  H34   S    
C63   C64   A    
C9    C18   S    
C141  N19   A    
C49   C50   A    
C147  N31   A    
C3    C16   S    
C137  H24   S    
C55   C56   A    
C70   H90   S    
C73   C74   A    
C16   C72   S    
C114  H45   S    
C19   C57   S    
C88   H6    S    
C26   C27   A    
C77   H96   S    
C28   C29   A    
C30   C31   A    
C44   H69   S    
C110  F5    S    
C73   H92   S    
C15   C65   S    
C9    C32   S    
C28   H54   S    
C113  C119  A    
C126  N4    A    
C95   H4    S    
N26   N28   A    
C1    C149  A    
C70   C71   A    
N27   Ni1   S    
C126  C161  A    
C63   H84   S    
C67   H87   S    
C4    C35   S    
N25   Ni8   S    
C6    C57   S    
C18   C46   S    
C12   C52   S    
C107  F4    S    
C139  H26   S    
C105  F2    S    
C75   H94   S    
C34   H60   S    
N3    Ni1   S    
C117  C120  A    
C49   H72   S    
C109  F6    S    
C148  N26   A    
C37   H62   S    
C60   C61   A    
C133  C159  A    
C62   C63   A    
C137  C164  A    
N5    Ni4   S    
C10   C19   S    
N6    Ni3   S    
C122  N32   A    
C50   C51   A    
C135  C165  A    
C93   C113  A    
C147  C156  A    
C106  F16   S    
C130  H17   S    
C48   C49   A    
N4    N9    A    
C92   N23   A    
C101  H49   S    
C132  N10   A    
N12   N20   A    
C86   C164  S    
C42   C43   A    
C122  H9    S    
C166  H36   S    
C84   C162  S    
N19   Ni5   S    
C144  N22   A    
C83   C163  S    
C76   H95   S    
N5    N17   A    
C2    C8    S    
C168  H38   S    
C123  N2    A    
C6    C10   S    
N4    Ni2   S    
C32   C33   A    
C142  C150  A    
C89   C121  A    
C6    H42   S    
C122  C157  A    
N32   Ni2   S    
C16   C57   S    
N2    Ni1   S    
C61   H82   S    
C64   H85   S    
C78   C159  S    
C42   H66   S    
C142  N20   A    
C131  C161  A    
C10   C39   S    
C17   C35   S    
C14   C167  S    
N19   N23   A    
C68   F15   S    
C53   H75   S    
C4    C8    S    
N13   Ni6   S    
C22   C156  S    
C7    C11   S    
N15   Ni8   S    
C59   C64   A    
C132  C160  A    
N16   Ni7   S    
C139  N17   A    
C12   C166  S    
C7    C23   S    
C45   C51   A    
C81   C150  A    
C79   C105  A    
C167  H37   S    
C146  H33   S    
C43   H68   S    
C56   C58   A    
C136  H67   S    
C32   C38   A    
N18   Ni6   S    
C114  C153  A    
C87   H5    S    
C133  H20   S    
C15   C23   S    
C26   C31   A    
N26   Ni7   S    
N1    Ni1   S    
C40   H64   S    
N29   Ni4   S    
C20   C168  S    
C74   C75   A    
C91   H89   S    
C94   H3    S    
C138  N16   A    
C17   C167  S    
C14   C35   S    
C140  N18   A    
C65   C71   A    
C12   C21   S    
C128  C163  A    
C111  C120  A    
C67   C69   A    
C72   C77   A    
C62   H83   S    
C47   C48   A    
C87   C96   A    
C134  C157  A    
C24   F11   S    
C33   C34   A    
C89   H7    S    
N11   Ni5   S    
C82   C107  A    
C147  H78   S    
C85   C104  A    
C141  H28   S    
C143  H30   S    
C126  H13   S    
C40   C41   A    
C96   H46   S    
C15   C168  S    
N8    Ni4   S    
N1    N21   A    
C95   C104  A    
C141  C151  A    
N14   Ni7   S    
C124  N3    A    
C136  N30   A    
C35   F12   S    
C91   C115  A    
C55   H77   S    
C144  H31   S    
C158  F1    S    
C50   H73   S    
C138  H25   S    
C134  N13   A    
C128  N6    A    
C81   H12   S    
C38   H63   S    
C124  H11   S    
C114  N28   A    
C80   C161  S    
C129  H16   S    
C11   C45   S    
C143  N21   A    
C145  C155  A    
C158  C166  S    
C112  F7    S    
C65   C66   A    
C108  F3    S    
C41   H65   S    
C27   C28   A    
N17   Ni8   S    
C2    C167  S    
C29   H55   S    
