data_mof_unit_42072.cif
_audit_creation_date              2012-12-11T14:21:21-0500
_audit_creation_method            fapswitch 2.2
_symmetry_space_group_name_H-M    P1
_symmetry_Int_Tables_number       1
_space_group_crystal_system       triclinic
_cell_length_a                    11.47803
_cell_length_b                    11.676481
_cell_length_c                    19.614197
_cell_angle_alpha                 89.734907
_cell_angle_beta                  89.947789
_cell_angle_gamma                 60.49993
_cell_volume                      2287.9216973

loop_
_atom_site_label
_atom_site_type_symbol
_atom_type_description
_atom_site_fract_x
_atom_site_fract_y
_atom_site_fract_z
_atom_type_partial_charge
C1    C     C_R   0.640444 0.115095 0.599633 0.550074
C2    C     C_1   0.654407 0.146273 0.668918 0.006638
C3    C     C_R   0.677080 0.604242 0.204212 0.060692
C4    C     C_R   0.612658 0.745724 0.598665 0.567119
C5    C     C_R   0.542789 0.660338 0.230253 0.006955
C6    C     C_R   0.511532 0.739828 0.287047 -0.042959
C7    C     C_R   0.750124 0.630269 0.315307 0.090408
C8    C     C_R   0.780416 0.586906 0.249077 0.082104
C9    C     C_R   0.439713 0.637130 0.203736 0.015654
C10   C     C_R   0.307357 0.710368 0.223490 0.368279
C11   C     C_R   0.274030 0.803613 0.273082 -0.106438
C12   C     C_1   0.641325 0.703799 0.668056 0.007098
C13   C     C_R   0.374783 0.817945 0.304137 -0.165086
C14   C     C_R   0.618293 0.726146 0.329463 -0.001745
C15   C     C_R   0.163589 0.178783 0.186007 0.023514
C16   C     C_R   0.242257 0.143857 0.598358 0.562011
C17   C     C_R   0.259715 0.212763 0.205429 -0.029705
C18   C     C_R   0.286999 0.214402 0.275585 0.011590
C19   C     C_R   0.153506 0.109754 0.301332 -0.140104
C20   C     C_R   0.112614 0.125403 0.233928 -0.114688
C21   C     C_R   0.309567 0.267525 0.157339 -0.059127
C22   C     C_R   0.349716 0.355343 0.178335 0.431424
C23   C     C_1   0.125040 0.202184 0.859061 0.009447
C24   C     C_R   0.357033 0.375634 0.247595 -0.065892
C25   C     C_R   0.337956 0.297684 0.295560 -0.165667
C26   C     C_R   0.245725 0.147347 0.322681 0.021555
C27   C     C_R   0.674900 0.187878 0.195144 0.024498
C28   C     C_R   0.647378 0.109181 0.402342 0.532392
C29   C     C_R   0.718063 0.058192 0.216614 -0.103451
C30   C     C_R   0.745560 0.029091 0.286328 -0.012577
C31   C     C_R   0.637541 0.261058 0.312778 -0.124148
C32   C     C_R   0.650183 0.283464 0.244658 0.332518
C33   C     C_R   0.762187 0.954452 0.169462 -0.072036
C34   C     C_1   0.172003 0.169559 0.727824 -0.026898
C35   C     C_R   0.867113 0.831653 0.186978 0.446078
C36   C     C_R   0.916367 0.808502 0.253513 -0.061402
C37   C     C_R   0.851665 0.902583 0.303656 -0.159883
C38   C     C_R   0.679497 0.133764 0.333960 -0.035949
C39   C     C_R   0.079698 0.233335 0.928257 0.532623
C40   C     C_R   0.588247 0.788633 0.394514 0.538633
C41   C     C_R   0.683876 0.604639 0.929426 0.545768
C42   C     C_R   0.708304 0.208111 0.929908 0.535887
C43   C     C_R   0.086872 0.232550 0.123294 0.531528
C44   C     C_R   0.705338 0.556069 0.134076 0.606511
C45   C     C_1   0.149336 0.184364 0.798931 -0.025397
C46   C     C_R   0.708035 0.211535 0.126704 0.573035
C47   C     C_R   0.293518 0.121052 0.393762 0.520026
C48   C     C_1   0.670658 0.646417 0.860004 0.007806
C49   C     C_1   0.654921 0.683594 0.728435 -0.028001
C50   C     C_1   0.663721 0.666557 0.799610 -0.026811
C51   C     C_1   0.196504 0.158553 0.667594 0.005489
C52   C     C_1   0.677680 0.193513 0.860529 0.010075
C53   C     C_1   0.659636 0.165088 0.729066 -0.026870
C54   C     C_1   0.665556 0.181508 0.800228 -0.025156
Cr1   Cr    Cr6+3 0.404720 0.198220 0.499960 1.036635
Cr2   Cr    Cr6+3 0.698290 0.897110 0.500380 1.050072
Cr3   Cr    Cr6+3 0.396970 0.904720 0.499610 1.031277
Cr4   Cr    Cr6+3 0.926180 0.151990 0.028120 1.074002
Cr5   Cr    Cr6+3 0.921330 0.451820 0.027470 1.136477
Cr6   Cr    Cr6+3 0.626260 0.446870 0.028710 1.116674
F1    F     F_    0.372787 0.426133 0.130914 -0.603341
F2    F     F_    0.652604 0.392924 0.228181 -0.693347
F3    F     F_    0.929504 0.740959 0.137526 -0.558814
F4    F     F_    0.212345 0.688791 0.195046 -0.584292
H1    H     H_    0.382435 0.448458 0.264596 0.152624
H2    H     H_    0.110616 0.070456 0.337442 0.132339
H3    H     H_    0.302012 0.255590 0.103078 0.142781
H4    H     H_    0.034724 0.102774 0.220209 0.156814
H5    H     H_    0.352408 0.314934 0.347623 0.178890
H6    H     H_    0.602844 0.340795 0.349145 0.147828
H7    H     H_    0.730215 0.972649 0.116673 0.144869
H8    H     H_    0.006299 0.718827 0.266877 0.201680
H9    H     H_    0.898467 0.878496 0.353178 0.168478
H10   H     H_    0.459058 0.557710 0.170104 0.266702
H11   H     H_    0.171192 0.860224 0.289793 0.121892
H12   H     H_    0.344417 0.885563 0.344044 0.169623
I1    I     I_    0.895776 0.522716 0.395027 -0.263560
I2    I     I_    0.982764 0.500023 0.225603 -0.199779
O1    O     O_R   0.267740 0.231960 0.575440 -0.488342
O2    O     O_R   0.596130 0.579390 0.952730 -0.497671
O3    O     O_R   0.639060 0.321160 0.958670 -0.492107
O4    O     O_R   0.527280 0.186640 0.570530 -0.490528
O5    O     O_R   0.821240 0.124200 0.104370 -0.518251
O6    O     O_R   0.036890 0.167040 0.097840 -0.503193
O7    O     O_R   0.056180 0.349610 0.102880 -0.466772
O8    O     O_R   0.797660 0.564870 0.097950 -0.440870
O9    O     O_R   0.595880 0.584250 0.104270 -0.531287
O10   O     O_R   0.638830 0.325670 0.099150 -0.427558
O11   O     O_3   0.824590 0.350230 0.028100 -0.306158
O12   O     O_R   0.685970 0.784660 0.430010 -0.467082
O13   O     O_R   0.728090 0.003450 0.576380 -0.501869
O14   O     O_R   0.682970 0.789190 0.570490 -0.480816
O15   O     O_R   0.499290 0.771880 0.575530 -0.498101
O16   O     O_R   0.285330 0.030870 0.569730 -0.488780
O17   O     O_R   0.270980 0.227080 0.423890 -0.487047
O18   O     O_R   0.530280 0.182120 0.430050 -0.530281
O19   O     O_R   0.731330 0.998570 0.424830 -0.526200
O20   O     O_R   0.502530 0.767000 0.423990 -0.511530
O21   O     O_R   0.288330 0.026350 0.429250 -0.531872
O22   O     O_3   0.499990 0.000020 0.499980 -0.297511
O23   O     O_R   0.821500 0.119340 0.952830 -0.497289
O24   O     O_R   0.037130 0.162530 0.957360 -0.494654
O25   O     O_R   0.056440 0.344740 0.951340 -0.501224
O26   O     O_R   0.797900 0.560360 0.957470 -0.486972

loop_
_geom_bond_atom_site_label_1
_geom_bond_atom_site_label_2
_ccdc_geom_bond_type
C28   O19   A    
C23   C45   T    
C27   C29   A    
C19   C20   A    
C18   C26   A    
C16   C51   S    
C41   O2    A    
C12   C49   T    
Cr6   O10   S    
C7    C8    A    
C53   C54   S    
C42   O3    A    
C34   C51   T    
Cr5   O26   S    
C36   C37   A    
C40   O20   A    
C5    C6    A    
Cr3   O21   S    
C29   C33   A    
C47   O21   A    
C30   C38   A    
C19   H2    S    
C1    C2    S    
Cr5   O11   S    
C19   C26   A    
C31   H6    S    
C35   C36   A    
Cr1   O22   S    
Cr4   O24   S    
C4    C12   S    
C44   O9    A    
C9    C10   A    
C7    I1    S    
C4    O14   A    
Cr2   O12   S    
C1    O13   A    
Cr3   O15   S    
C21   C22   A    
C21   H3    S    
C8    I2    S    
C43   O6    A    
C18   C25   A    
Cr2   O19   S    
C44   O8    A    
Cr6   O9    S    
C52   C54   T    
C46   O10   A    
Cr2   O13   S    
C15   C20   A    
C3    C44   S    
C43   O7    A    
C24   C25   A    
Cr1   O17   S    
C3    C8    A    
Cr4   O23   S    
C1    O4    A    
Cr6   O11   S    
Cr3   O22   S    
C7    C14   A    
C4    O15   A    
C30   C37   A    
Cr5   O7    S    
C5    C9    A    
C29   C30   A    
Cr4   O6    S    
C6    C14   A    
Cr1   O1    S    
Cr6   O3    S    
C31   C32   A    
C13   H12   S    
C28   C38   S    
C17   C18   A    
C34   C45   S    
Cr1   O4    S    
C24   H1    S    
C26   C47   S    
C27   C46   S    
Cr3   O16   S    
C22   C24   A    
C25   H5    S    
C9    H10   S    
Cr2   O22   S    
C42   O23   A    
C39   O24   A    
C15   C17   A    
C37   H9    S    
Cr6   O2    S    
C27   C32   A    
C20   H4    S    
C10   F4    S    
Cr1   O18   S    
C3    C5    A    
C2    C53   T    
C31   C38   A    
C39   O25   A    
C16   O16   A    
C41   O26   A    
C28   O18   A    
C16   O1    A    
Cr5   O25   S    
Cr5   O8    S    
C15   C43   S    
C11   H11   S    
Cr4   O5    S    
C6    C13   A    
C11   C13   A    
C23   C39   S    
Cr3   O20   S    
C48   C50   T    
C33   C35   A    
C41   C48   S    
Cr4   O11   S    
C17   C21   A    
C10   C11   A    
C33   H7    S    
C14   C40   S    
C46   O5    A    
Cr2   O14   S    
C49   C50   S    
C47   O17   A    
C35   F3    S    
C32   F2    S    
C40   O12   A    
C36   H8    S    
C42   C52   S    
C22   F1    S    
