data_mof_unit_18769.cif
_audit_creation_date              2012-12-10T18:02:53-0500
_audit_creation_method            fapswitch 2.2
_symmetry_space_group_name_H-M    P1
_symmetry_Int_Tables_number       1
_space_group_crystal_system       triclinic
_cell_length_a                    10.814089
_cell_length_b                    9.702132
_cell_length_c                    27.417408
_cell_angle_alpha                 90.081506
_cell_angle_beta                  94.274404
_cell_angle_gamma                 90.092204
_cell_volume                      2868.61834305

loop_
_atom_site_label
_atom_site_type_symbol
_atom_type_description
_atom_site_fract_x
_atom_site_fract_y
_atom_site_fract_z
_atom_type_partial_charge
C1    C     C_R   0.262659 0.499936 0.500224 0.802256
C2    C     C_R   0.737371 0.500061 0.499893 0.806318
C3    C     C_R   0.450021 0.626278 0.100617 -0.036320
C4    C     C_R   0.428054 0.612740 0.894980 -0.035904
C5    C     C_R   0.342352 0.606215 0.125315 -0.064053
C6    C     C_R   0.522190 0.671965 0.869272 -0.070322
C7    C     C_R   0.226441 0.602859 0.098869 -0.132521
C8    C     C_R   0.613928 0.752207 0.894515 -0.133364
C9    C     C_R   0.564729 0.644760 0.127958 -0.107900
C10   C     C_R   0.328510 0.544805 0.868774 -0.107658
C11   C     C_R   0.488479 0.500075 0.353688 -0.147971
C12   C     C_R   0.492803 0.499257 0.645683 -0.137224
C13   C     C_R   0.327864 0.583199 0.971302 0.027367
C14   C     C_R   0.545628 0.675661 0.024279 0.024439
C15   C     C_R   0.533602 0.691157 0.972534 -0.007133
C16   C     C_R   0.326586 0.607707 0.022222 -0.011464
C17   C     C_R   0.430002 0.628706 0.946353 0.061827
C18   C     C_R   0.440941 0.636510 0.048975 0.060058
C19   C     C_R   0.235561 0.504259 0.945501 -0.126597
C20   C     C_R   0.660534 0.686855 0.051582 -0.122572
C21   C     C_R   0.233213 0.485428 0.894754 -0.022601
C22   C     C_R   0.671845 0.673321 0.102716 -0.023507
C23   C     C_R   0.495100 0.500032 0.407395 0.841974
C24   C     C_R   0.502654 0.500020 0.592581 0.844250
C25   C     C_R   0.217225 0.604472 0.047878 0.135091
C26   C     C_R   0.619372 0.764675 0.945405 0.130454
C27   C     C_R   0.063818 0.374783 0.500425 -0.133485
C28   C     C_R   0.936264 0.625205 0.499836 -0.133775
C29   C     C_R   0.935892 0.374853 0.499906 -0.131945
C30   C     C_R   0.064188 0.625136 0.500344 -0.131351
C31   C     C_R   0.871501 0.500068 0.499808 -0.027862
C32   C     C_R   0.128568 0.499921 0.500436 -0.026909
C33   C     C_R   0.419822 0.073317 0.468653 0.193953
C34   C     C_R   0.580301 0.926496 0.531406 0.196161
C35   C     C_R   0.580292 0.074093 0.531423 0.196098
C36   C     C_R   0.419880 0.925879 0.468589 0.195797
C37   C     C_R   0.352719 0.594248 0.176385 0.554256
C38   C     C_R   0.520699 0.651736 0.818435 0.570434
C39   C     C_R   0.565991 0.635076 0.179663 0.588580
C40   C     C_R   0.328056 0.541346 0.817259 0.569267
C41   C     C_R   0.596257 0.506070 0.279080 0.255867
C42   C     C_R   0.360753 0.461892 0.712054 0.276072
C43   C     C_R   0.598854 0.501133 0.330194 -0.250593
C44   C     C_R   0.376521 0.471318 0.662228 -0.258158
C45   C     C_R   0.375282 0.481487 0.325419 0.182437
C46   C     C_R   0.597723 0.502119 0.679555 0.167309
C47   C     C_R   0.377025 0.467192 0.274319 -0.040242
C48   C     C_R   0.580003 0.497716 0.730386 -0.055283
C49   C     C_R   0.480489 0.519271 0.251182 0.092662
C50   C     C_R   0.457518 0.507255 0.746126 0.091813
Cu1   Cu    Cu3+1 0.500000 0.640660 0.500000 1.025180
Cu2   Cu    Cu3+1 0.500000 0.359340 0.500000 1.020539
H1    H     H_    0.142007 0.598289 0.117735 0.220256
H2    H     H_    0.681422 0.807308 0.874678 0.216962
H3    H     H_    0.300538 0.442852 0.636080 0.170509
H4    H     H_    0.687007 0.494049 0.351592 0.174702
H5    H     H_    0.169411 0.447941 0.965421 0.197862
H6    H     H_    0.744451 0.694982 0.032840 0.208581
H7    H     H_    0.111565 0.276764 0.500788 0.177075
H8    H     H_    0.888523 0.723228 0.499440 0.176962
H9    H     H_    0.887858 0.276839 0.499560 0.177592
H10   H     H_    0.112226 0.723148 0.500638 0.177185
N1    N     N_R   0.467307 0.577563 0.201259 -0.432389
N2    N     N_R   0.435717 0.563591 0.794811 -0.440235
N3    N     N_R   0.500000 0.852070 0.500000 -0.229516
N4    N     N_R   0.500000 0.147930 0.500000 -0.228406
O1    O     O_R   0.319640 0.618740 0.500000 -0.570848
O2    O     O_R   0.680360 0.381260 0.500000 -0.570093
O3    O     O_R   0.680360 0.618740 0.500000 -0.570900
O4    O     O_R   0.319640 0.381260 0.500000 -0.571897
O5    O     O_R   0.500020 0.618770 0.430260 -0.546154
O6    O     O_R   0.499980 0.381230 0.569740 -0.552305
O7    O     O_R   0.499980 0.618770 0.569740 -0.545510
O8    O     O_R   0.500020 0.381230 0.430260 -0.551102
O9    O     O_2   0.249400 0.607382 0.200650 -0.507877
O10   O     O_2   0.601077 0.723308 0.792831 -0.490068
O11   O     O_2   0.218876 0.535776 0.790593 -0.488642
O12   O     O_2   0.657609 0.696332 0.207755 -0.508234
I1    I     I_    0.200527 0.494099 0.356689 -0.138979
I2    I     I_    0.779020 0.502418 0.653031 -0.133489
I3    I     I_    0.290831 0.174497 0.418426 -0.207326
I4    I     I_    0.709407 0.824337 0.581766 -0.211674
I5    I     I_    0.709083 0.177128 0.582008 -0.229950
I6    I     I_    0.291633 0.822968 0.417876 -0.214749
C51   C     C_2   0.292454 0.366804 0.247305 0.528668
H11   H     H_    0.305725 0.342147 0.209435 0.058158
O13   O     O_2   0.211340 0.305426 0.267096 -0.465350
C52   C     C_2   0.683391 0.465538 0.767624 0.524817
H12   H     H_    0.662670 0.413716 0.801137 0.048959
O14   O     O_2   0.790146 0.500647 0.762892 -0.439096
I7    I     I_    0.238582 0.296588 0.727072 -0.219924
I8    I     I_    0.760555 0.431651 0.249540 -0.216538
C53   C     C_2   0.137085 0.392406 0.871081 0.493418
H13   H     H_    0.152142 0.340568 0.837027 0.127342
O15   O     O_2   0.040180 0.370481 0.889968 -0.497607
C54   C     C_2   0.798407 0.678577 0.127635 0.489509
H14   H     H_    0.822105 0.616953 0.159854 0.131571
O16   O     O_2   0.878523 0.751509 0.111955 -0.491531
I9    I     I_    0.034379 0.638291 0.015194 -0.241377
I10   I     I_    0.737316 0.926871 0.974046 -0.222107

loop_
_geom_bond_atom_site_label_1
_geom_bond_atom_site_label_2
_ccdc_geom_bond_type
C46   I2    S    
C53   H13   S    
C49   N1    S    
C5    C37   A    
C27   C29   A    
C50   N2    S    
C14   C18   A    
C47   C49   A    
C38   O10   S    
C51   H11   S    
C19   H5    S    
Cu1   O5    S    
Cu2   O6    S    
C47   C51   S    
C19   C21   A    
C34   C35   A    
Cu2   O8    S    
C9    C22   A    
C9    C39   A    
C33   C36   A    
C8    C26   A    
C3    C18   A    
C10   C40   A    
C42   I7    S    
Cu1   N3    S    
C45   C47   A    
C25   I9    S    
C54   O16   D    
C48   C52   S    
C11   C43   A    
C2    O3    A    
Cu2   O2    S    
C48   C50   A    
C37   O9    S    
C53   O15   D    
C41   C43   A    
C42   C44   A    
C34   N3    A    
C41   C49   A    
C37   N1    A    
C33   N4    A    
C38   N2    A    
C28   H8    S    
C10   C21   A    
C29   H9    S    
C13   C19   A    
C51   O13   D    
Cu1   Cu2   S    
C39   O12   S    
C14   C20   A    
C4    C6    A    
C8    H2    S    
C5    C7    A    
C35   I5    S    
C36   N3    A    
C15   C26   A    
C6    C8    A    
C35   N4    A    
C1    C32   S    
C2    C31   S    
C3    C9    A    
C23   O5    A    
C54   H14   S    
C6    C38   A    
C45   I1    S    
Cu1   O1    S    
C42   C50   A    
C4    C17   A    
C12   C46   A    
C20   C22   A    
C30   H10   S    
C11   C45   A    
C7    H1    S    
C23   O8    A    
C20   H6    S    
Cu2   N4    S    
C24   O6    A    
C16   C25   A    
C15   C17   A    
C34   I4    S    
C27   C32   A    
C40   O11   S    
C22   C54   S    
C28   C31   A    
Cu1   O7    S    
C4    C10   A    
C52   O14   D    
C3    C5    A    
C40   N2    A    
C39   N1    A    
C12   C24   S    
C2    O2    A    
C1    O4    A    
C7    C25   A    
C13   C17   A    
C28   C30   A    
C29   C31   A    
C27   H7    S    
C30   C32   A    
C44   H3    S    
C21   C53   S    
C36   I6    S    
C11   C23   S    
C1    O1    A    
C24   O7    A    
Cu2   O4    S    
C46   C48   A    
C43   H4    S    
C41   I8    S    
C52   H12   S    
C16   C18   A    
C13   C16   A    
C14   C15   A    
C12   C44   A    
Cu1   O3    S    
C33   I3    S    
C26   I10   S    
