data_mof_unit_16434.cif
_audit_creation_date              2012-12-11T16:20:31-0500
_audit_creation_method            fapswitch 2.2
_symmetry_space_group_name_H-M    P1
_symmetry_Int_Tables_number       1
_space_group_crystal_system       triclinic
_cell_length_a                    6.927972
_cell_length_b                    34.428495
_cell_length_c                    38.152271
_cell_angle_alpha                 99.571496
_cell_angle_beta                  89.561981
_cell_angle_gamma                 90.398252
_cell_volume                      8972.97212107

loop_
_atom_site_label
_atom_site_type_symbol
_atom_type_description
_atom_site_fract_x
_atom_site_fract_y
_atom_site_fract_z
_atom_type_partial_charge
O1    O     O_R   0.494320 0.461440 0.460990 -0.543717
O2    O     O_R   0.821450 0.462560 0.532500 -0.529394
O3    O     O_R   0.994330 0.538560 0.539010 -0.541978
C1    C     C_R   0.651634 0.453800 0.543494 0.707797
O4    O     O_R   0.823870 0.456770 0.460860 -0.520084
O5    O     O_R   0.996760 0.532730 0.466860 -0.543112
C2    C     C_R   0.654898 0.445215 0.448620 0.755069
O6    O     O_R   0.491880 0.467270 0.533140 -0.538528
O7    O     O_3   0.661650 0.524930 0.502050 -0.373501
V1    V     V_3+5 0.935500 0.495380 0.499620 1.471143
O8    O     O_R   0.326630 0.537440 0.467500 -0.543584
C3    C     C_R   0.158490 0.546189 0.456259 0.701142
O9    O     O_R   0.324210 0.543230 0.539140 -0.537625
C4    C     C_R   0.155609 0.552649 0.552946 0.689011
V2    V     V_3+5 0.435810 0.504620 0.500380 1.432961
O10   O     O_3   0.159790 0.475070 0.497950 -0.353446
C5    C     C_R   0.890777 0.826078 0.795695 0.614940
N1    N     N_R   0.037572 0.829245 0.820129 -0.561335
C6    C     C_R   0.195095 0.805030 0.814469 0.588855
C7    C     C_R   0.210190 0.776522 0.783613 -0.025336
C8    C     C_R   0.061688 0.772872 0.758157 -0.038415
C9    C     C_R   0.901462 0.798616 0.763337 -0.057500
C10   C     C_R   0.370679 0.751403 0.777872 -0.162795
C11   C     C_R   0.383237 0.722598 0.747586 -0.162848
C12   C     C_R   0.234806 0.717864 0.722378 -0.034326
C13   C     C_R   0.073780 0.743063 0.727607 -0.018812
C14   C     C_R   0.924304 0.738095 0.702521 -0.030623
C15   C     C_R   0.767460 0.763962 0.707279 -0.211408
C16   C     C_R   0.757208 0.794851 0.736348 -0.036130
C17   C     C_R   0.242100 0.688035 0.692262 0.565848
N2    N     N_R   0.092545 0.682861 0.668548 -0.570602
C18   C     C_R   0.935982 0.707370 0.672994 0.600001
O11   O     O_2   0.734076 0.848981 0.803103 -0.493077
O12   O     O_2   0.335716 0.807888 0.839071 -0.525221
H1    H     H_    0.487754 0.753914 0.796786 0.171108
H2    H     H_    0.509132 0.703827 0.744176 0.174657
O13   O     O_2   0.396396 0.664004 0.686973 -0.509227
O14   O     O_2   0.791234 0.701795 0.649207 -0.503215
H3    H     H_    0.654029 0.760980 0.687555 0.165692
C19   C     C_R   0.152864 0.655498 0.605612 -0.050564
H4    H     H_    0.181735 0.684992 0.600473 0.137157
C20   C     C_R   0.168480 0.623575 0.577897 -0.199425
H5    H     H_    0.204030 0.629126 0.551457 0.124494
C21   C     C_R   0.143472 0.584786 0.584065 -0.095964
C22   C     C_R   0.100772 0.578102 0.619254 -0.028749
C23   C     C_R   0.056930 0.611196 0.645988 -0.033992
C24   C     C_R   0.097334 0.649724 0.639694 0.289781
C25   C     C_R   0.868600 0.859641 0.875768 -0.080464
H6    H     H_    0.752598 0.838323 0.870188 0.164586
C26   C     C_R   0.858647 0.888189 0.906601 -0.202336
H7    H     H_    0.733981 0.888473 0.923941 0.138466
C27   C     C_R   0.009380 0.915651 0.915204 -0.059516
C28   C     C_R   0.169029 0.914153 0.892007 -0.201130
H8    H     H_    0.286646 0.935104 0.897631 0.130805
C29   C     C_R   0.176632 0.886275 0.860779 -0.072859
H9    H     H_    0.299443 0.886347 0.843059 0.165096
C30   C     C_R   0.027067 0.858530 0.852305 0.349245
C31   C     C_R   0.882198 0.848839 0.170993 0.582971
O15   O     O_2   0.732905 0.873853 0.171241 -0.524395
N3    N     N_R   0.028830 0.848800 0.146544 -0.554324
C32   C     C_R   0.184428 0.824325 0.146794 0.586500
C33   C     C_R   0.859605 0.874820 0.098285 -0.082685
C34   C     C_R   0.850432 0.900633 0.073598 -0.204579
C35   C     C_R   0.165652 0.926690 0.092189 -0.201081
C36   C     C_R   0.172805 0.901502 0.117396 -0.083173
C37   C     C_R   0.020445 0.875107 0.120602 0.352147
C38   C     C_R   0.045295 0.798019 0.196794 -0.050893
C39   C     C_R   0.887352 0.823396 0.196342 -0.040882
C40   C     C_R   0.738615 0.823024 0.221314 -0.130912
C41   C     C_R   0.196562 0.798987 0.172136 -0.029864
C42   C     C_R   0.003930 0.926705 0.070123 -0.058801
H10   H     H_    0.285583 0.946624 0.090367 0.135467
H11   H     H_    0.297183 0.902648 0.134564 0.159038
H12   H     H_    0.613348 0.841666 0.221199 0.172459
C43   C     C_R   0.150671 0.573873 0.430315 -0.037189
C44   C     C_R   0.928844 0.750871 0.276322 0.046623
C45   C     C_R   0.206063 0.716448 0.244203 -0.049738
C46   C     C_R   0.076046 0.721897 0.273642 0.077674
C47   C     C_R   0.809443 0.756506 0.306967 -0.179377
C48   C     C_R   0.831987 0.734064 0.333792 -0.103276
C49   C     C_R   0.971964 0.704626 0.330888 -0.031036
C50   C     C_R   0.092171 0.698026 0.300561 -0.043205
C51   C     C_R   0.228040 0.667477 0.297233 -0.074605
C52   C     C_R   0.239974 0.643865 0.324026 0.643666
N4    N     N_R   0.125421 0.651464 0.353811 -0.537854
C53   C     C_R   0.994405 0.681507 0.357745 0.622678
C54   C     C_R   0.300384 0.625973 0.402505 -0.002845
C55   C     C_R   0.307171 0.599105 0.426522 -0.285045
C56   C     C_R   0.986290 0.575509 0.409325 -0.199275
C57   C     C_R   0.980122 0.601134 0.384562 -0.135146
C58   C     C_R   0.135983 0.626376 0.380619 0.374988
O16   O     O_2   0.886962 0.689179 0.387683 -0.514938
C59   C     C_R   0.907907 0.773672 0.248719 0.034016
C60   C     C_R   0.053191 0.772021 0.222157 0.084137
C61   C     C_R   0.208450 0.745170 0.221118 0.020140
C62   C     C_R   0.748547 0.798762 0.247045 -0.183213
H13   H     H_    0.433425 0.598628 0.443056 0.125774
H14   H     H_    0.737912 0.739835 0.356862 0.192353
H15   H     H_    0.701016 0.779112 0.311612 0.129655
H16   H     H_    0.626358 0.799595 0.264819 0.131840
O17   O     O_2   0.326297 0.824029 0.122319 -0.528326
C63   C     C_R   0.358790 0.775412 0.173914 -0.122833
H17   H     H_    0.724305 0.899794 0.056884 0.139729
H18   H     H_    0.741216 0.854506 0.100001 0.164824
H19   H     H_    0.482409 0.777134 0.156663 0.170554
C64   C     C_R   0.326518 0.682358 0.239262 -0.031329
C65   C     C_R   0.341818 0.659690 0.266477 -0.100996
O18   O     O_2   0.364646 0.613492 0.320283 -0.525166
C66   C     C_R   0.366489 0.749754 0.198507 -0.210903
H20   H     H_    0.863338 0.556458 0.411592 0.132602
H21   H     H_    0.436594 0.634403 0.262752 0.202990
H22   H     H_    0.853418 0.601259 0.368124 0.140240
H23   H     H_    0.501285 0.734693 0.200330 0.142001
C67   C     C_R   0.766310 0.322221 0.647317 0.592089
O19   O     O_2   0.923983 0.322987 0.626461 -0.506913
N5    N     N_R   0.614788 0.346846 0.644261 -0.553529
C68   C     C_R   0.454032 0.346485 0.665386 0.584885
C69   C     C_R   0.617098 0.414765 0.630899 -0.091077
C70   C     C_R   0.622703 0.441524 0.606676 -0.095773
C71   C     C_R   0.648870 0.386178 0.558140 -0.165584
C72   C     C_R   0.641099 0.359895 0.582444 -0.069021
C73   C     C_R   0.625069 0.373934 0.619025 0.332862
C74   C     C_R   0.598631 0.296653 0.695200 -0.046871
C75   C     C_R   0.759662 0.296363 0.672417 -0.046776
C76   C     C_R   0.911076 0.270543 0.675315 -0.130200
C77   C     C_R   0.444931 0.322168 0.691631 -0.034957
C78   C     C_R   0.639285 0.426973 0.569874 -0.133715
H24   H     H_    0.661694 0.374649 0.530030 0.165726
H25   H     H_    0.646600 0.328519 0.572785 0.142125
H26   H     H_    0.036744 0.269592 0.658116 0.174184
C79   C     C_R   0.514170 0.072378 0.929770 -0.047224
C80   C     C_R   0.738360 0.220103 0.750333 0.026790
C81   C     C_R   0.421674 0.247997 0.771068 0.028456
C82   C     C_R   0.576379 0.221691 0.773688 0.063838
C83   C     C_R   0.887027 0.193019 0.754030 -0.176201
C84   C     C_R   0.876944 0.168501 0.779552 -0.125794
C85   C     C_R   0.719009 0.169919 0.802684 -0.036482
C86   C     C_R   0.568893 0.196624 0.799995 -0.046457
C87   C     C_R   0.411062 0.198132 0.823662 -0.036051
C88   C     C_R   0.407001 0.173349 0.849569 0.592863
N6    N     N_R   0.554286 0.147557 0.851687 -0.557624
C89   C     C_R   0.707853 0.145166 0.828613 0.560855
C90   C     C_R   0.489400 0.082816 0.868578 -0.068353
C91   C     C_R   0.472572 0.058096 0.894068 -0.195059
C92   C     C_R   0.570478 0.111804 0.939889 -0.227698
C93   C     C_R   0.586018 0.137079 0.914525 0.040026
C94   C     C_R   0.546206 0.122313 0.878388 0.338843
O20   O     O_2   0.850334 0.119220 0.830975 -0.517196
C95   C     C_R   0.746429 0.245386 0.724215 0.027318
C96   C     C_R   0.591087 0.271482 0.721436 0.066378
C97   C     C_R   0.428274 0.272772 0.744564 0.028060
C98   C     C_R   0.904871 0.245570 0.700508 -0.177934
H27   H     H_    0.428682 0.027692 0.885905 0.119363
H28   H     H_    0.456494 0.071355 0.841089 0.138026
H29   H     H_    0.995138 0.148436 0.781162 0.172707
H30   H     H_    0.014632 0.189780 0.737594 0.130206
H31   H     H_    0.029013 0.227039 0.700780 0.130400
O21   O     O_2   0.302044 0.369307 0.660823 -0.530327
C99   C     C_R   0.285322 0.322996 0.714299 -0.136500
H32   H     H_    0.605901 0.425554 0.659178 0.155133
H33   H     H_    0.164793 0.342337 0.712142 0.169532
C100  C     C_R   0.265284 0.248575 0.795334 -0.178262
C101  C     C_R   0.260742 0.224264 0.821028 -0.142599
O22   O     O_2   0.256680 0.174938 0.872409 -0.539040
C102  C     C_R   0.277092 0.299041 0.740245 -0.183243
H34   H     H_    0.142590 0.267560 0.795438 0.125774
H35   H     H_    0.602587 0.122830 0.967540 0.119919
H36   H     H_    0.137236 0.225962 0.838817 0.156619
H37   H     H_    0.147822 0.301756 0.756228 0.128612
C103  C     C_R   0.511829 0.167626 0.207334 0.575988
N7    N     N_R   0.549007 0.177030 0.174353 -0.557423
C104  C     C_R   0.597805 0.214816 0.170508 0.585932
C105  C     C_R   0.610005 0.244839 0.200429 -0.033585
C106  C     C_R   0.572123 0.235587 0.234420 -0.015950
C107  C     C_R   0.522816 0.196677 0.238005 -0.028759
C108  C     C_R   0.659310 0.283782 0.197184 -0.137730
C109  C     C_R   0.670512 0.313107 0.227246 -0.137004
C110  C     C_R   0.632795 0.304232 0.261320 -0.030334
C111  C     C_R   0.583571 0.265313 0.264898 -0.015389
C112  C     C_R   0.545782 0.256049 0.298888 -0.030073
C113  C     C_R   0.496408 0.217113 0.302135 -0.139940
C114  C     C_R   0.485065 0.187800 0.272075 -0.138551
C115  C     C_R   0.643747 0.333281 0.292004 0.575639
N8    N     N_R   0.606912 0.323837 0.324978 -0.556259
C116  C     C_R   0.558197 0.286048 0.328812 0.573466
O23   O     O_2   0.462628 0.130365 0.210451 -0.520517
O24   O     O_2   0.635851 0.223293 0.137868 -0.510296
H38   H     H_    0.689348 0.291759 0.171393 0.173519
H39   H     H_    0.708898 0.342753 0.223675 0.174449
O25   O     O_2   0.692529 0.370568 0.288909 -0.517511
O26   O     O_2   0.520505 0.277544 0.361456 -0.520101
H40   H     H_    0.466415 0.209132 0.327926 0.173153
H41   H     H_    0.446620 0.158158 0.275648 0.173182
C117  C     C_R   0.766058 0.352349 0.381173 -0.167675
H42   H     H_    0.867656 0.328193 0.376670 0.127458
C118  C     C_R   0.777785 0.380611 0.412312 -0.056337
C119  C     C_R   0.644194 0.412388 0.417822 -0.073515
C120  C     C_R   0.498296 0.413458 0.392476 -0.232744
H43   H     H_    0.394042 0.437120 0.395915 0.136508
C121  C     C_R   0.486547 0.384620 0.362080 -0.089502
H44   H     H_    0.372673 0.386110 0.343073 0.135715
C122  C     C_R   0.620687 0.353984 0.356129 0.378901
C123  C     C_R   0.391454 0.148555 0.117953 -0.066588
H45   H     H_    0.292072 0.173079 0.122185 0.167227
C124  C     C_R   0.377733 0.119683 0.087148 -0.066405
C125  C     C_R   0.509625 0.087666 0.082163 -0.135759
C126  C     C_R   0.654700 0.086593 0.107641 -0.160730
H46   H     H_    0.757581 0.062688 0.104502 0.133065
C127  C     C_R   0.667367 0.115750 0.137770 -0.060759
H47   H     H_    0.780230 0.114177 0.156955 0.134842
C128  C     C_R   0.535455 0.146806 0.143243 0.328739
O27   O     O_R   0.662230 0.032770 0.966890 -0.531575
O28   O     O_R   0.330090 0.043230 0.039150 -0.548674
O29   O     O_R   0.157350 0.967260 0.033130 -0.537330
C129  C     C_R   0.499014 0.054796 0.051404 0.684055
O30   O     O_R   0.332650 0.037450 0.967510 -0.540641
O31   O     O_R   0.159930 0.961430 0.960980 -0.538373
C130  C     C_R   0.502227 0.045877 0.956249 0.700468
O32   O     O_R   0.659640 0.038600 0.039040 -0.529419
O33   O     O_3   0.492510 0.975090 0.997960 -0.368310
V3    V     V_3+5 0.218600 0.004620 0.000380 1.426317
O34   O     O_R   0.830050 0.956730 0.960830 -0.541597
C131  C     C_R   0.999076 0.946383 0.947597 0.708063
O35   O     O_R   0.827490 0.962520 0.032470 -0.542716
C132  C     C_R   0.995639 0.953910 0.043809 0.705441
V4    V     V_3+5 0.718310 0.995320 0.999580 1.430090
O36   O     O_3   0.994270 0.024900 0.002040 -0.362814
C133  C     C_2   0.465214 0.653589 0.402071 0.451254
H48   H     H_    0.597159 0.648783 0.415865 0.070872
O37   O     O_2   0.454919 0.682468 0.387471 -0.507348
C134  C     C_2   0.412891 0.665684 0.204254 0.381829
H49   H     H_    0.351637 0.672489 0.179918 0.073038
O38   O     O_2   0.551516 0.643664 0.202131 -0.513802
C135  C     C_2   0.617648 0.484454 0.620125 0.388611
H50   H     H_    0.584012 0.505109 0.602486 0.035355
O39   O     O_2   0.656727 0.497414 0.651032 -0.500144
C136  C     C_2   0.596928 0.822920 0.735601 0.513383
H51   H     H_    0.453348 0.811882 0.728112 0.023976
O40   O     O_2   0.626547 0.858395 0.740316 -0.480299
C137  C     C_R   0.642075 0.178732 0.926285 0.084632
C138  C     C_R   0.532844 0.202719 0.952443 -0.088919
C139  C     C_R   0.584770 0.242173 0.963388 -0.100248
C140  C     C_R   0.746422 0.257865 0.948471 -0.096678
C141  C     C_R   0.856727 0.234100 0.922654 -0.111500
C142  C     C_R   0.805119 0.194668 0.911650 -0.113883
H52   H     H_    0.406598 0.190985 0.964063 0.125336
H53   H     H_    0.499564 0.260592 0.983412 0.125741
H54   H     H_    0.786459 0.288400 0.956981 0.118619
H55   H     H_    0.982538 0.246181 0.911236 0.132515
H56   H     H_    0.893027 0.176482 0.892005 0.184138
C143  C     C_2   0.925667 0.374101 0.438599 0.386771
H57   H     H_    0.056478 0.358184 0.429603 0.060851
O41   O     O_2   0.899121 0.384159 0.470468 -0.529524
C144  C     C_2   0.232465 0.124986 0.059908 0.399718
H58   H     H_    0.247427 0.110027 0.032709 0.051112
O42   O     O_2   0.094871 0.146858 0.067428 -0.517282
C145  C     C_R   0.133084 0.538788 0.630313 0.090279
C146  C     C_R   0.059599 0.503431 0.611168 -0.121027
C147  C     C_R   0.086702 0.467655 0.623225 -0.089636
C148  C     C_R   0.178139 0.466962 0.655515 -0.090538
C149  C     C_R   0.252208 0.501650 0.674882 -0.041305
C150  C     C_R   0.236314 0.537018 0.661776 -0.023382
H59   H     H_    0.973464 0.503307 0.587912 0.113187
H60   H     H_    0.031082 0.440579 0.608092 0.143715
H61   H     H_    0.192300 0.439600 0.665508 0.173541
H62   H     H_    0.326153 0.501005 0.699664 0.138646
H63   H     H_    0.300764 0.563319 0.676781 0.133921
C151  C     C_2   0.961994 0.606396 0.680222 0.434781
H64   H     H_    0.970257 0.629602 0.703171 0.049381
O43   O     O_2   0.865770 0.577130 0.682751 -0.490338

loop_
_geom_bond_atom_site_label_1
_geom_bond_atom_site_label_2
_ccdc_geom_bond_type
C32   C41   A    
O31   C131  A    
C19   C24   A    
C117  C118  A    
C29   H9    S    
C19   H4    S    
C59   C60   A    
C9    C16   A    
C54   C58   A    
C69   H32   S    
C146  H59   S    
C81   C97   A    
C44   C47   A    
C57   H22   S    
C142  H56   S    
C40   C62   A    
C81   C100  A    
C106  C111  A    
C133  O37   D    
C49   C50   A    
N4    C58   S    
C71   C78   A    
C25   C30   A    
C125  C129  S    
C28   H8    S    
N5    C68   A    
C90   C94   A    
C123  C124  A    
C13   C14   A    
C11   H2    S    
C20   C21   A    
C62   H16   S    
C79   C130  S    
C64   C65   A    
C47   H15   S    
C45   C64   A    
C76   C98   A    
C44   C46   A    
C145  C146  A    
O30   C130  A    
C129  O32   A    
C23   C151  S    
N4    C53   A    
C17   N2    A    
C48   C49   A    
C113  H40   S    
C143  O41   D    
C127  C128  A    
C103  N7    A    
O34   V4    S    
C104  O24   S    
C31   N3    A    
C90   C91   A    
C117  C122  A    
C113  C114  A    
O30   V3    S    
C36   H11   S    
C64   C134  S    
C63   H19   S    
C5    N1    A    
C138  C139  A    
C69   C73   A    
C35   C42   A    
C91   H27   S    
O29   C132  A    
C69   C70   A    
O33   V3    S    
C144  O42   D    
C70   C135  S    
O9    C4    A    
O1    C2    A    
C106  C107  A    
O8    V2    S    
C76   H26   S    
C53   O16   S    
C6    C7    A    
C145  C150  A    
C121  H44   S    
C5    O11   S    
C38   C60   A    
C26   C27   A    
C10   C11   A    
C99   H33   S    
C11   C12   A    
C116  O26   S    
C120  H43   S    
O1    V2    S    
C5    C9    A    
C18   O14   S    
C83   C84   A    
C141  C142  A    
C55   H13   S    
C45   C46   A    
C147  C148  A    
C67   C75   A    
C19   C20   A    
C117  H42   S    
C14   C18   A    
C74   C96   A    
N3    C37   S    
N2    C24   S    
C8    C9    A    
O35   C132  A    
C102  H37   S    
C80   C95   A    
C42   C132  S    
C123  C128  A    
C119  C120  A    
C135  O39   D    
C32   O17   S    
C101  H36   S    
O7    V1    S    
C16   C136  S    
C133  H48   S    
C8    C13   A    
C92   C93   A    
V4    O36   S    
C33   H18   S    
C103  C107  A    
C28   C29   A    
O31   V3    S    
C56   C57   A    
C75   C76   A    
C85   C89   A    
N8    C122  S    
C141  H55   S    
C33   C37   A    
C138  H52   S    
C110  C111  A    
C74   C75   A    
C109  H39   S    
C88   N6    A    
C34   H17   S    
C147  H60   S    
C61   C66   A    
C95   C98   A    
O28   V3    S    
C150  H63   S    
O4    C2    A    
C84   H29   S    
C100  H34   S    
C125  C126  A    
C39   C40   A    
C74   C77   A    
C15   H3    S    
C26   H7    S    
C12   C13   A    
C77   C99   A    
C56   H20   S    
C45   C61   A    
C83   H30   S    
C38   C39   A    
C17   O13   S    
N3    C32   A    
C2    C119  S    
C79   C92   A    
O2    C1    A    
C115  N8    A    
O5    V1    S    
C144  H58   S    
O29   V3    S    
C89   O20   S    
C44   C59   A    
N7    C128  S    
C46   C50   A    
N1    C30   S    
C67   N5    A    
C51   C52   A    
C7    C10   A    
O8    C3    A    
C103  O23   S    
C33   C34   A    
C71   H24   S    
C127  H47   S    
C143  H57   S    
C49   C53   A    
O33   V4    S    
C40   H12   S    
C134  O38   D    
C114  H41   S    
C27   C28   A    
C52   N4    A    
C22   C145  S    
N7    C104  A    
C72   C73   A    
C34   C42   A    
O3    C4    A    
N5    C73   S    
C109  C110  A    
C107  C114  A    
C27   C131  S    
C121  C122  A    
C108  C109  A    
C93   C137  S    
C54   C133  S    
O6    V2    S    
C10   H1    S    
C87   C101  A    
C136  O40   D    
O9    V2    S    
C63   C66   A    
C81   C82   A    
C86   C87   A    
C99   C102  A    
C3    C43   S    
C88   O22   S    
C135  H50   S    
C57   C58   A    
C104  C105  A    
O2    V1    S    
C115  O25   S    
C134  H49   S    
C71   C72   A    
C4    C21   S    
C100  C101  A    
C92   H35   S    
C105  C108  A    
C31   C39   A    
C12   C17   A    
C124  C125  A    
C23   C24   A    
C15   C16   A    
C108  H38   S    
C1    C78   S    
C48   H14   S    
C68   O21   S    
C151  O43   D    
C65   H21   S    
N2    C18   A    
C21   C22   A    
C110  C115  A    
C72   H25   S    
C118  C119  A    
C90   H28   S    
C6    O12   S    
O35   V4    S    
C82   C86   A    
C120  C121  A    
C87   C88   A    
C1    O6    A    
C67   O19   S    
C66   H23   S    
C111  C112  A    
C59   C62   A    
C149  C150  A    
C85   C86   A    
V3    O36   S    
C139  H53   S    
C38   C41   A    
C35   C36   A    
C29   C30   A    
C146  C147  A    
C31   O15   S    
O28   C129  A    
O27   V4    S    
C149  H62   S    
O3    V1    S    
C97   C102  A    
C95   C96   A    
C148  C149  A    
O5    C3    A    
C41   C63   A    
C137  C142  A    
V1    O10   S    
C112  C113  A    
C80   C83   A    
C25   H6    S    
V2    O10   S    
C139  C140  A    
C118  C143  S    
C25   C26   A    
C137  C138  A    
C52   O18   S    
C51   C65   A    
C98   H31   S    
C93   C94   A    
C36   C37   A    
O32   V4    S    
O7    V2    S    
C60   C61   A    
C136  H51   S    
C112  C116  A    
N6    C94   S    
C105  C106  A    
C47   C48   A    
C22   C23   A    
C43   C55   A    
O4    V1    S    
C7    C8    A    
C54   C55   A    
C80   C82   A    
C140  H54   S    
C20   H5    S    
C43   C56   A    
C14   C15   A    
C126  C127  A    
N1    C6    A    
C126  H46   S    
C96   C97   A    
C84   C85   A    
C68   C77   A    
N8    C116  A    
C123  H45   S    
C50   C51   A    
C148  H61   S    
N6    C89   A    
O34   C131  A    
C79   C91   A    
C140  C141  A    
C35   H10   S    
C70   C78   A    
C151  H64   S    
O27   C130  A    
C124  C144  S    
