data_mof_unit_23932.cif
_audit_creation_date              2012-12-10T18:22:26-0500
_audit_creation_method            fapswitch 2.2
_symmetry_space_group_name_H-M    P1
_symmetry_Int_Tables_number       1
_space_group_crystal_system       triclinic
_cell_length_a                    23.524374
_cell_length_b                    10.627921
_cell_length_c                    9.436771
_cell_angle_alpha                 90.165995
_cell_angle_beta                  90.320626
_cell_angle_gamma                 90.012351
_cell_volume                      2359.28917391

loop_
_atom_site_label
_atom_site_type_symbol
_atom_type_description
_atom_site_fract_x
_atom_site_fract_y
_atom_site_fract_z
_atom_type_partial_charge
C1    C     C_R   0.500133 0.259715 0.499650 0.815602
C2    C     C_R   0.499868 0.740285 0.500350 0.815601
C3    C     C_R   0.237299 0.568424 0.396301 0.158497
C4    C     C_R   0.762700 0.431559 0.603668 0.158495
C5    C     C_R   0.297017 0.569122 0.391815 0.074222
C6    C     C_R   0.702982 0.430848 0.608149 0.074206
C7    C     C_R   0.328487 0.506425 0.499151 -0.119395
C8    C     C_R   0.671512 0.493593 0.500851 -0.119390
C9    C     C_R   0.299531 0.447685 0.610505 -0.303150
C10   C     C_R   0.700467 0.552398 0.389541 -0.303154
C11   C     C_R   0.240182 0.447690 0.614952 0.157829
C12   C     C_R   0.759816 0.552408 0.385101 0.157824
C13   C     C_R   0.209087 0.507231 0.507206 0.331953
C14   C     C_R   0.790912 0.492818 0.492809 0.331932
C15   C     C_3   0.546556 0.042204 0.571027 -0.203982
C16   C     C_3   0.453445 0.957795 0.428973 -0.203979
C17   C     C_3   0.546033 0.958425 0.438056 0.200440
C18   C     C_3   0.453968 0.041575 0.561944 0.200437
C19   C     C_3   0.499508 0.876804 0.501425 -0.025864
C20   C     C_3   0.500493 0.123195 0.498575 -0.025868
C21   C     C_3   0.498790 0.959496 0.636197 -0.213918
C22   C     C_3   0.501210 0.040504 0.363803 -0.213920
C23   C     C_R   0.391097 0.502720 0.499528 0.823131
C24   C     C_R   0.608902 0.497284 0.500471 0.823124
C25   C     C_3   0.509521 0.612519 0.051281 -0.082827
C26   C     C_3   0.490479 0.387481 0.948719 -0.082831
C27   C     C_3   0.461742 0.572315 0.951069 0.290142
C28   C     C_3   0.538258 0.427685 0.048931 0.290139
C29   C     C_3   0.548756 0.538365 0.949863 -0.126373
C30   C     C_3   0.451245 0.461635 0.050137 -0.126367
C31   C     C_R   0.879406 0.601882 0.534859 0.589819
C32   C     C_R   0.120593 0.398174 0.465163 0.589806
C33   C     C_R   0.880929 0.390280 0.449056 0.598932
C34   C     C_R   0.119073 0.609783 0.550944 0.598931
C35   C     C_R   0.940980 0.388568 0.452033 -0.018062
C36   C     C_R   0.059021 0.611496 0.547978 -0.018060
C37   C     C_R   0.969951 0.498562 0.497572 -0.061551
C38   C     C_R   0.030050 0.501501 0.502441 -0.061546
C39   C     C_R   0.938896 0.605837 0.538512 -0.036281
C40   C     C_R   0.061104 0.394228 0.461494 -0.036280
C41   C     C_R   0.972959 0.281348 0.411955 0.159935
C42   C     C_R   0.027042 0.718722 0.588035 0.159928
C43   C     C_R   0.032352 0.285485 0.416992 -0.215432
C44   C     C_R   0.967648 0.714589 0.582986 -0.215422
Cu1   Cu    Cu3+1 0.500010 0.499990 0.643150 0.949466
Cu2   Cu    Cu3+1 0.499990 0.500010 0.356850 0.949465
N1    N     N_R   0.851904 0.495395 0.490941 -0.444158
N2    N     N_R   0.148097 0.504661 0.509075 -0.444155
N3    N     N_3   0.500040 0.499970 0.858290 -0.159113
N4    N     N_3   0.499960 0.500030 0.141710 -0.159111
O1    O     O_R   0.500030 0.316850 0.620870 -0.598414
O2    O     O_R   0.499970 0.683150 0.379130 -0.598417
O3    O     O_R   0.500000 0.316860 0.379090 -0.556631
O4    O     O_R   0.500000 0.683140 0.620910 -0.556631
O5    O     O_R   0.417890 0.499960 0.620920 -0.572235
O6    O     O_R   0.582110 0.500040 0.379080 -0.572232
O7    O     O_R   0.417870 0.499970 0.379140 -0.591412
O8    O     O_R   0.582130 0.500030 0.620860 -0.591414
O9    O     O_2   0.849088 0.703361 0.575822 -0.533857
O10   O     O_2   0.150912 0.296687 0.424218 -0.533860
O11   O     O_2   0.851428 0.288438 0.405075 -0.495345
O12   O     O_2   0.148575 0.711632 0.594899 -0.495334
N5    N     N_3   0.945828 0.167303 0.366376 -0.503554
H1    H     H_    0.958930 0.094725 0.433659 0.215879
H2    H     H_    0.960005 0.146095 0.264234 0.224320
N6    N     N_3   0.054174 0.832783 0.633562 -0.503552
H3    H     H_    0.041134 0.905290 0.566106 0.215926
H4    H     H_    0.039936 0.854140 0.735610 0.224286
N7    N     N_3   0.418628 0.655579 0.892000 -0.561769
H5    H     H_    0.403141 0.710505 0.975302 0.188995
H6    H     H_    0.384724 0.599345 0.858145 0.221980
N8    N     N_3   0.581372 0.344421 0.108000 -0.561771
H7    H     H_    0.596859 0.289494 0.024699 0.188990
H8    H     H_    0.615276 0.400654 0.141856 0.221989
H9    H     H_    0.516614 0.707157 0.098213 0.120978
H10   H     H_    0.483386 0.292842 0.901787 0.120979
H11   H     H_    0.589587 0.570188 0.903912 0.121487
H12   H     H_    0.410414 0.429802 0.096085 0.121469
H13   H     H_    0.055859 0.202330 0.385663 0.186757
H14   H     H_    0.944141 0.797752 0.614292 0.186763
N9    N     N_3   0.204538 0.629027 0.287629 -0.563840
H15   H     H_    0.215382 0.589018 0.190104 0.235751
H16   H     H_    0.215743 0.724206 0.285724 0.258030
N10   N     N_3   0.795462 0.370897 0.712294 -0.563823
H17   H     H_    0.784261 0.275714 0.714124 0.258049
H18   H     H_    0.784615 0.410844 0.809848 0.235750
N11   N     N_3   0.324272 0.637483 0.280238 -0.605110
H19   H     H_    0.353880 0.699828 0.324472 0.221686
H20   H     H_    0.344962 0.573949 0.213613 0.233954
N12   N     N_3   0.675726 0.362430 0.719679 -0.605097
H21   H     H_    0.655030 0.425931 0.786332 0.233959
H22   H     H_    0.646120 0.300104 0.675399 0.221663
H23   H     H_    0.323004 0.400196 0.693819 0.168757
H24   H     H_    0.676992 0.599927 0.306258 0.168762
N13   N     N_3   0.211138 0.387104 0.728884 -0.562306
H25   H     H_    0.224837 0.428270 0.823880 0.218902
H26   H     H_    0.223421 0.292569 0.730146 0.241512
N14   N     N_3   0.788859 0.613049 0.271206 -0.562298
H27   H     H_    0.776570 0.707581 0.269991 0.241527
H28   H     H_    0.775164 0.571916 0.176190 0.218902
N15   N     N_3   0.596948 0.908909 0.370856 -0.588365
H29   H     H_    0.620614 0.985885 0.335830 0.225182
H30   H     H_    0.584027 0.859354 0.280439 0.211395
N16   N     N_3   0.403053 0.091091 0.629145 -0.588349
H31   H     H_    0.379387 0.014115 0.664175 0.225185
H32   H     H_    0.415973 0.140649 0.719560 0.211399
H33   H     H_    0.585020 0.078625 0.626146 0.141236
H34   H     H_    0.414981 0.921374 0.373854 0.141237
H35   H     H_    0.496557 0.925123 0.747028 0.156155
H36   H     H_    0.503443 0.074876 0.252972 0.156155

loop_
_geom_bond_atom_site_label_1
_geom_bond_atom_site_label_2
_ccdc_geom_bond_type
N6    H4    S    
N11   H19   S    
N5    H2    S    
N15   H29   S    
C18   C21   S    
C41   C43   A    
C36   C42   A    
N13   H25   S    
N16   H32   S    
N9    H15   S    
C29   N3    S    
Cu1   Cu2   S    
Cu1   O1    S    
C28   C29   S    
C35   C37   A    
N10   H18   S    
C16   C19   S    
C33   C35   A    
C10   H24   S    
C43   H13   S    
Cu2   O2    S    
C34   O12   S    
C18   C20   S    
C15   C17   S    
C15   H33   S    
N7    H6    S    
C17   N15   S    
C25   N4    S    
C1    O3    A    
C8    C24   S    
C28   N4    S    
C40   C43   A    
C22   H36   S    
C3    N9    S    
C26   H10   S    
C12   N14   S    
C3    C13   A    
N6    H3    S    
C30   N4    S    
N15   H30   S    
C31   N1    A    
C27   C30   S    
C32   N2    A    
C28   N8    S    
C42   C44   A    
C10   C12   A    
N16   H31   S    
N9    H16   S    
C25   C29   S    
C15   C20   S    
Cu1   O8    S    
C24   O8    A    
C44   H14   S    
N10   H17   S    
N8    H8    S    
C2    O4    A    
C26   N3    S    
C5    C7    A    
C6    C8    A    
C6    N12   S    
C25   H9    S    
C31   O9    S    
C30   H12   S    
C37   C38   A    
C1    O1    A    
N12   H22   S    
C4    N10   S    
Cu1   N3    S    
C29   H11   S    
C18   N16   S    
C9    C11   A    
C39   C44   A    
C2    O2    A    
C4    C6    A    
C20   C22   S    
Cu1   O4    S    
C26   C30   S    
N14   H28   S    
N11   H20   S    
Cu2   O7    S    
C33   N1    A    
C24   O6    A    
C32   O10   S    
C9    H23   S    
C11   N13   S    
C23   O7    A    
C1    C20   S    
C16   C22   S    
C19   C21   S    
C2    C19   S    
C8    C10   A    
C12   C14   A    
N8    H7    S    
C3    C5    A    
C27   N7    S    
C13   N2    S    
C21   H35   S    
N13   H26   S    
C23   O5    A    
C14   N1    S    
C25   C27   S    
Cu2   N4    S    
C26   C28   S    
C17   C22   S    
C36   C38   A    
C37   C39   A    
C38   C40   A    
C11   C13   A    
N12   H21   S    
C33   O11   S    
C7    C23   S    
Cu2   O3    S    
C17   C19   S    
C31   C39   A    
C34   C36   A    
C32   C40   A    
C4    C14   A    
N7    H5    S    
C35   C41   A    
C16   H34   S    
N5    H1    S    
C5    N11   S    
C7    C9    A    
C15   C21   S    
C34   N2    A    
Cu1   O5    S    
C16   C18   S    
N14   H27   S    
Cu2   O6    S    
C42   N6    S    
C41   N5    S    
C27   N3    S    
