data_mof_unit_7652.cif
_audit_creation_date              2012-12-10T18:50:00-0500
_audit_creation_method            fapswitch 2.2
_symmetry_space_group_name_H-M    P1
_symmetry_Int_Tables_number       1
_space_group_crystal_system       triclinic
_cell_length_a                    10.653288
_cell_length_b                    9.90434
_cell_length_c                    10.66771
_cell_angle_alpha                 90.238352
_cell_angle_beta                  91.309212
_cell_angle_gamma                 90.016486
_cell_volume                      1125.28681868

loop_
_atom_site_label
_atom_site_type_symbol
_atom_type_description
_atom_site_fract_x
_atom_site_fract_y
_atom_site_fract_z
_atom_type_partial_charge
C1    C     C_R   0.260425 0.499981 0.499879 0.924739
C2    C     C_R   0.566332 0.928707 0.589220 -0.127853
C3    C     C_R   0.433894 0.928486 0.409817 0.484587
C4    C     C_R   0.434055 0.070758 0.409713 0.503031
C5    C     C_R   0.501135 0.499944 0.257919 0.975013
C6    C     C_R   0.739733 0.500018 0.500204 0.996950
C7    C     C_R   0.500451 0.500627 0.742135 1.009599
C8    C     C_3   0.508454 0.648701 0.073870 -0.590329
C9    C     C_3   0.377131 0.438044 0.070978 -0.569175
C10   C     C_3   0.506506 0.652711 0.929956 0.785301
C11   C     C_3   0.377428 0.430881 0.925504 0.795698
C12   C     C_3   0.618283 0.424469 0.928450 -0.724541
C13   C     C_3   0.616593 0.415658 0.073589 0.818762
C14   C     C_3   0.502256 0.500181 0.121493 -0.092037
C15   C     C_3   0.500290 0.502463 0.878752 -0.081585
C16   C     C_R   0.067449 0.410012 0.577759 -0.250756
C17   C     C_R   0.063853 0.589996 0.422379 -0.308215
C18   C     C_R   0.937734 0.410136 0.579632 0.370798
C19   C     C_R   0.934075 0.589964 0.420708 0.424105
C20   C     C_R   0.872592 0.500050 0.500192 -0.116272
C21   C     C_R   0.128340 0.499960 0.499983 -0.085484
C22   C     C_R   0.566251 0.072159 0.589295 -0.133725
H1    H     H_    0.426247 0.705889 0.109076 0.250769
H2    H     H_    0.343712 0.224522 0.345490 0.365042
H3    H     H_    0.411738 0.820687 0.910403 0.363835
H4    H     H_    0.196001 0.445639 0.899443 0.350693
H5    H     H_    0.689592 0.691057 0.931152 0.308985
H6    H     H_    0.430375 0.239372 0.933170 0.355419
H7    H     H_    0.749990 0.552686 0.095012 0.318525
H8    H     H_    0.679922 0.231174 0.088370 0.363033
H9    H     H_    0.705928 0.472674 0.896256 0.203381
H10   H     H_    0.621679 0.321398 0.886828 0.230568
H11   H     H_    0.933751 0.271281 0.708614 0.343303
H12   H     H_    0.297191 0.501047 0.102833 0.185928
H13   H     H_    0.924181 0.728789 0.291696 0.342710
H14   H     H_    0.120953 0.342415 0.638266 0.181497
H15   H     H_    0.114521 0.657645 0.361860 0.159036
H16   H     H_    0.619398 0.126408 0.660973 0.193247
H17   H     H_    0.619657 0.875179 0.660723 0.213031
H18   H     H_    0.592213 0.701984 0.113812 0.209990
H19   H     H_    0.361672 0.336150 0.111389 0.239737
H20   H     H_    0.342843 0.774367 0.346027 0.362152
N1    N     N_R   0.499970 0.857200 0.499970 -0.172910
N2    N     N_R   0.499970 0.142800 0.499970 -0.175235
O1    O     O_R   0.316750 0.614620 0.499990 -0.642886
O2    O     O_3   0.363870 0.133056 0.316937 -0.710705
O3    O     O_3   0.398741 0.723964 0.888650 -0.673699
O4    O     O_3   0.271102 0.498872 0.876654 -0.713156
O5    O     O_3   0.613093 0.721650 0.885248 -0.783371
O6    O     O_3   0.370746 0.295300 0.883253 -0.757191
O7    O     O_3   0.730727 0.462217 0.128550 -0.750454
O8    O     O_3   0.600989 0.279485 0.107882 -0.726919
O9    O     O_3   0.872969 0.326695 0.659348 -0.766808
O10   O     O_3   0.865664 0.673566 0.341187 -0.735257
O11   O     O_R   0.316750 0.385380 0.499990 -0.655083
O12   O     O_R   0.499970 0.614670 0.314790 -0.643793
O13   O     O_R   0.499970 0.385330 0.314790 -0.588719
O14   O     O_R   0.683220 0.614710 0.500010 -0.591511
O15   O     O_R   0.683220 0.385290 0.500010 -0.577977
O16   O     O_R   0.500010 0.614660 0.685200 -0.561539
O17   O     O_R   0.500010 0.385340 0.685200 -0.606697
O18   O     O_3   0.363142 0.865494 0.317383 -0.737215
Zn1   Zn    Zn3+2 0.499980 0.653120 0.500000 1.009468
Zn2   Zn    Zn3+2 0.499980 0.346880 0.500000 1.012169

loop_
_geom_bond_atom_site_label_1
_geom_bond_atom_site_label_2
_ccdc_geom_bond_type
C2    C22   A    
O17   Zn2   S    
C9    C14   S    
C1    C21   S    
C16   C21   A    
H4    O4    S    
C13   O8    S    
C6    C20   S    
C6    O14   A    
C5    O12   A    
C9    H19   S    
C19   C20   A    
C12   C15   S    
C5    O13   A    
C2    N1    A    
C3    N1    A    
O11   Zn2   S    
C7    C15   S    
C5    C14   S    
O12   Zn1   S    
N1    Zn1   S    
C11   O6    S    
C4    O2    S    
C13   C14   S    
C12   H10   S    
H13   O10   S    
H11   O9    S    
C9    C11   S    
N2    Zn2   S    
C1    O1    A    
C11   O4    S    
H8    O8    S    
O16   Zn1   S    
H6    O6    S    
C19   O10   S    
C8    C10   S    
C17   C19   A    
C18   C20   A    
C10   C15   S    
C12   H9    S    
C1    O11   A    
C9    H12   S    
C17   C21   A    
C17   H15   S    
C3    C4    A    
C22   H16   S    
O15   Zn2   S    
C7    O16   A    
C10   O3    S    
C8    H1    S    
C12   C13   S    
O13   Zn2   S    
C16   C18   A    
H7    O7    S    
C3    O18   S    
O14   Zn1   S    
H20   O18   S    
C22   N2    A    
C7    O17   A    
C8    C14   S    
H3    O3    S    
C8    H18   S    
C18   O9    S    
C13   O7    S    
C10   O5    S    
C11   C15   S    
C6    O15   A    
O1    Zn1   S    
C16   H14   S    
C2    H17   S    
H5    O5    S    
C4    N2    A    
H2    O2    S    
