data_mof_unit_28297.cif
_audit_creation_date              2013-03-05T16:32:17-0500
_audit_creation_method            fapswitch 2.2
_symmetry_space_group_name_H-M    P1
_symmetry_Int_Tables_number       1
_space_group_crystal_system       triclinic
_cell_length_a                    15.862036
_cell_length_b                    10.848672
_cell_length_c                    9.619657
_cell_angle_alpha                 91.165837
_cell_angle_beta                  90.959391
_cell_angle_gamma                 90.671059
_cell_volume                      1654.67509857

loop_
_atom_site_label
_atom_site_type_symbol
_atom_site_description
_atom_site_fract_x
_atom_site_fract_y
_atom_site_fract_z
_atom_type_partial_charge
O1    O     O_R   0.500000 0.319640 0.618810 -0.587164
O2    O     O_R   0.500010 0.319680 0.381230 -0.576630
C1    C     C_R   0.499680 0.262843 0.498550 0.802111
O3    O     O_R   0.379430 0.499990 0.618840 -0.592361
O4    O     O_R   0.379440 0.500030 0.381260 -0.523061
C2    C     C_R   0.340396 0.500117 0.499086 0.834891
Cu1   Cu    Cu3+1 0.500000 0.499980 0.640670 1.016500
Cu2   Cu    Cu3+1 0.500000 0.500020 0.359330 1.069187
O5    O     O_R   0.499990 0.680320 0.618770 -0.541646
O6    O     O_R   0.500000 0.680360 0.381190 -0.541880
O7    O     O_R   0.620560 0.499970 0.618740 -0.583360
O8    O     O_R   0.620570 0.500010 0.381160 -0.577994
C3    C     C_R   0.500590 0.737589 0.500768 0.838026
C4    C     C_R   0.659608 0.500457 0.500922 0.832013
C5    C     C_3   0.050729 0.454251 0.637591 -0.393872
C6    C     C_3   0.046448 0.424642 0.380474 -0.363480
C7    C     C_3   0.949004 0.423178 0.381629 -0.374748
H1    H     H_    0.069425 0.452448 0.277400 0.243984
H2    H     H_    0.069064 0.328753 0.394046 0.198210
H3    H     H_    0.924124 0.455436 0.279942 0.198042
C8    C     C_1   0.749304 0.502261 0.502754 -0.118082
C9    C     C_3   0.082937 0.509311 0.499980 0.085657
C10   C     C_3   0.953212 0.459874 0.641397 -0.359620
C11   C     C_3   0.917111 0.506665 0.501478 0.184216
C12   C     C_3   0.950046 0.639622 0.478116 -0.403024
C13   C     C_3   0.049403 0.646015 0.489595 0.537486
C14   C     C_1   0.824898 0.504187 0.502716 -0.043021
C15   C     C_1   0.175206 0.505163 0.497770 0.033540
C16   C     C_1   0.250745 0.502284 0.497308 -0.023599
H4    H     H_    0.078458 0.504354 0.729766 0.233022
H5    H     H_    0.933918 0.522391 0.728036 0.213383
H6    H     H_    0.927886 0.669073 0.373713 0.206524
C17   C     C_R   0.539534 0.068041 0.605451 0.004411
C18   C     C_R   0.504438 0.130148 0.494252 -0.060996
C19   C     C_R   0.478586 0.061675 0.375290 -0.151999
H7    H     H_    0.454581 0.106978 0.283701 0.194613
C20   C     C_R   0.477901 0.932897 0.377862 -0.073908
H8    H     H_    0.452991 0.882181 0.287838 0.213020
C21   C     C_R   0.504380 0.871298 0.498551 -0.087559
C22   C     C_R   0.541673 0.941496 0.606852 0.036424
C23   C     C_3   0.535294 0.942981 0.762694 0.539564
C24   C     C_3   0.530302 0.083476 0.758557 -0.496176
H9    H     H_    0.467996 0.121456 0.787246 0.223474
C25   C     C_R   0.573493 0.491463 0.075103 0.082732
N1    N     N_R   0.500530 0.500930 0.147930 -0.221855
C26   C     C_R   0.426642 0.487133 0.069344 0.427519
C27   C     C_R   0.427117 0.491730 0.922266 -0.019642
H10   H     H_    0.367939 0.483446 0.865671 0.176902
N2    N     N_R   0.500530 0.500890 0.852020 -0.190776
C28   C     C_R   0.573453 0.491644 0.928733 0.143065
C29   C     C_3   0.649008 0.574602 0.926452 -0.432924
C30   C     C_3   0.650814 0.571508 0.084915 0.138561
H11   H     H_    0.927210 0.366498 0.662546 0.188351
N3    N     N_R   0.458434 0.883010 0.813009 0.122668
O9    O     O_R   0.463089 0.795288 0.902775 -0.285413
O10   O     O_R   0.384846 0.912027 0.762282 -0.323629
N4    N     N_R   0.612718 0.903086 0.833192 0.116634
O11   O     O_R   0.674046 0.855772 0.762159 -0.372788
O12   O     O_R   0.626803 0.936208 0.962276 -0.278047
H12   H     H_    0.585440 0.133164 0.806857 0.210131
N5    N     N_R   0.348644 0.453759 0.130348 0.122171
O13   O     O_R   0.282680 0.521612 0.109707 -0.315005
O14   O     O_R   0.338253 0.341554 0.172806 -0.357395
H13   H     H_    0.070814 0.356627 0.645862 0.199463
H14   H     H_    0.704091 0.528587 0.879007 0.171447
H15   H     H_    0.633427 0.665194 0.883035 0.281310
H16   H     H_    0.706538 0.522969 0.128098 0.107941
N6    N     N_R   0.636934 0.691824 0.151494 0.196516
O15   O     O_R   0.568240 0.752664 0.127617 -0.276531
O16   O     O_R   0.692772 0.737028 0.239618 -0.330765
H17   H     H_    0.925619 0.326979 0.394396 0.194581
N7    N     N_R   0.077565 0.717534 0.615985 0.125365
O17   O     O_R   0.024738 0.755527 0.709269 -0.328364
O18   O     O_R   0.157646 0.737454 0.640192 -0.278514
N8    N     N_R   0.082518 0.707246 0.365124 0.117653
O19   O     O_R   0.127191 0.808458 0.377382 -0.250021
O20   O     O_R   0.060932 0.668435 0.240511 -0.341433
H18   H     H_    0.918878 0.704577 0.550877 0.215970

loop_
_geom_bond_atom_site_label_1
_geom_bond_atom_site_label_2
_geom_bond_distance
_ccdc_geom_bond_type
N7    O18   1.302335 A    
C13   N7    1.488312 S    
C23   C24   1.528456 S    
C19   H7    1.083314 S    
C11   C14   1.462872 S    
Cu1   Cu2   2.706403 S    
C27   N2    1.359745 A    
N1    C26   1.388924 A    
Cu1   O7    1.927435 S    
C17   C24   1.488782 S    
C4    C8    1.422482 S    
C15   C16   1.199052 T    
C19   C20   1.397715 A    
O4    C2    1.300666 A    
O7    C4    1.300717 A    
N4    O12   1.300624 A    
C7    H3    1.113249 S    
C18   C19   1.404322 A    
C29   H14   1.111406 S    
N5    O14   1.301353 A    
O5    C3    1.305200 A    
Cu2   N1    2.033978 S    
N3    O9    1.299900 A    
C5    C9    1.554942 S    
C6    C7    1.545786 S    
C5    H13   1.113546 S    
C10   H11   1.113135 S    
C30   N6    1.462813 S    
C25   C30   1.495015 S    
C12   H6    1.112717 S    
C5    C10   1.549748 S    
C8    C14   1.199007 T    
C9    C15   1.465302 S    
O3    Cu1   1.920485 S    
C17   C18   1.387917 A    
N3    O10   1.302112 A    
C17   C22   1.373996 A    
C26   N5    1.424306 S    
C12   H18   1.109309 S    
C7    C11   1.547003 S    
C11   C12   1.550305 S    
Cu1   N2    2.032814 S    
O3    C2    1.298707 A    
C24   H12   1.111999 S    
C21   C22   1.397064 A    
N6    O15   1.300116 A    
C1    C18   1.442217 S    
C28   C29   1.491017 S    
C12   C13   1.578641 S    
C29   C30   1.525211 S    
O1    C1    1.299512 A    
C29   H15   1.104700 S    
C10   H5    1.112961 S    
N8    O19   1.302077 A    
C20   H8    1.082984 S    
C27   H10   1.079125 S    
Cu2   O8    1.920482 S    
C13   N8    1.481925 S    
C6    H1    1.108451 S    
N8    O20   1.301462 A    
C30   H16   1.112934 S    
Cu2   O6    1.963460 S    
C22   C23   1.504024 S    
O8    C4    1.298665 A    
C7    H17   1.113337 S    
C24   H9    1.112085 S    
C25   N1    1.366677 A    
C5    H4    1.112143 S    
C25   C28   1.408065 A    
Cu1   O5    1.972017 S    
C26   C27   1.416871 A    
C6    C9    1.556478 S    
O1    Cu1   1.963460 S    
O2    Cu2   1.972017 S    
N7    O17   1.302128 A    
O6    C3    1.295839 A    
O4    Cu2   1.927438 S    
O2    C1    1.297057 A    
C23   N4    1.466962 S    
C20   C21   1.411633 A    
N4    O11   1.302464 A    
C6    H2    1.113815 S    
N5    O13   1.301194 A    
C23   N3    1.468969 S    
C3    C21   1.451708 S    
C10   C11   1.551138 S    
C2    C16   1.422335 S    
N6    O16   1.300529 A    
N2    C28   1.367395 A    
C9    C13   1.585914 S    
