data_mof_unit_22755.cif
_audit_creation_date              2012-12-11T17:08:30-0500
_audit_creation_method            fapswitch 2.2
_symmetry_space_group_name_H-M    P1
_symmetry_Int_Tables_number       1
_space_group_crystal_system       triclinic
_cell_length_a                    6.961494
_cell_length_b                    14.521271
_cell_length_c                    16.088869
_cell_angle_alpha                 90.015543
_cell_angle_beta                  90.019406
_cell_angle_gamma                 90.02291
_cell_volume                      1626.419316

loop_
_atom_site_label
_atom_site_type_symbol
_atom_type_description
_atom_site_fract_x
_atom_site_fract_y
_atom_site_fract_z
_atom_type_partial_charge
O1    O     O_R   0.505700 0.583890 0.413310 -0.536632
O2    O     O_R   0.175960 0.594920 0.586080 -0.544209
O3    O     O_R   0.005660 0.416110 0.586690 -0.538899
C1    C     C_R   0.344770 0.616891 0.614856 0.691130
O4    O     O_R   0.175980 0.594920 0.413930 -0.543289
O5    O     O_R   0.005680 0.416110 0.413310 -0.533054
C2    C     C_R   0.344759 0.616894 0.385147 0.696731
O6    O     O_R   0.505680 0.583890 0.586690 -0.537728
O7    O     O_3   0.339200 0.441330 0.500000 -0.363884
V1    V     V_3+5 0.064350 0.510880 0.500000 1.396128
O8    O     O_R   0.675960 0.405080 0.413920 -0.533531
C3    C     C_R   0.845257 0.381067 0.386853 0.694776
O9    O     O_R   0.675940 0.405080 0.586070 -0.542899
C4    C     C_R   0.844723 0.383067 0.614822 0.686074
V2    V     V_3+5 0.564340 0.489120 0.500000 1.410024
O10   O     O_3   0.839360 0.558670 0.500000 -0.373462
C5    C     C_R   0.007189 0.317289 0.741361 0.100892
C6    C     C_R   0.852682 0.317613 0.685496 -0.110995
C7    C     C_R   0.700987 0.255818 0.701236 -0.177259
C8    C     C_R   0.712174 0.191647 0.766763 -0.178562
H1    H     H_    0.597256 0.142241 0.774286 0.127693
C9    C     C_R   0.875728 0.187074 0.818350 -0.111078
C10   C     C_R   0.018716 0.253522 0.805963 0.102794
C11   C     C_3   0.229290 0.241068 0.793994 -0.409575
C12   C     C_3   0.216854 0.310928 0.723930 -0.398232
H2    H     H_    0.265089 0.170484 0.772258 0.166786
H3    H     H_    0.313656 0.265966 0.848201 0.175390
H4    H     H_    0.293273 0.376400 0.737777 0.167944
C13   C     C_R   0.740478 0.253442 0.186419 0.092100
C14   C     C_R   0.883399 0.185953 0.182420 -0.173982
C15   C     C_R   0.025191 0.186975 0.244892 -0.180459
H5    H     H_    0.139628 0.136470 0.243409 0.137046
C16   C     C_R   0.011069 0.246169 0.314355 0.336170
C17   C     C_R   0.858236 0.311615 0.319273 -0.196012
C18   C     C_R   0.729954 0.315376 0.252192 0.046845
C19   C     C_3   0.515577 0.313491 0.251655 -0.375924
C20   C     C_3   0.527516 0.245667 0.179783 -0.379754
H6    H     H_    0.452966 0.381025 0.233683 0.162806
H7    H     H_    0.472220 0.274211 0.120322 0.164778
H8    H     H_    0.474190 0.175730 0.195836 0.178036
C21   C     C_R   0.507014 0.682565 0.741540 0.100330
C22   C     C_R   0.352735 0.682320 0.685559 -0.111648
C23   C     C_R   0.201136 0.744142 0.701228 -0.178345
C24   C     C_R   0.212307 0.808330 0.766760 -0.177874
H9    H     H_    0.097517 0.857779 0.774217 0.127313
C25   C     C_R   0.375730 0.812871 0.818424 -0.111440
C26   C     C_R   0.518517 0.746348 0.806151 0.102810
C27   C     C_3   0.729217 0.758647 0.794399 -0.408881
C28   C     C_3   0.716812 0.688756 0.724318 -0.398552
H10   H     H_    0.765464 0.829194 0.772707 0.166113
H11   H     H_    0.792832 0.623235 0.738241 0.168265
H12   H     H_    0.746675 0.718523 0.662001 0.170215
C29   C     C_R   0.506801 0.682447 0.258406 0.100525
C30   C     C_R   0.352692 0.682314 0.314441 -0.113296
C31   C     C_R   0.201263 0.744261 0.298822 -0.177370
C32   C     C_R   0.212518 0.808468 0.233325 -0.174789
C33   C     C_R   0.375848 0.812907 0.181631 -0.110639
C34   C     C_R   0.518382 0.746237 0.193832 0.101955
C35   C     C_3   0.729208 0.758256 0.205485 -0.408895
C36   C     C_3   0.716712 0.688342 0.275516 -0.397688
H13   H     H_    0.812793 0.733244 0.151133 0.175549
H14   H     H_    0.747046 0.718032 0.337842 0.170485
H15   H     H_    0.792254 0.622718 0.261488 0.169208
O11   O     O_R   0.229000 0.916070 0.913330 -0.539518
O12   O     O_R   0.558770 0.905070 0.086080 -0.539316
O13   O     O_R   0.729000 0.083900 0.086690 -0.536321
C37   C     C_R   0.389734 0.883144 0.114946 0.695670
O14   O     O_R   0.558720 0.905070 0.913930 -0.539837
O15   O     O_R   0.728960 0.083900 0.913310 -0.539991
C38   C     C_R   0.389642 0.883135 0.885090 0.693825
O16   O     O_R   0.229050 0.916070 0.086710 -0.540299
O17   O     O_3   0.395460 0.058650 0.000020 -0.369748
V3    V     V_3+5 0.670340 0.989120 0.000000 1.394258
O18   O     O_R   0.058670 0.094960 0.913900 -0.540018
C39   C     C_R   0.889609 0.116849 0.885046 0.692795
O19   O     O_R   0.058720 0.094960 0.086050 -0.543793
C40   C     C_R   0.890100 0.116983 0.114695 0.714840
V4    V     V_3+5 0.170330 0.010930 0.999970 1.390062
O20   O     O_3   0.895340 0.941350 0.999980 -0.369350
H16   H     H_    0.578409 0.253619 0.660099 0.136204
H17   H     H_    0.456123 0.282913 0.309367 0.225058
H18   H     H_    0.078670 0.746357 0.660030 0.132996
H19   H     H_    0.813172 0.733717 0.848688 0.175885
H20   H     H_    0.078871 0.746552 0.340027 0.132868
H21   H     H_    0.097850 0.857997 0.225910 0.127505
H22   H     H_    0.765947 0.828745 0.227219 0.167622
H23   H     H_    0.246231 0.281105 0.661577 0.172847
O21   O     O_3   0.141232 0.232751 0.377911 -0.656473
H24   H     H_    0.084811 0.255003 0.430658 0.284152

loop_
_geom_bond_atom_site_label_1
_geom_bond_atom_site_label_2
_ccdc_geom_bond_type
C31   C32   A    
C21   C22   A    
C4    C6    S    
C7    C8    A    
C11   H3    S    
C1    O6    A    
C32   H21   S    
C29   C30   A    
C12   H4    S    
C5    C10   A    
C36   H15   S    
C19   C20   S    
C16   O21   S    
O19   V4    S    
C17   C18   A    
C20   H8    S    
O5    C3    A    
C14   C15   A    
V2    O10   S    
C12   H23   S    
O12   V3    S    
C32   C33   A    
C36   H14   S    
C6    C7    A    
O17   V4    S    
C25   C26   A    
C14   C40   S    
O8    V2    S    
C15   H5    S    
O12   C37   A    
C10   C11   S    
C15   C16   A    
O15   V3    S    
O1    V2    S    
O11   C38   A    
O7    V1    S    
C27   H10   S    
C35   C36   S    
O9    C4    A    
C9    C39   S    
C33   C37   S    
C21   C28   S    
C29   C36   S    
C24   C25   A    
C16   C17   A    
C21   C26   A    
C35   H13   S    
O18   C39   A    
C11   C12   S    
O4    C2    A    
V4    O20   S    
C28   H11   S    
O14   V3    S    
O13   V3    S    
C18   C19   S    
O2    C1    A    
C23   C24   A    
C13   C14   A    
C26   C27   S    
C19   H17   S    
O8    C3    A    
C28   H12   S    
C8    H1    S    
C5    C6    A    
V3    O20   S    
O19   C40   A    
O3    C4    A    
C27   C28   S    
C8    C9    A    
O6    V2    S    
O9    V2    S    
C22   C23   A    
C3    C17   S    
O2    V1    S    
C24   H9    S    
O13   C40   A    
C30   C31   A    
O1    C2    A    
O11   V4    S    
C11   H2    S    
O17   V3    S    
O5    V1    S    
C29   C34   A    
C13   C18   A    
C27   H19   S    
C5    C12   S    
C19   H6    S    
C34   C35   S    
C35   H22   S    
O4    V1    S    
C20   H7    S    
O3    V1    S    
V1    O10   S    
C33   C34   A    
C1    C22   S    
O15   C39   A    
C37   O16   A    
O7    V2    S    
C7    H16   S    
C25   C38   S    
O21   H24   S    
O14   C38   A    
O18   V4    S    
C13   C20   S    
C23   H18   S    
C9    C10   A    
C2    C30   S    
C31   H20   S    
O16   V4    S    
