data_mof_unit_34533.cif
_audit_creation_date              2013-03-05T15:41:51-0500
_audit_creation_method            fapswitch 2.2
_symmetry_space_group_name_H-M    P1
_symmetry_Int_Tables_number       1
_space_group_crystal_system       triclinic
_cell_length_a                    7.785435
_cell_length_b                    8.567755
_cell_length_c                    10.505707
_cell_angle_alpha                 91.128868
_cell_angle_beta                  85.68794
_cell_angle_gamma                 93.722295
_cell_volume                      697.234399532

loop_
_atom_site_label
_atom_site_type_symbol
_atom_site_description
_atom_site_fract_x
_atom_site_fract_y
_atom_site_fract_z
_atom_type_partial_charge
O1    O     O_R   0.389250 0.738570 0.508410 -0.599429
O2    O     O_R   0.610750 0.261430 0.491590 -0.599429
O3    O     O_R   0.678390 0.711620 0.486450 -0.637548
O4    O     O_R   0.321610 0.288380 0.513550 -0.637548
C1    C     C_R   0.545765 0.794668 0.496529 0.985440
C2    C     C_R   0.454235 0.205332 0.503471 0.985440
O5    O     O_R   0.355460 0.513510 0.697030 -0.600083
O6    O     O_R   0.644540 0.486490 0.302970 -0.600083
O7    O     O_R   0.644600 0.486560 0.675070 -0.634757
O8    O     O_R   0.355400 0.513440 0.324930 -0.634757
C3    C     C_R   0.502195 0.502260 0.742175 0.961982
C4    C     C_R   0.497805 0.497740 0.257825 0.961983
Zn1   Zn    Zn3+2 0.306940 0.517990 0.514670 0.993893
Zn2   Zn    Zn3+2 0.693060 0.482010 0.485330 0.993893
N1    N     N_2   0.950320 0.457950 0.465730 -0.171613
N2    N     N_2   0.049680 0.542050 0.534270 -0.171613
C5    C     C_3   0.447484 0.634578 0.965882 0.376874
C6    C     C_3   0.552516 0.365422 0.034118 0.376874
C7    C     C_3   0.605765 0.618547 0.041828 -0.252649
C8    C     C_3   0.394235 0.381453 0.958172 -0.252648
C9    C     C_3   0.495371 0.497183 0.123437 -0.143573
C10   C     C_3   0.504629 0.502817 0.876563 -0.143573
C11   C     C_3   0.335685 0.516532 0.049112 -0.254844
C12   C     C_3   0.664315 0.483468 0.950887 -0.254844
H1    H     H_    0.013450 0.382377 0.403899 0.204665
H2    H     H_    0.986549 0.617623 0.596101 0.204665
C13   C     C_2   0.569787 0.958244 0.494567 -0.285874
C14   C     C_2   0.430213 0.041756 0.505433 -0.285874
H3    H     H_    0.688944 0.716548 0.079218 0.204771
H4    H     H_    0.311055 0.283452 0.920782 0.204771
N3    N     N_R   0.390360 0.785100 0.929518 0.225474
O9    O     O_R   0.336628 0.882915 0.017617 -0.342115
O10   O     O_R   0.398795 0.825360 0.810437 -0.401096
N4    N     N_R   0.609640 0.214900 0.070482 0.225475
O11   O     O_R   0.663376 0.117086 0.982383 -0.342116
O12   O     O_R   0.601202 0.174640 0.189563 -0.401096
H5    H     H_    0.202778 0.532052 0.091513 0.190351
H6    H     H_    0.797222 0.467948 0.908486 0.190352
H7    H     H_    0.701568 0.009398 0.484187 0.180130
H8    H     H_    0.298432 0.990602 0.515814 0.180130

loop_
_geom_bond_atom_site_label_1
_geom_bond_atom_site_label_2
_geom_bond_distance
_ccdc_geom_bond_type
C12   H6    1.110414 S    
O7    Zn2   2.000768 S    
N3    O10   1.300032 A    
C6    C9    1.521036 S    
C6    N4    1.458197 S    
C3    C10   1.413307 S    
N4    O12   1.300031 A    
N3    O9    1.300271 A    
C8    C11   1.555446 S    
O5    Zn1   1.981956 S    
O6    C4    1.279400 A    
C7    C12   1.555445 S    
O2    C2    1.278617 A    
O5    C3    1.279401 A    
O7    C3    1.281552 A    
C1    C13   1.402171 S    
C5    C11   1.533350 S    
O3    Zn2   1.977697 S    
O8    C4    1.281551 A    
C6    C12   1.533350 S    
C7    C9    1.537284 S    
C5    N3    1.458197 S    
C8    C10   1.537285 S    
C6    C8    1.532358 S    
C9    C11   1.536430 S    
N2    H2    1.029322 S    
O2    Zn2   1.956506 S    
C10   C12   1.536431 S    
N1    H1    1.029322 S    
O1    Zn1   1.956506 S    
C14   H8    1.087784 S    
N1    N2    1.275547 D    
C7    H3    1.110551 S    
O1    C1    1.278617 A    
O4    C2    1.288265 A    
N4    O11   1.300270 A    
Zn1   N2    2.021471 S    
C13   C14   1.335984 D    
Zn2   N1    2.021470 S    
C8    H4    1.110551 S    
O6    Zn2   1.981954 S    
C5    C7    1.532358 S    
C11   H5    1.110415 S    
C4    C9    1.413307 S    
C2    C14   1.402171 S    
C5    C10   1.521036 S    
O4    Zn1   1.977697 S    
C13   H7    1.087784 S    
O3    C1    1.288265 A    
O8    Zn1   2.000768 S    
