data_mof_unit_33245.cif
_audit_creation_date              2012-12-10T17:03:00-0500
_audit_creation_method            fapswitch 2.2
_symmetry_space_group_name_H-M    P1
_symmetry_Int_Tables_number       1
_space_group_crystal_system       triclinic
_cell_length_a                    9.827988
_cell_length_b                    11.046403
_cell_length_c                    13.426324
_cell_angle_alpha                 94.331329
_cell_angle_beta                  81.587649
_cell_angle_gamma                 111.461918
_cell_volume                      1341.56634007

loop_
_atom_site_label
_atom_site_type_symbol
_atom_type_description
_atom_site_fract_x
_atom_site_fract_y
_atom_site_fract_z
_atom_type_partial_charge
C1    C     C_R   0.556774 0.745564 0.507098 0.850885
C2    C     C_R   0.437360 0.505261 0.972546 0.084248
C3    C     C_R   0.479098 0.543120 0.870643 0.082416
C4    C     C_R   0.547952 0.539530 0.038324 -0.033805
C5    C     C_R   0.689992 0.631984 0.006830 0.104969
C6    C     C_R   0.723013 0.681724 0.910299 -0.219029
C7    C     C_R   0.620046 0.637129 0.842818 -0.201081
C8    C     C_R   0.524248 0.483172 0.133536 0.443178
C9    C     C_R   0.764270 0.631847 0.170996 -0.273699
C10   C     C_R   0.376476 0.489143 0.800284 -0.106265
C11   C     C_2   0.588937 0.884985 0.510627 -0.359032
C12   C     C_R   0.423578 0.493736 0.690765 0.780776
C13   C     C_2   0.484961 0.930555 0.496838 -0.151057
C14   C     C_2   0.411671 0.115126 0.487923 -0.365664
C15   C     C_2   0.516194 0.069611 0.500472 -0.150067
C16   C     C_2   0.922772 0.492130 0.489698 -0.051020
C17   C     C_2   0.074524 0.505959 0.510688 0.077581
C18   C     C_R   0.443415 0.254476 0.492462 0.861126
C19   C     C_R   0.577919 0.513005 0.309687 0.830779
C20   C     C_R   0.797426 0.675430 0.072737 -0.200573
C21   C     C_R   0.626367 0.538542 0.202459 -0.139814
C22   C     C_R   0.228266 0.419594 0.835247 -0.190753
C23   C     C_R   0.182760 0.399893 0.937497 -0.183607
C24   C     C_R   0.285604 0.441066 0.005575 -0.123296
Cu1   Cu    Cu3+1 0.362000 0.479240 0.482530 0.977012
Cu2   Cu    Cu3+1 0.638000 0.520760 0.517470 0.929222
H1    H     H_    0.844397 0.674192 0.223242 0.178346
H2    H     H_    0.375535 0.865022 0.482979 0.182343
H3    H     H_    0.115765 0.561766 0.577019 0.081754
H4    H     H_    0.874443 0.427742 0.428885 0.199569
H5    H     H_    0.892293 0.611895 0.601801 0.186306
H6    H     H_    0.829818 0.754604 0.886322 0.138799
H7    H     H_    0.905171 0.747348 0.049491 0.146856
H8    H     H_    0.147234 0.379491 0.783355 0.154470
H9    H     H_    0.242417 0.427343 0.084146 0.204300
H10   H     H_    0.067294 0.349982 0.964079 0.146532
H11   H     H_    0.650604 0.682130 0.770168 0.163111
H12   H     H_    0.625819 0.135161 0.513902 0.180219
N1    N     N_2   0.845330 0.551960 0.543750 -0.311872
N2    N     N_2   0.154690 0.448120 0.456210 0.012444
O1    O     O_R   0.426290 0.668220 0.490680 -0.585195
O2    O     O_R   0.659360 0.703290 0.520190 -0.581867
O3    O     O_R   0.326580 0.473880 0.629020 -0.599291
O4    O     O_R   0.559660 0.508940 0.658530 -0.572380
O5    O     O_R   0.340640 0.296710 0.479810 -0.603710
O6    O     O_R   0.573710 0.331780 0.509320 -0.573969
O7    O     O_R   0.440340 0.491060 0.341470 -0.515033
O8    O     O_R   0.673420 0.526120 0.370980 -0.591259
H13   H     H_    0.302251 0.049345 0.474429 0.142782
H14   H     H_    0.698172 0.950785 0.524501 0.144223
O9    O     O_3   0.112050 0.403640 0.365107 -0.502431
C25   C     C_3   0.111432 0.276093 0.351516 -0.093661
H15   H     H_    0.062257 0.217821 0.420714 0.112638
H16   H     H_    0.223845 0.276648 0.325684 0.216902
H17   H     H_    0.042593 0.227007 0.291291 0.119525
O10   O     O_3   0.403571 0.372372 0.160085 -0.599389
C26   C     C_3   0.442546 0.262929 0.130650 -0.379814
H18   H     H_    0.532988 0.261443 0.171171 0.161375
H19   H     H_    0.474150 0.259034 0.047700 0.178651
H20   H     H_    0.345266 0.173916 0.150810 0.185293

loop_
_geom_bond_atom_site_label_1
_geom_bond_atom_site_label_2
_ccdc_geom_bond_type
C6    H6    S    
C23   C24   A    
C13   H2    S    
C6    C7    A    
N2    O9    S    
C17   H3    S    
C14   C18   S    
C9    C20   A    
C2    C4    A    
C1    C11   S    
C25   H17   S    
Cu2   O8    S    
C4    C8    A    
C9    C21   A    
Cu1   O3    S    
C2    C3    A    
C7    H11   S    
Cu2   O4    S    
C15   H12   S    
C3    C10   A    
C10   C22   A    
C11   C13   D    
C8    O10   S    
C26   H18   S    
C10   C12   S    
C20   H7    S    
C18   O6    A    
C1    O1    A    
C19   C21   S    
C25   H16   S    
C8    C21   A    
C12   O3    A    
C3    C7    A    
C13   C15   S    
Cu1   N2    S    
C2    C24   A    
C5    C6    A    
C22   H8    S    
C5    C20   A    
C19   O7    A    
Cu2   N1    S    
C26   H19   S    
C14   H13   S    
O10   C26   S    
Cu2   O6    S    
C16   N1    D    
C16   H4    S    
O9    C25   S    
C24   H9    S    
C18   O5    A    
Cu1   O5    S    
C1    O2    A    
C25   H15   S    
C9    H1    S    
C12   O4    A    
C23   H10   S    
Cu1   O1    S    
Cu2   O2    S    
Cu1   O7    S    
C14   C15   D    
C16   C17   S    
C26   H20   S    
Cu1   Cu2   S    
C19   O8    A    
C11   H14   S    
C22   C23   A    
H5    N1    S    
C4    C5    A    
C17   N2    D    
