data_mof_unit_53270.cif
_audit_creation_date              2012-12-11T16:51:07-0500
_audit_creation_method            fapswitch 2.2
_symmetry_space_group_name_H-M    P1
_symmetry_Int_Tables_number       1
_space_group_crystal_system       triclinic
_cell_length_a                    6.913429
_cell_length_b                    28.816364
_cell_length_c                    32.147825
_cell_angle_alpha                 100.80057
_cell_angle_beta                  89.907676
_cell_angle_gamma                 90.23832
_cell_volume                      6290.97637737

loop_
_atom_site_label
_atom_site_type_symbol
_atom_type_description
_atom_site_fract_x
_atom_site_fract_y
_atom_site_fract_z
_atom_type_partial_charge
O1    O     O_R   0.494350 0.453170 0.452520 -0.548636
O2    O     O_R   0.820980 0.455850 0.538220 -0.527173
O3    O     O_R   0.994300 0.546830 0.547480 -0.550410
C1    C     C_R   0.652202 0.445985 0.551652 0.904611
O4    O     O_R   0.823860 0.447590 0.452270 -0.515621
O5    O     O_R   0.997200 0.538510 0.460920 -0.547071
C2    C     C_R   0.654424 0.434355 0.436646 0.815393
O6    O     O_R   0.491440 0.461490 0.539080 -0.529496
O7    O     O_3   0.661790 0.529840 0.502940 -0.379525
V1    V     V_3+5 0.935470 0.494460 0.499450 1.592132
O8    O     O_R   0.327090 0.544150 0.461780 -0.535234
C3    C     C_R   0.158145 0.555147 0.449107 0.737723
O9    O     O_R   0.324210 0.552410 0.547730 -0.517761
C4    C     C_R   0.155035 0.565275 0.563587 0.804061
V2    V     V_3+5 0.435840 0.505540 0.500550 1.587847
O10   O     O_3   0.159650 0.470160 0.497060 -0.365136
C5    C     C_R   0.200345 0.864324 0.892065 0.326988
C6    C     C_R   0.206257 0.826682 0.857354 0.401203
C7    C     C_R   0.057163 0.821199 0.826468 -0.259514
C8    C     C_R   0.901777 0.853954 0.831465 0.412609
C9    C     C_R   0.899273 0.892098 0.865915 0.335779
C10   C     C_R   0.045779 0.897034 0.897450 -0.385061
C11   C     C_R   0.973265 0.738464 0.786237 0.292312
C12   C     C_R   0.993931 0.703026 0.749248 0.399008
C13   C     C_R   0.106286 0.711973 0.714936 -0.047260
C14   C     C_R   0.199522 0.755890 0.717603 0.382672
C15   C     C_R   0.180418 0.790651 0.754002 -0.181449
H1    H     H_    0.253951 0.824229 0.755612 0.212790
C16   C     C_R   0.068381 0.782706 0.788370 -0.140814
C17   C     C_R   0.284994 0.644219 0.669835 0.373383
C18   C     C_R   0.296000 0.608276 0.632851 0.288038
C19   C     C_R   0.144815 0.603176 0.602477 -0.199500
C20   C     C_R   0.984704 0.634352 0.609753 0.286389
C21   C     C_R   0.977946 0.669818 0.645902 -0.082300
H2    H     H_    0.854858 0.693415 0.650687 0.203346
C22   C     C_R   0.125082 0.674862 0.676144 0.015768
C23   C     C_R   0.971985 0.671352 0.296864 0.776369
N1    N     N_R   0.117695 0.677063 0.326028 -0.544480
C24   C     C_R   0.256555 0.710990 0.326564 0.818034
C25   C     C_R   0.258383 0.740402 0.295664 -0.144307
C26   C     C_R   0.104822 0.735936 0.265881 -0.073714
C27   C     C_R   0.957589 0.701502 0.266753 -0.140578
C28   C     C_R   0.407473 0.774023 0.293675 0.360957
C29   C     C_R   0.399802 0.803829 0.263671 0.373615
C30   C     C_R   0.244139 0.800538 0.234393 -0.146784
C31   C     C_R   0.097452 0.766113 0.235440 -0.064202
C32   C     C_R   0.942333 0.762036 0.206141 -0.144164
C33   C     C_R   0.798939 0.726844 0.206701 0.320910
C34   C     C_R   0.802836 0.698141 0.237320 0.411927
C35   C     C_R   0.229261 0.830353 0.203845 0.810723
N2    N     N_R   0.076001 0.826526 0.176608 -0.542526
C36   C     C_R   0.932287 0.794169 0.177780 0.750222
O11   O     O_2   0.843296 0.636200 0.297181 -0.445616
O12   O     O_2   0.390070 0.716251 0.357554 -0.408931
O13   O     O_2   0.364833 0.863347 0.201184 -0.408349
O14   O     O_2   0.778709 0.793928 0.151927 -0.447403
C37   C     C_R   0.179328 0.848158 0.108825 0.425072
C38   C     C_R   0.168251 0.877673 0.078908 -0.260986
H3    H     H_    0.257193 0.870091 0.050679 0.195781
C39   C     C_R   0.040754 0.916115 0.084612 -0.254812
C40   C     C_R   0.927011 0.925773 0.121744 0.303224
C41   C     C_R   0.941753 0.896805 0.152429 0.393803
C42   C     C_R   0.065630 0.857340 0.145806 0.114419
C43   C     C_R   0.994245 0.652617 0.391257 0.382066
C44   C     C_R   0.005596 0.624368 0.422445 0.290283
C45   C     C_R   0.148389 0.588466 0.419019 -0.237895
C46   C     C_R   0.280958 0.583320 0.385334 -0.287692
H4    H     H_    0.390554 0.556129 0.382627 0.165263
C47   C     C_R   0.270640 0.612022 0.354393 0.428002
C48   C     C_R   0.125838 0.646630 0.357178 0.150118
C49   C     C_R   0.521269 0.223822 0.836089 0.700783
N3    N     N_R   0.546498 0.176133 0.823946 -0.535389
C50   C     C_R   0.571646 0.156001 0.782253 0.659694
C51   C     C_R   0.555530 0.183509 0.750242 -0.187149
C52   C     C_R   0.544161 0.233233 0.762528 -0.083642
C53   C     C_R   0.532309 0.253993 0.805967 -0.150407
C54   C     C_R   0.552964 0.162994 0.706468 0.346178
C55   C     C_R   0.550596 0.191723 0.675764 0.422430
C56   C     C_R   0.541576 0.241463 0.687880 -0.205688
C57   C     C_R   0.541286 0.262115 0.731302 -0.138660
C58   C     C_R   0.523007 0.311588 0.743170 -0.129441
C59   C     C_R   0.511352 0.332535 0.786582 0.419338
C60   C     C_R   0.524645 0.304020 0.817849 0.276515
C61   C     C_R   0.525343 0.271656 0.658062 0.756521
N4    N     N_R   0.565912 0.319061 0.669577 -0.543412
C62   C     C_R   0.520067 0.338975 0.710761 0.769609
O15   O     O_2   0.480695 0.241563 0.877013 -0.466287
O16   O     O_2   0.613983 0.109606 0.772138 -0.463120
O17   O     O_2   0.443327 0.254925 0.620308 -0.410749
O18   O     O_2   0.458630 0.384087 0.719877 -0.408932
C63   C     C_R   0.696222 0.395870 0.652217 0.391748
C64   C     C_R   0.694778 0.428161 0.624244 0.277180
C65   C     C_R   0.644214 0.412808 0.581542 -0.353170
C66   C     C_R   0.622578 0.364131 0.566144 0.256502
C67   C     C_R   0.633823 0.331984 0.594127 0.393060
C68   C     C_R   0.626286 0.348825 0.638744 -0.001272
C69   C     C_R   0.387666 0.114320 0.857015 0.358707
C70   C     C_R   0.394985 0.082140 0.884699 0.332522
C71   C     C_R   0.545915 0.084725 0.915121 -0.347892
C72   C     C_R   0.697706 0.117972 0.914567 0.247390
C73   C     C_R   0.699175 0.147346 0.883627 0.379525
C74   C     C_R   0.542627 0.146223 0.855556 0.102869
C75   C     C_R   0.712789 0.133417 0.108469 0.311363
C76   C     C_R   0.726401 0.169276 0.145324 0.364059
C77   C     C_R   0.570935 0.177106 0.174201 0.020476
C78   C     C_R   0.407613 0.147874 0.167174 -0.048123
H5    H     H_    0.289517 0.153165 0.189760 0.219008
C79   C     C_R   0.396981 0.110305 0.132774 0.326012
C80   C     C_R   0.548053 0.103279 0.102171 -0.243208
C81   C     C_R   0.593164 0.262661 0.208955 0.359789
C82   C     C_R   0.614128 0.298178 0.245718 0.263682
C83   C     C_R   0.608024 0.286051 0.286241 -0.093076
C84   C     C_R   0.581360 0.238444 0.290056 0.337957
C85   C     C_R   0.573036 0.202540 0.253308 0.272906
C86   C     C_R   0.579160 0.214879 0.212924 -0.019247
C87   C     C_R   0.789285 0.327348 0.351284 0.374904
C88   C     C_R   0.796405 0.362365 0.388938 0.298332
C89   C     C_R   0.642620 0.395182 0.398681 -0.200363
C90   C     C_R   0.479502 0.390688 0.371362 0.274170
C91   C     C_R   0.472820 0.355289 0.335277 -0.066404
H6    H     H_    0.346770 0.352599 0.314939 0.210152
C92   C     C_R   0.624983 0.323513 0.324930 0.035058
O19   O     O_R   0.699170 0.038480 0.960880 -0.513964
O20   O     O_R   0.366800 0.052460 0.047690 -0.544682
O21   O     O_R   0.193520 0.961530 0.039110 -0.547811
C93   C     C_R   0.535874 0.065033 0.063691 0.814936
O22   O     O_R   0.369630 0.044100 0.961740 -0.533060
O23   O     O_R   0.196370 0.953120 0.952550 -0.548451
C94   C     C_R   0.538514 0.053980 0.947877 0.795963
O24   O     O_R   0.696320 0.046890 0.047450 -0.490406
O25   O     O_3   0.528890 0.970170 0.997080 -0.387656
V3    V     V_3+5 0.255190 0.005530 0.000540 1.592388
O26   O     O_R   0.866460 0.947530 0.952310 -0.546973
C95   C     C_R   0.035493 0.935041 0.936218 0.750221
O27   O     O_R   0.863630 0.955880 0.038270 -0.523098
C96   C     C_R   0.032046 0.946512 0.052225 0.812457
V4    V     V_3+5 0.754830 0.994440 0.999470 1.622741
O28   O     O_3   0.031000 0.029830 0.002920 -0.331699
O29   O     O_3   0.345429 0.867289 0.921638 -0.588220
H7    H     H_    0.426749 0.894556 0.917676 0.323550
O30   O     O_3   0.447815 0.576608 0.625961 -0.609259
H8    H     H_    0.549308 0.585501 0.647580 0.370111
O31   O     O_3   0.836312 0.632345 0.581107 -0.606421
H9    H     H_    0.764570 0.602778 0.582219 0.329633
Cl1   Cl    Cl    0.613040 0.779478 0.327473 -0.395702
Cl2   Cl    Cl    0.591013 0.845289 0.264665 -0.368698
O32   O     O_3   0.652078 0.719236 0.177283 -0.565357
H10   H     H_    0.715020 0.712491 0.149064 0.358634
Cl3   Cl    Cl    0.605517 0.658483 0.236599 -0.444687
Cl4   Cl    Cl    0.336207 0.799411 0.099137 -0.476662
Cl5   Cl    Cl    0.773129 0.975542 0.131192 -0.524223
O33   O     O_3   0.362416 0.796364 0.855092 -0.579209
H11   H     H_    0.347676 0.769627 0.831094 0.332418
Cl6   Cl    Cl    0.810238 0.910878 0.200064 -0.327873
Cl7   Cl    Cl    0.819677 0.697772 0.396567 -0.365984
O34   O     O_3   0.878209 0.633844 0.456110 -0.575579
H12   H     H_    0.934662 0.622913 0.480829 0.315396
O35   O     O_3   0.399141 0.606779 0.320934 -0.559533
H13   H     H_    0.492575 0.581518 0.323697 0.341493
O36   O     O_3   0.546723 0.114810 0.692460 -0.543479
H14   H     H_    0.439828 0.102467 0.707929 0.353669
Cl8   Cl    Cl    0.568986 0.163221 0.622116 -0.304096
O37   O     O_3   0.499489 0.381246 0.797759 -0.554079
H15   H     H_    0.477270 0.390889 0.828573 0.370255
O38   O     O_3   0.537614 0.326222 0.859636 -0.593989
H16   H     H_    0.649123 0.312159 0.872087 0.355364
Cl9   Cl    Cl    0.831197 0.411502 0.699659 -0.392283
O39   O     O_3   0.750924 0.851207 0.802810 -0.576596
H17   H     H_    0.761322 0.822292 0.780898 0.325599
Cl10  Cl    Cl    0.764494 0.487627 0.642452 -0.490708
Cl11  Cl    Cl    0.602203 0.342803 0.511001 -0.462417
Cl12  Cl    Cl    0.741645 0.276885 0.573042 -0.326294
O40   O     O_3   0.228289 0.112306 0.830797 -0.572460
H18   H     H_    0.224811 0.140790 0.817763 0.310267
O41   O     O_3   0.250273 0.048437 0.880909 -0.576847
H19   H     H_    0.305935 0.018883 0.887167 0.287926
Cl13  Cl    Cl    0.878327 0.125759 0.954379 -0.544843
O42   O     O_3   0.849421 0.178140 0.879884 -0.593632
H20   H     H_    0.963544 0.170384 0.895690 0.361172
O43   O     O_3   0.856699 0.126898 0.077954 -0.585744
H21   H     H_    0.949196 0.153566 0.082864 0.364401
Cl14  Cl    Cl    0.942288 0.202486 0.157084 -0.566386
O44   O     O_3   0.751740 0.924474 0.866957 -0.601276
H22   H     H_    0.800537 0.956048 0.880462 0.293337
O45   O     O_3   0.238465 0.080781 0.131008 -0.582823
H23   H     H_    0.279849 0.048237 0.118759 0.317676
O46   O     O_3   0.586859 0.272863 0.168589 -0.575617
H24   H     H_    0.576643 0.307290 0.170000 0.378501
Cl15  Cl    Cl    0.656521 0.357792 0.241483 -0.521781
Cl16  Cl    Cl    0.550829 0.224616 0.341112 -0.418358
O47   O     O_3   0.559789 0.155069 0.255298 -0.586756
H25   H     H_    0.578306 0.150435 0.284691 0.387303
Cl17  Cl    Cl    0.988261 0.289531 0.335533 -0.539706
O48   O     O_3   0.948891 0.365151 0.417129 -0.608151
H26   H     H_    0.034909 0.337604 0.409400 0.365966
O49   O     O_3   0.327088 0.421613 0.378138 -0.618047
H27   H     H_    0.259434 0.415063 0.403612 0.331252
O50   O     O_3   0.860999 0.728461 0.819172 -0.609090
H28   H     H_    0.857676 0.755895 0.842783 0.334420
O51   O     O_3   0.908359 0.658966 0.745624 -0.571372
H29   H     H_    0.835654 0.656895 0.771746 0.390005
Cl18  Cl    Cl    0.342501 0.768398 0.675652 -0.506066
Cl19  Cl    Cl    0.466700 0.650781 0.709226 -0.550192

loop_
_geom_bond_atom_site_label_1
_geom_bond_atom_site_label_2
_ccdc_geom_bond_type
C76   Cl14  S    
N1    C48   S    
O26   V4    S    
O38   H16   S    
C15   C16   A    
C26   C27   A    
C67   C68   A    
C1    O6    A    
C69   C70   A    
O45   H23   S    
O27   C96   A    
C54   C55   A    
C20   O31   S    
C17   Cl19  S    
C60   O38   S    
C11   O50   S    
C14   C15   A    
C65   C66   A    
C87   C92   A    
C10   C95   S    
O25   V4    S    
C11   C16   A    
C63   Cl9   S    
O34   H12   S    
C14   Cl18  S    
C21   H2    S    
C44   O34   S    
O5    C3    A    
C56   C61   A    
C57   C58   A    
N4    C68   S    
C24   O12   S    
C59   O37   S    
C93   O24   A    
V3    O28   S    
V2    O10   S    
C33   O32   S    
O49   H27   S    
C79   C80   A    
O20   V3    S    
C9    O44   S    
C90   O49   S    
C50   C51   A    
C23   C27   A    
C89   C90   A    
C76   C77   A    
C73   O42   S    
O32   H10   S    
C63   C68   A    
O22   V3    S    
O8    V2    S    
C25   C28   A    
C7    C8    A    
C64   Cl10  S    
O51   H29   S    
C51   C54   A    
C29   Cl2   S    
C26   C31   A    
O50   H28   S    
O1    V2    S    
C43   C48   A    
C67   Cl12  S    
C39   C96   S    
C69   C74   A    
C23   O11   S    
C78   C79   A    
C45   C46   A    
O9    C4    A    
O19   C94   A    
C2    C89   S    
C66   C67   A    
O30   H8    S    
C6    O33   S    
C72   Cl13  S    
O23   V3    S    
C53   C60   A    
C83   C84   A    
C91   C92   A    
C37   C42   A    
C8    O39   S    
C81   O46   S    
C69   O40   S    
C51   C52   A    
C71   C94   S    
C46   H4    S    
C73   C74   A    
O42   H20   S    
C79   O45   S    
C75   O43   S    
N2    C42   S    
C61   N4    A    
C62   O18   S    
C63   C64   A    
O4    C2    A    
C55   C56   A    
C6    C7    A    
C54   O36   S    
C35   N2    A    
C13   C14   A    
O40   H18   S    
C3    C45   S    
C59   C60   A    
C58   C59   A    
N2    C36   A    
C39   C40   A    
C46   C47   A    
C84   Cl16  S    
C18   O30   S    
O2    C1    A    
C52   C53   A    
O22   C94   A    
C50   O16   S    
C83   C92   S    
C23   N1    A    
C28   Cl1   S    
O23   C95   A    
C66   Cl11  S    
O26   C95   A    
C32   C33   A    
C43   Cl7   S    
C17   C18   A    
C11   C12   A    
C35   O13   S    
C37   Cl4   S    
C8    C9    A    
C41   C42   A    
C5    C6    A    
O44   H22   S    
C5    O29   S    
C78   H5    S    
C12   C13   A    
C90   C91   A    
C40   Cl5   S    
N4    C62   A    
O3    C4    A    
C49   O15   S    
C87   Cl17  S    
O21   C96   A    
O39   H17   S    
C55   Cl8   S    
O6    V2    S    
O9    V2    S    
C28   C29   A    
O35   H13   S    
C47   O35   S    
C56   C57   A    
C61   O17   S    
O25   V3    S    
O2    V1    S    
C49   C53   A    
C24   C25   A    
C91   H6    S    
O20   C93   A    
C84   C85   A    
C77   C78   A    
O47   H25   S    
O27   V4    S    
C31   C32   A    
C25   C26   A    
C85   O47   S    
C82   C83   A    
O1    C2    A    
C77   C86   S    
C18   C19   A    
C29   C30   A    
C58   C62   A    
C4    C19   S    
N3    C50   A    
O5    V1    S    
O29   H7    S    
C81   C82   A    
C85   C86   A    
C32   C36   A    
C17   C22   A    
C41   Cl6   S    
V4    O28   S    
O19   V4    S    
C5    C10   A    
C71   C72   A    
C34   Cl3   S    
C75   C80   A    
C19   C20   A    
C40   C41   A    
O31   H9    S    
C38   H3    S    
O46   H24   S    
O3    V1    S    
V1    O10   S    
C88   C89   A    
O36   H14   S    
C70   O41   S    
O21   V3    S    
C37   C38   A    
N1    C24   A    
N3    C74   S    
C30   C35   A    
C33   C34   A    
C43   C44   A    
C64   C65   A    
C20   C21   A    
C87   C88   A    
O48   H26   S    
O41   H19   S    
C21   C22   A    
C44   C45   A    
O7    V2    S    
C47   C48   A    
O37   H15   S    
C13   C22   S    
C1    C65   S    
C30   C31   A    
C80   C93   S    
O4    V1    S    
C52   C57   A    
C49   N3    A    
O33   H11   S    
C12   O51   S    
C70   C71   A    
C88   O48   S    
C75   C76   A    
C72   C73   A    
C82   Cl15  S    
C27   C34   A    
C9    C10   A    
O24   V4    S    
C38   C39   A    
C81   C86   A    
O43   H21   S    
C36   O14   S    
O8    C3    A    
O7    V1    S    
C15   H1    S    
C7    C16   S    
