data_mof_unit_67443.cif
_audit_creation_date              2012-12-10T16:45:20-0500
_audit_creation_method            fapswitch 2.2
_symmetry_space_group_name_H-M    P1
_symmetry_Int_Tables_number       1
_space_group_crystal_system       triclinic
_cell_length_a                    7.485114
_cell_length_b                    8.758969
_cell_length_c                    15.827413
_cell_angle_alpha                 95.050576
_cell_angle_beta                  75.601713
_cell_angle_gamma                 103.375026
_cell_volume                      977.308384109

loop_
_atom_site_label
_atom_site_type_symbol
_atom_type_description
_atom_site_fract_x
_atom_site_fract_y
_atom_site_fract_z
_atom_type_partial_charge
C1    C     C_R   0.543521 0.799504 0.504118 0.753130
C2    C     C_R   0.457332 0.200629 0.495356 0.788334
C3    C     C_R   0.276202 0.402888 0.078433 -0.309503
C4    C     C_R   0.723620 0.567283 0.918541 -0.310783
C5    C     C_R   0.148490 0.354824 0.025500 0.399883
C6    C     C_R   0.851523 0.615836 0.971084 0.400843
C7    C     C_2   0.558964 0.966601 0.515267 0.177288
C8    C     C_2   0.444562 0.034286 0.483763 0.147771
C9    C     C_R   0.385040 0.486838 0.665764 0.740141
C10   C     C_R   0.614619 0.511182 0.334055 0.736523
C11   C     C_R   0.316130 0.461521 0.759566 -0.027288
C12   C     C_R   0.682645 0.528296 0.239418 -0.034599
C13   C     C_R   0.077584 0.343482 0.882419 -0.134164
C14   C     C_R   0.923507 0.632236 0.113870 -0.124753
C15   C     C_R   0.132103 0.380493 0.794720 -0.176650
C16   C     C_R   0.868456 0.602217 0.202425 -0.194505
C17   C     C_R   0.444327 0.505924 0.812635 -0.209465
C18   C     C_R   0.554050 0.479767 0.186632 -0.211733
C19   C     C_R   0.396637 0.463203 0.900301 0.071677
C20   C     C_R   0.602775 0.513568 0.097518 0.075672
C21   C     C_R   0.207431 0.384534 0.936092 0.092170
C22   C     C_R   0.792755 0.589528 0.060773 0.091494
C23   C     C_R   0.530275 0.501548 0.953505 -0.016411
C24   C     C_R   0.469267 0.471526 0.044069 -0.013626
Cu1   Cu    Cu3+1 0.322120 0.483240 0.490330 1.034331
Cu2   Cu    Cu3+1 0.677880 0.516760 0.509670 1.023939
H1    H     H_    0.417111 0.413465 0.217043 0.115289
H2    H     H_    0.580441 0.576397 0.783565 0.137485
H3    H     H_    0.970453 0.638017 0.242048 0.145489
H4    H     H_    0.030939 0.344627 0.754419 0.155114
H5    H     H_    0.932034 0.285445 0.908106 0.154861
H6    H     H_    0.069871 0.687020 0.087153 0.157102
H7    H     H_    0.216178 0.388029 0.147094 0.161015
H8    H     H_    0.783576 0.578935 0.849576 0.167217
N1    N     N_2   0.945180 0.542040 0.524240 0.132988
N2    N     N_2   0.054820 0.457960 0.475760 0.136112
O1    O     O_R   0.384450 0.714270 0.493720 -0.529337
O2    O     O_R   0.615550 0.285730 0.506280 -0.489730
O3    O     O_R   0.684880 0.742590 0.510050 -0.615684
O4    O     O_R   0.315120 0.257410 0.489950 -0.579849
O5    O     O_R   0.265540 0.477900 0.617090 -0.525471
O6    O     O_R   0.734460 0.522100 0.382910 -0.568908
O7    O     O_R   0.565970 0.506210 0.633420 -0.613668
O8    O     O_R   0.434030 0.493790 0.366580 -0.642096
O9    O     O_3   0.958778 0.304854 0.065006 -0.568810
C25   C     C_3   0.911508 0.139781 0.064958 0.047365
H9    H     H_    0.998177 0.093415 0.100164 0.135645
H10   H     H_    0.931285 0.090711 0.997110 0.114278
C26   C     C_3   0.703926 0.085645 0.109984 -0.797734
H11   H     H_    0.675845 0.134824 0.177798 0.240348
H12   H     H_    0.666088 0.955415 0.111644 0.194850
H13   H     H_    0.614312 0.125705 0.073875 0.247324
O10   O     O_3   0.040661 0.667310 0.931375 -0.569808
C27   C     C_3   0.083549 0.832136 0.929556 0.038310
H14   H     H_    0.065502 0.883119 0.996989 0.117184
H15   H     H_    0.993250 0.874690 0.894553 0.136827
C28   C     C_3   0.289228 0.888498 0.882766 -0.796612
H16   H     H_    0.313748 0.842837 0.814111 0.248968
H17   H     H_    0.324698 0.018789 0.883628 0.194776
H18   H     H_    0.382389 0.847005 0.916266 0.248769
O11   O     O_3   0.700506 0.055158 0.553076 -0.540280
C29   C     C_3   0.659333 0.026970 0.643383 0.070553
H19   H     H_    0.793883 0.026579 0.660356 0.160424
H20   H     H_    0.561957 0.912217 0.663397 0.083769
C30   C     C_3   0.580467 0.159785 0.696734 -0.780510
H21   H     H_    0.440244 0.160356 0.685257 0.219677
H22   H     H_    0.564903 0.144224 0.767141 0.192819
H23   H     H_    0.679525 0.273710 0.678436 0.286429
O12   O     O_3   0.314710 0.948425 0.438953 -0.577189
C31   C     C_3   0.398011 0.958217 0.348546 0.091964
H24   H     H_    0.534341 0.918652 0.331614 0.122794
H25   H     H_    0.423286 0.080600 0.326959 0.111729
C32   C     C_3   0.265222 0.851969 0.298781 -0.776974
H26   H     H_    0.328129 0.859390 0.227500 0.189259
H27   H     H_    0.240856 0.728481 0.317925 0.249498
H28   H     H_    0.127945 0.888588 0.313645 0.243337
O13   O     O_3   0.005837 0.605164 0.595485 -0.472201
C33   C     C_3   0.960810 0.752899 0.615285 0.205807
H29   H     H_    0.808183 0.740304 0.645295 0.139110
H30   H     H_    0.003125 0.825298 0.556289 0.203797
C34   C     C_3   0.068809 0.837290 0.681821 -0.899904
H31   H     H_    0.024587 0.769406 0.742294 0.255879
H32   H     H_    0.222709 0.848035 0.655328 0.248072
H33   H     H_    0.041286 0.956720 0.698088 0.195866
O14   O     O_3   0.960722 0.336030 0.434854 -0.436496
C35   C     C_3   0.075561 0.306873 0.353491 0.216473
H34   H     H_    0.192996 0.256539 0.361080 0.173234
H35   H     H_    0.128022 0.415856 0.315463 0.110994
C36   C     C_3   0.958122 0.185558 0.303039 -0.883506
H36   H     H_    0.844829 0.234558 0.288989 0.246227
H37   H     H_    0.050074 0.152945 0.240843 0.197750
H38   H     H_    0.892812 0.078392 0.341686 0.252273

loop_
_geom_bond_atom_site_label_1
_geom_bond_atom_site_label_2
_ccdc_geom_bond_type
C10   O6    A    
C32   H26   S    
C35   H34   S    
N1    N2    D    
C34   H31   S    
C7    C8    D    
O9    C25   S    
C25   C26   S    
C8    O12   S    
C19   C21   A    
Cu1   O4    S    
O14   C35   S    
C35   H35   S    
Cu2   O3    S    
C28   H17   S    
C3    H7    S    
C6    C22   A    
C7    O11   S    
C29   H20   S    
Cu1   O1    S    
C25   H9    S    
C11   C15   A    
C20   C24   A    
C26   H12   S    
C23   C24   A    
C31   H24   S    
C36   H37   S    
C18   C20   A    
C1    O1    A    
C30   H23   S    
C32   H27   S    
C3    C24   A    
O11   C29   S    
Cu1   O8    S    
C34   H32   S    
Cu2   O7    S    
C27   H15   S    
C4    H8    S    
C9    O7    A    
C10   O8    A    
C12   C16   A    
C4    C6    A    
Cu1   O5    S    
C4    C23   A    
C33   H29   S    
Cu2   O2    S    
C28   H18   S    
C30   H22   S    
C16   H3    S    
O13   C33   S    
C5    O9    S    
N1    O13   S    
C19   C23   A    
C29   H19   S    
C2    O2    A    
C26   H13   S    
C31   C32   S    
C13   C21   A    
C36   H38   S    
C9    C11   S    
C10   C12   S    
C20   C22   A    
C30   H21   S    
C13   C15   A    
C32   H28   S    
C14   C16   A    
C6    O10   S    
C34   H33   S    
Cu2   O6    S    
C15   H4    S    
C27   H14   S    
C11   C17   A    
C29   C30   S    
C1    C7    S    
C17   H2    S    
C13   H5    S    
C2    C8    S    
C18   H1    S    
C14   H6    S    
C3    C5    A    
C35   C36   S    
O10   C27   S    
N2    O14   S    
C9    O5    A    
C14   C22   A    
Cu1   Cu2   S    
C33   C34   S    
C28   H16   S    
C17   C19   A    
C33   H30   S    
O12   C31   S    
C1    O3    A    
Cu1   N2    S    
C25   H10   S    
C2    O4    A    
Cu2   N1    S    
C5    C21   A    
C26   H11   S    
C12   C18   A    
C31   H25   S    
C36   H36   S    
C27   C28   S    
