data_mof_unit_66438.cif
_audit_creation_date              2012-12-10T21:38:00-0500
_audit_creation_method            fapswitch 2.2
_symmetry_space_group_name_H-M    P1
_symmetry_Int_Tables_number       1
_space_group_crystal_system       triclinic
_cell_length_a                    16.141499
_cell_length_b                    16.834128
_cell_length_c                    16.820598
_cell_angle_alpha                 89.802341
_cell_angle_beta                  92.073032
_cell_angle_gamma                 87.182215
_cell_volume                      4562.05193814

loop_
_atom_site_label
_atom_site_type_symbol
_atom_type_description
_atom_site_fract_x
_atom_site_fract_y
_atom_site_fract_z
_atom_type_partial_charge
C1    C     C_R   0.511319 0.347451 0.497410 0.922929
C2    C     C_R   0.467502 0.902835 0.503185 0.231459
C3    C     C_R   0.589873 0.140114 0.541013 0.184357
C4    C     C_R   0.410124 0.859886 0.458993 0.184356
C5    C     C_R   0.583366 0.222556 0.539310 -0.249911
C6    C     C_R   0.416632 0.777445 0.460695 -0.249912
C7    C     C_R   0.235536 0.540720 0.461857 -0.130892
C8    C     C_R   0.764464 0.459280 0.538143 -0.130890
C9    C     C_R   0.148388 0.543706 0.465152 0.320025
C10   C     C_R   0.851612 0.456294 0.534848 0.320024
C11   C     C_R   0.110115 0.492625 0.518594 0.186521
C12   C     C_R   0.488681 0.652549 0.502591 0.922926
C13   C     C_R   0.889885 0.507375 0.481406 0.186522
C14   C     C_R   0.161568 0.441980 0.567029 -0.318690
C15   C     C_R   0.838431 0.558020 0.432970 -0.318690
C16   C     C_R   0.511054 0.503382 0.652399 0.913556
C17   C     C_R   0.488946 0.496618 0.347601 0.913557
C18   C     C_R   0.248019 0.441029 0.561711 0.501665
C19   C     C_R   0.751981 0.558971 0.438289 0.501664
C20   C     C_R   0.516348 0.517690 0.737237 -0.101592
C21   C     C_R   0.483651 0.482318 0.262761 -0.101597
C22   C     C_R   0.446174 0.549283 0.774932 -0.126496
C23   C     C_R   0.520030 0.262030 0.493230 -0.122765
C24   C     C_R   0.553826 0.450735 0.225062 -0.126493
C25   C     C_R   0.449406 0.561398 0.856151 -0.124938
C26   C     C_R   0.550593 0.438628 0.143841 -0.124934
C27   C     C_R   0.522332 0.540934 0.900154 0.038323
C28   C     C_R   0.477665 0.459092 0.099841 0.038321
C29   C     C_R   0.594419 0.513661 0.862443 0.447811
C30   C     C_R   0.405578 0.486357 0.137556 0.447814
C31   C     C_R   0.591308 0.502709 0.780531 -0.197195
C32   C     C_R   0.408689 0.497300 0.219470 -0.197202
C33   C     C_2   0.516597 0.532657 0.985274 0.286944
C34   C     C_R   0.479970 0.737970 0.506772 -0.122765
C35   C     C_2   0.483397 0.467372 0.014722 0.286945
C36   C     C_R   0.466153 0.219304 0.444053 0.139642
C37   C     C_R   0.533847 0.780696 0.555949 0.139643
C38   C     C_R   0.472893 0.137058 0.445903 -0.180190
C39   C     C_R   0.527107 0.862941 0.554101 -0.180191
C40   C     C_R   0.532496 0.097165 0.496821 0.231459
Cl1   Cl    Cl    0.907824 0.384110 0.593847 -0.504295
Cl2   Cl    Cl    0.092176 0.615890 0.406153 -0.504294
Cl3   Cl    Cl    0.308820 0.376415 0.624568 -0.492049
Cl4   Cl    Cl    0.691180 0.623585 0.375432 -0.492053
Cl5   Cl    Cl    0.448675 0.389178 0.954165 -0.473248
Cl6   Cl    Cl    0.551318 0.610850 0.045831 -0.473245
Cl7   Cl    Cl    0.686879 0.486909 0.916870 -0.474955
Cl8   Cl    Cl    0.313115 0.513109 0.083134 -0.474946
H1    H     H_    0.388378 0.563233 0.741924 0.185668
H2    H     H_    0.393645 0.581794 0.885525 0.200821
H3    H     H_    0.569126 0.895783 0.591654 0.201683
H4    H     H_    0.430873 0.104216 0.408349 0.201682
H5    H     H_    0.625941 0.255768 0.575975 0.191229
H6    H     H_    0.374057 0.744233 0.424030 0.191230
H7    H     H_    0.611623 0.436785 0.258068 0.185672
H8    H     H_    0.734816 0.419686 0.577869 0.190767
H9    H     H_    0.265184 0.580314 0.422131 0.190767
H10   H     H_    0.134256 0.403259 0.609357 0.240023
H11   H     H_    0.865744 0.596741 0.390643 0.240023
H12   H     H_    0.353834 0.520362 0.248625 0.195759
H13   H     H_    0.646163 0.479641 0.751379 0.195758
H14   H     H_    0.606355 0.418238 0.114465 0.200825
I1    I     I_    0.623800 0.726253 0.637126 -0.206889
I2    I     I_    0.376202 0.273745 0.362873 -0.206888
I3    I     I_    0.683073 0.082507 0.615549 -0.163507
I4    I     I_    0.316922 0.917495 0.384461 -0.163506
N1    N     N_2   0.534575 0.014106 0.506026 -0.143521
N2    N     N_2   0.465422 0.985894 0.493982 -0.143520
N3    N     N_R   0.283770 0.490310 0.509640 -0.152380
N4    N     N_R   0.716230 0.509690 0.490360 -0.152380
N5    N     N_2   0.022524 0.493286 0.530483 -0.055907
N6    N     N_2   0.977476 0.506714 0.469517 -0.055907
O1    O     O_R   0.577220 0.387330 0.496550 -0.637394
O2    O     O_R   0.422780 0.612670 0.503450 -0.637396
O3    O     O_R   0.438350 0.381110 0.502740 -0.546877
O4    O     O_R   0.561650 0.618890 0.497260 -0.546877
O5    O     O_R   0.577640 0.503470 0.612340 -0.624694
O6    O     O_R   0.422360 0.496530 0.387660 -0.624694
O7    O     O_R   0.438770 0.497250 0.618530 -0.579107
O8    O     O_R   0.561230 0.502750 0.381470 -0.579109
Zn1   Zn    Zn3+2 0.592720 0.504150 0.495870 1.028306
Zn2   Zn    Zn3+2 0.407280 0.495850 0.504130 1.028306

loop_
_geom_bond_atom_site_label_1
_geom_bond_atom_site_label_2
_ccdc_geom_bond_type
C39   H3    S    
C12   O2    A    
C27   C29   A    
C34   C37   A    
C14   C18   A    
C8    H8    S    
C27   C33   S    
C24   H7    S    
C15   C19   A    
C9    Cl2   S    
C29   Cl7   S    
C5    H5    S    
C24   C26   A    
C2    N2    S    
C11   C14   A    
C11   N5    S    
C38   H4    S    
C16   O5    A    
N4    Zn1   S    
C31   H13   S    
C25   H2    S    
N3    Zn2   S    
C2    C39   A    
C28   C35   S    
C22   C25   A    
C30   C32   A    
C18   N3    A    
C10   Cl1   S    
C33   Cl6   S    
C3    I3    S    
C15   H11   S    
C6    H6    S    
O1    Zn1   S    
C37   I1    S    
C14   H10   S    
C21   C32   A    
N1    N2    D    
C1    O3    A    
C4    C6    A    
C40   N1    S    
C17   O8    A    
C17   C21   S    
C6    C34   A    
C2    C4    A    
O6    Zn2   S    
C5    C23   A    
C13   C15   A    
O5    Zn1   S    
C16   C20   S    
C9    C11   A    
C22   H1    S    
C20   C22   A    
C3    C40   A    
C1    C23   S    
C12   O4    A    
C32   H12   S    
C12   C34   S    
C35   Cl5   S    
C19   Cl4   S    
O2    Zn2   S    
C30   Cl8   S    
C7    C9    A    
C26   C28   A    
O8    Zn1   S    
C3    C5    A    
C10   C13   A    
O4    Zn1   S    
C7    N3    A    
O7    Zn2   S    
O3    Zn2   S    
C13   N6    S    
C25   C27   A    
C8    N4    A    
C16   O7    A    
C1    O1    A    
C28   C30   A    
C26   H14   S    
N5    N6    D    
C29   C31   A    
C18   Cl3   S    
C38   C40   A    
C36   C38   A    
C17   O6    A    
C33   C35   D    
C37   C39   A    
C4    I4    S    
C8    C10   A    
C23   C36   A    
C21   C24   A    
C19   N4    A    
C36   I2    S    
C7    H9    S    
C20   C31   A    
