data_mof_unit_27611.cif
_audit_creation_date              2012-12-10T19:25:46-0500
_audit_creation_method            fapswitch 2.2
_symmetry_space_group_name_H-M    P1
_symmetry_Int_Tables_number       1
_space_group_crystal_system       triclinic
_cell_length_a                    9.773682
_cell_length_b                    10.483567
_cell_length_c                    16.588211
_cell_angle_alpha                 90.265303
_cell_angle_beta                  85.016535
_cell_angle_gamma                 90.09542
_cell_volume                      1693.23407084

loop_
_atom_site_label
_atom_site_type_symbol
_atom_type_description
_atom_site_fract_x
_atom_site_fract_y
_atom_site_fract_z
_atom_type_partial_charge
C1    C     C_R   0.500299 0.742395 0.499334 0.856536
C2    C     C_R   0.499772 0.257475 0.499151 0.861988
C3    C     C_3   0.448106 0.956570 0.430515 -0.161707
C4    C     C_3   0.551395 0.042632 0.565686 -0.161478
C5    C     C_3   0.577053 0.041554 0.432443 -0.185582
C6    C     C_3   0.422500 0.957966 0.563727 -0.186367
C7    C     C_3   0.498787 0.122180 0.498052 0.028921
C8    C     C_3   0.500803 0.877415 0.498300 0.032664
C9    C     C_3   0.369604 0.039972 0.495983 -0.140359
C10   C     C_3   0.629808 0.959428 0.500144 -0.136742
C11   C     C_3   0.944944 0.594386 0.543183 -0.253895
C12   C     C_3   0.055067 0.405782 0.456958 -0.244788
C13   C     C_3   0.051692 0.603083 0.470489 0.640789
C14   C     C_3   0.948561 0.397132 0.529702 0.625810
C15   C     C_3   0.038196 0.489582 0.573343 -0.270242
C16   C     C_3   0.962068 0.510837 0.426733 -0.248508
C17   C     C_R   0.480669 0.503067 0.653564 0.844704
C18   C     C_R   0.519199 0.508374 0.346931 0.837568
C19   C     C_R   0.468789 0.529090 0.740236 -0.036141
C20   C     C_R   0.530514 0.555705 0.264258 -0.026008
C21   C     C_R   0.586461 0.525838 0.782676 -0.211579
C22   C     C_R   0.421383 0.626801 0.237906 -0.215476
C23   C     C_R   0.580622 0.568935 0.861961 -0.153318
C24   C     C_R   0.433375 0.682243 0.162043 -0.174409
C25   C     C_R   0.457005 0.617136 0.899737 0.207385
C26   C     C_R   0.553314 0.664315 0.110623 0.210520
C27   C     C_R   0.338162 0.615732 0.858435 -0.184340
C28   C     C_R   0.665648 0.600400 0.138570 -0.169947
C29   C     C_R   0.343878 0.572272 0.778937 -0.204196
C30   C     C_R   0.654503 0.546409 0.215374 -0.204359
C31   C     C_2   0.445388 0.653686 0.985266 -0.231561
C32   C     C_2   0.554371 0.688903 0.023948 -0.246132
H1    H     H_    0.683647 0.491667 0.754298 0.159260
H2    H     H_    0.326968 0.640882 0.276191 0.172702
H3    H     H_    0.893870 0.674021 0.578378 0.139083
H4    H     H_    0.106132 0.325955 0.421970 0.140512
H5    H     H_    0.075300 0.480411 0.634422 0.134449
H6    H     H_    0.925214 0.521268 0.365678 0.139643
H7    H     H_    0.741363 0.495622 0.235903 0.143352
H8    H     H_    0.251691 0.576144 0.747205 0.151073
H9    H     H_    0.652526 0.708476 0.990482 0.144900
H10   H     H_    0.347515 0.633539 0.019021 0.149385
H11   H     H_    0.241212 0.649126 0.887591 0.124031
H12   H     H_    0.758963 0.586089 0.099345 0.120470
H13   H     H_    0.346976 0.734690 0.142353 0.127606
H14   H     H_    0.672435 0.561555 0.893619 0.122893
H15   H     H_    0.640039 0.080436 0.379215 0.139803
H16   H     H_    0.361072 0.918361 0.617283 0.138781
H17   H     H_    0.406058 0.916200 0.375767 0.141851
H18   H     H_    0.591715 0.083000 0.620849 0.133727
H19   H     H_    0.263639 0.076424 0.493313 0.133027
H20   H     H_    0.734594 0.919898 0.501152 0.125099
N1    N     N_3   0.136700 0.499970 0.500060 -0.102780
N2    N     N_3   0.863300 0.500030 0.499940 -0.102543
O1    O     O_R   0.383390 0.686040 0.500000 -0.566861
O2    O     O_R   0.616610 0.313960 0.500000 -0.562145
O3    O     O_R   0.616650 0.686050 0.499970 -0.640534
O4    O     O_R   0.383350 0.313950 0.500030 -0.638241
O5    O     O_R   0.369590 0.500020 0.615820 -0.624872
O6    O     O_R   0.630410 0.499980 0.384180 -0.621514
O7    O     O_R   0.602840 0.500020 0.615790 -0.599074
O8    O     O_R   0.397160 0.499980 0.384210 -0.602423
Zn1   Zn    Zn3+2 0.344250 0.499990 0.500020 0.967309
Zn2   Zn    Zn3+2 0.655750 0.500010 0.499980 0.972267
O9    O     O_3   0.116800 0.714418 0.438662 -0.631053
C33   C     C_3   0.018805 0.804092 0.416631 0.031054
H21   H     H_    0.041805 0.896979 0.445062 0.163590
H22   H     H_    0.910300 0.779928 0.437487 0.133493
C34   C     C_3   0.031496 0.819969 0.324765 -0.344138
H23   H     H_    0.136593 0.853981 0.304364 0.220389
H24   H     H_    0.014929 0.726339 0.295451 0.212382
C35   C     C_3   0.926204 0.915188 0.298506 -0.961290
H25   H     H_    0.820285 0.880864 0.316344 0.269342
H26   H     H_    0.938745 0.925818 0.231708 0.263706
H27   H     H_    0.941129 0.009886 0.326820 0.261776
O10   O     O_3   0.885334 0.284156 0.560197 -0.626703
C36   C     C_3   0.981594 0.210970 0.598754 0.043551
H28   H     H_    0.999085 0.254865 0.658210 0.140421
H29   H     H_    0.081408 0.203487 0.561092 0.135177
C37   C     C_3   0.924607 0.076599 0.612923 -0.318604
H30   H     H_    0.826475 0.081514 0.651897 0.223555
H31   H     H_    0.904985 0.033932 0.553764 0.211854
C38   C     C_3   0.024676 0.991405 0.653284 -0.986475
H32   H     H_    0.121060 0.980352 0.613475 0.267596
H33   H     H_    0.978255 0.895540 0.663942 0.263220
H34   H     H_    0.048317 0.032773 0.712263 0.267170

loop_
_geom_bond_atom_site_label_1
_geom_bond_atom_site_label_2
_ccdc_geom_bond_type
C25   C31   S    
C33   H22   S    
C26   C32   S    
C31   H10   S    
C27   C29   A    
C1    C8    S    
C11   C13   S    
C2    C7    S    
C9    H19   S    
C10   H20   S    
C6    C9    S    
C3    H17   S    
C13   O9    S    
C36   H28   S    
C5    H15   S    
C6    H16   S    
C38   H32   S    
C24   H13   S    
C15   N1    S    
C19   C21   A    
C24   C26   A    
C37   C38   S    
C37   H30   S    
C33   C34   S    
C21   H1    S    
C34   H24   S    
C15   H5    S    
C17   O7    A    
C11   C15   S    
C12   C16   S    
O1    Zn1   S    
C32   H9    S    
O2    Zn2   S    
C12   H4    S    
C12   N1    S    
C33   H21   S    
C23   H14   S    
C4    C7    S    
C13   N1    S    
C36   H29   S    
C22   H2    S    
O10   C36   S    
C4    C6    S    
C3    C8    S    
C5    C7    S    
C18   O8    A    
C6    C8    S    
C28   H12   S    
C4    H18   S    
C14   O10   S    
O7    Zn2   S    
O8    Zn1   S    
C3    C9    S    
C1    O3    A    
C31   C32   D    
C11   N2    S    
C17   O5    A    
C35   H26   S    
C14   N2    S    
C12   C14   S    
C21   C23   A    
C22   C24   A    
C4    C10   S    
C19   C29   A    
C34   C35   S    
O3    Zn2   S    
C36   C37   S    
C18   O6    A    
O4    Zn1   S    
C7    C9    S    
C38   H33   S    
O5    Zn1   S    
C20   C22   A    
C35   H25   S    
C3    C5    S    
C2    O4    A    
C25   C27   A    
C26   C28   A    
O6    Zn2   S    
C28   C30   A    
C1    O1    A    
C5    C10   S    
C2    O2    A    
C20   C30   A    
N1    Zn1   S    
C35   H27   S    
N2    Zn2   S    
C29   H8    S    
C11   H3    S    
C17   C19   S    
C37   H31   S    
C30   H7    S    
C18   C20   S    
C23   C25   A    
C34   H23   S    
C16   N2    S    
C27   H11   S    
C38   H34   S    
C8    C10   S    
O9    C33   S    
C13   C16   S    
C14   C15   S    
C16   H6    S    
