data_mof_unit_39764.cif
_audit_creation_date              2012-12-11T14:52:22-0500
_audit_creation_method            fapswitch 2.2
_symmetry_space_group_name_H-M    P1
_symmetry_Int_Tables_number       1
_space_group_crystal_system       triclinic
_cell_length_a                    18.8001
_cell_length_b                    10.918162
_cell_length_c                    18.835642
_cell_angle_alpha                 89.882427
_cell_angle_beta                  91.329715
_cell_angle_gamma                 89.654353
_cell_volume                      3865.1308979

loop_
_atom_site_label
_atom_site_type_symbol
_atom_type_description
_atom_site_fract_x
_atom_site_fract_y
_atom_site_fract_z
_atom_type_partial_charge
C1    C     C_R   0.273254 0.042162 0.854115 0.548136
C2    C     C_R   0.711135 0.002159 0.138575 0.559912
C3    C     C_R   0.773254 0.542161 0.854115 0.548135
C4    C     C_R   0.211134 0.502157 0.138575 0.559915
C5    C     C_3   0.498075 0.719281 0.977382 -0.075689
C6    C     C_3   0.446812 0.732379 0.039828 -0.097419
C7    C     C_3   0.998074 0.219280 0.977382 -0.075693
C8    C     C_3   0.946812 0.232380 0.039828 -0.097422
C9    C     C_R   0.301627 0.524315 0.962466 0.081397
C10   C     C_R   0.681536 0.576760 0.027987 0.067268
C11   C     C_R   0.801628 0.024315 0.962466 0.081398
C12   C     C_R   0.181536 0.076759 0.027988 0.067267
C13   C     C_R   0.288751 0.497785 0.033669 -0.156017
C14   C     C_R   0.693337 0.550267 0.956516 -0.159217
C15   C     C_R   0.788752 0.997786 0.033669 -0.156018
C16   C     C_R   0.193338 0.050267 0.956516 -0.159218
C17   C     C_R   0.224080 0.531203 0.064178 0.032542
C18   C     C_R   0.755700 0.589089 0.924189 0.032306
C19   C     C_R   0.724082 0.031207 0.064178 0.032545
C20   C     C_R   0.255700 0.089089 0.924189 0.032306
C21   C     C_R   0.171012 0.590836 0.022500 0.071743
C22   C     C_R   0.806186 0.660171 0.963289 0.088941
C23   C     C_R   0.671014 0.090842 0.022501 0.071745
C24   C     C_R   0.306186 0.160171 0.963289 0.088941
C25   C     C_R   0.181431 0.607385 0.950852 -0.159341
C26   C     C_R   0.792502 0.690221 0.032413 -0.153190
C27   C     C_R   0.681432 0.107386 0.950852 -0.159343
C28   C     C_R   0.292502 0.190220 0.032413 -0.153190
C29   C     C_R   0.247109 0.579819 0.920660 0.036068
C30   C     C_R   0.732484 0.647155 0.066212 0.023222
C31   C     C_R   0.747110 0.079819 0.920660 0.036069
C32   C     C_R   0.232484 0.147155 0.066212 0.023222
C33   C     C_R   0.523937 0.731348 0.543416 -0.152153
C34   C     C_R   0.532792 0.727609 0.471274 -0.130463
C35   C     C_R   0.023937 0.231347 0.543416 -0.152159
C36   C     C_R   0.032791 0.227608 0.471274 -0.130467
C37   C     C_R   0.512429 0.827710 0.428180 0.025992
C38   C     C_R   0.492335 0.833662 0.573872 0.010238
C39   C     C_R   0.012428 0.327710 0.428180 0.025990
C40   C     C_R   0.992336 0.333662 0.573872 0.010245
C41   C     C_R   0.483409 0.932839 0.458576 -0.154788
C42   C     C_R   0.472313 0.935146 0.531412 -0.148203
C43   C     C_R   0.983410 0.432840 0.458576 -0.154784
C44   C     C_R   0.972314 0.435147 0.531412 -0.148198
C45   C     C_R   0.437651 0.816813 0.862084 0.569350
C46   C     C_R   0.527207 0.822085 0.145437 0.541703
C47   C     C_R   0.937651 0.316813 0.862084 0.569349
C48   C     C_R   0.027207 0.322085 0.145437 0.541704
C49   C     C_R   0.188290 0.558308 0.545304 0.072187
C50   C     C_R   0.792798 0.693007 0.478476 0.087024
C51   C     C_R   0.688283 0.058328 0.545303 0.072190
C52   C     C_R   0.292796 0.193012 0.478477 0.087019
C53   C     C_R   0.180527 0.543570 0.472913 -0.112355
C54   C     C_R   0.787929 0.686224 0.550623 -0.080225
C55   C     C_R   0.680522 0.043595 0.472911 -0.112359
C56   C     C_R   0.287927 0.186227 0.550624 -0.080226
C57   C     C_R   0.238497 0.564361 0.428866 0.013823
C58   C     C_R   0.745606 0.597428 0.580683 -0.004180
C59   C     C_R   0.738496 0.064361 0.428866 0.013824
C60   C     C_R   0.245606 0.097429 0.580683 -0.004181
C61   C     C_R   0.305617 0.590881 0.456634 -0.164307
C62   C     C_R   0.696630 0.531048 0.539138 -0.152641
C63   C     C_R   0.805619 0.090852 0.456638 -0.164307
C64   C     C_R   0.196630 0.031049 0.539138 -0.152642
C65   C     C_R   0.313662 0.605129 0.529028 -0.149806
C66   C     C_R   0.696380 0.544049 0.466231 -0.170856
C67   C     C_R   0.813664 0.105095 0.529032 -0.149809
C68   C     C_R   0.196379 0.044051 0.466231 -0.170857
C69   C     C_R   0.254389 0.592629 0.572801 0.074691
C70   C     C_R   0.745595 0.621806 0.434916 0.038197
C71   C     C_R   0.754387 0.092623 0.572803 0.074683
C72   C     C_R   0.245594 0.121810 0.434916 0.038195
C73   C     C_R   0.260467 0.634619 0.851347 0.555922
C74   C     C_R   0.726151 0.681469 0.140712 0.553695
C75   C     C_R   0.760467 0.134619 0.851346 0.555921
C76   C     C_R   0.226151 0.181469 0.140712 0.553695
C77   C     C_R   0.269413 0.049277 0.648010 0.545894
C78   C     C_R   0.727646 0.043430 0.355033 0.552172
C79   C     C_R   0.769414 0.549277 0.648009 0.545895
C80   C     C_R   0.227647 0.543431 0.355032 0.552167
C81   C     C_R   0.468316 0.823827 0.646134 0.556557
C82   C     C_R   0.531833 0.823076 0.354120 0.541632
C83   C     C_R   0.968316 0.323827 0.646134 0.556563
C84   C     C_R   0.031833 0.323076 0.354120 0.541630
C85   C     C_R   0.260533 0.636742 0.643768 0.585081
C86   C     C_R   0.738706 0.645252 0.359588 0.558971
C87   C     C_R   0.760533 0.136741 0.643768 0.585076
C88   C     C_R   0.238705 0.145254 0.359588 0.558971
C89   C     C_3   0.455926 0.932951 0.034009 -0.141805
C90   C     C_3   0.506968 0.919137 0.970944 -0.134110
C91   C     C_3   0.955927 0.432952 0.034009 -0.141796
C92   C     C_3   0.006969 0.419136 0.970944 -0.134100
C93   C     C_3   0.405773 0.835980 0.999753 -0.134648
C94   C     C_3   0.547733 0.816017 0.010713 -0.091053
C95   C     C_3   0.905773 0.335982 0.999753 -0.134652
C96   C     C_3   0.047733 0.316015 0.010713 -0.091048
C97   C     C_3   0.457593 0.822604 0.938287 0.047266
C98   C     C_3   0.496409 0.829173 0.072763 0.057820
C99   C     C_3   0.957593 0.322604 0.938287 0.047261
C100  C     C_3   0.996410 0.329173 0.072763 0.057823
Cr1   Cr    Cr6+3 0.229630 0.835900 0.747350 1.019413
Cr2   Cr    Cr6+3 0.770370 0.835900 0.252650 1.000983
Cr3   Cr    Cr6+3 0.729630 0.335900 0.747350 1.019416
Cr4   Cr    Cr6+3 0.270370 0.335900 0.252650 1.000983
Cr5   Cr    Cr6+3 0.387410 0.989850 0.750850 1.027946
Cr6   Cr    Cr6+3 0.612590 0.989850 0.249150 1.029844
Cr7   Cr    Cr6+3 0.887410 0.489850 0.750850 1.027945
Cr8   Cr    Cr6+3 0.112590 0.489850 0.249150 1.029845
Cr9   Cr    Cr6+3 0.385800 0.677120 0.749340 1.026633
Cr10  Cr    Cr6+3 0.614200 0.677120 0.250660 1.027627
Cr11  Cr    Cr6+3 0.885800 0.177120 0.749340 1.026631
Cr12  Cr    Cr6+3 0.114200 0.177120 0.250660 1.027626
H1    H     H_    0.347032 0.843910 0.993592 0.117922
H2    H     H_    0.606567 0.809622 0.015995 0.119483
H3    H     H_    0.847033 0.343913 0.993592 0.117924
H4    H     H_    0.106567 0.309619 0.015995 0.119485
H5    H     H_    0.129273 0.516072 0.451076 0.142780
H6    H     H_    0.824803 0.739546 0.583007 0.158880
H7    H     H_    0.629264 0.016117 0.451074 0.142784
H8    H     H_    0.324801 0.239549 0.583008 0.158881
H9    H     H_    0.350702 0.602778 0.422513 0.129201
H10   H     H_    0.662633 0.462565 0.562210 0.145708
H11   H     H_    0.850708 0.102728 0.422518 0.129202
H12   H     H_    0.162634 0.962563 0.562210 0.145708
H13   H     H_    0.365156 0.632737 0.550260 0.151473
H14   H     H_    0.659103 0.491040 0.434317 0.131228
H15   H     H_    0.865162 0.132681 0.550265 0.151478
H16   H     H_    0.159103 0.991041 0.434318 0.131229
H17   H     H_    0.438833 0.020232 0.058669 0.123822
H18   H     H_    0.531076 0.992426 0.938700 0.118036
H19   H     H_    0.938835 0.520234 0.058669 0.123826
H20   H     H_    0.031077 0.492423 0.938699 0.118037
H21   H     H_    0.515310 0.631966 0.952962 0.138216
H22   H     H_    0.422172 0.656038 0.069287 0.129898
H23   H     H_    0.015309 0.131965 0.952963 0.138216
H24   H     H_    0.922171 0.156040 0.069287 0.129899
H25   H     H_    0.330650 0.456251 0.066055 0.119636
H26   H     H_    0.655460 0.494310 0.927174 0.127044
H27   H     H_    0.830651 0.956251 0.066054 0.119636
H28   H     H_    0.155460 0.994309 0.927174 0.127045
H29   H     H_    0.139345 0.652796 0.920348 0.137346
H30   H     H_    0.831910 0.743641 0.061145 0.131117
H31   H     H_    0.639345 0.152796 0.920348 0.137347
H32   H     H_    0.331910 0.243641 0.061145 0.131117
H33   H     H_    0.539478 0.652136 0.575041 0.136067
H34   H     H_    0.557003 0.646197 0.449502 0.144265
H35   H     H_    0.039477 0.152134 0.575040 0.136065
H36   H     H_    0.057001 0.146196 0.449502 0.144265
H37   H     H_    0.468873 0.011578 0.426193 0.123296
H38   H     H_    0.446498 0.014442 0.554079 0.150485
H39   H     H_    0.968875 0.511579 0.426194 0.123298
H40   H     H_    0.946500 0.514443 0.554080 0.150484
O1    O     O_R   0.214270 0.709000 0.827470 -0.533998
O2    O     O_R   0.785730 0.709000 0.172530 -0.533330
O3    O     O_R   0.714270 0.209000 0.827470 -0.533998
O4    O     O_R   0.285730 0.209000 0.172530 -0.533330
O5    O     O_R   0.445950 0.919440 0.676520 -0.494549
O6    O     O_R   0.554050 0.919440 0.323480 -0.509266
O7    O     O_R   0.945950 0.419440 0.676520 -0.494549
O8    O     O_R   0.054050 0.419440 0.323480 -0.509266
O9    O     O_R   0.456730 0.717630 0.669840 -0.524485
O10   O     O_R   0.543270 0.717630 0.330160 -0.526445
O11   O     O_R   0.956730 0.217630 0.669840 -0.524486
O12   O     O_R   0.043270 0.217630 0.330160 -0.526445
O13   O     O_R   0.320620 0.625640 0.672920 -0.524250
O14   O     O_R   0.679380 0.625640 0.327080 -0.503866
O15   O     O_R   0.820620 0.125640 0.672920 -0.524254
O16   O     O_R   0.179380 0.125640 0.327080 -0.503866
O17   O     O_3   0.334280 0.834290 0.749180 -0.278413
O18   O     O_3   0.665720 0.834290 0.250820 -0.289386
O19   O     O_3   0.834280 0.334290 0.749180 -0.278411
O20   O     O_3   0.165720 0.334290 0.250820 -0.289388
O21   O     O_R   0.236160 0.958490 0.823130 -0.518971
O22   O     O_R   0.763840 0.958490 0.176870 -0.529232
O23   O     O_R   0.736160 0.458490 0.823130 -0.518971
O24   O     O_R   0.263840 0.458490 0.176870 -0.529232
O25   O     O_R   0.332080 0.075470 0.831280 -0.490772
O26   O     O_R   0.667920 0.075470 0.168720 -0.458303
O27   O     O_R   0.832080 0.575470 0.831280 -0.490773
O28   O     O_R   0.167920 0.575470 0.168720 -0.458310
O29   O     O_R   0.446300 0.918110 0.826620 -0.507839
O30   O     O_R   0.553700 0.918110 0.173380 -0.506230
O31   O     O_R   0.946300 0.418110 0.826620 -0.507840
O32   O     O_R   0.053700 0.418110 0.173380 -0.506224
O33   O     O_R   0.457110 0.716200 0.831760 -0.503711
O34   O     O_R   0.542890 0.716200 0.168240 -0.502210
O35   O     O_R   0.957110 0.216200 0.831760 -0.503710
O36   O     O_R   0.042890 0.216200 0.168240 -0.502211
O37   O     O_R   0.320980 0.624310 0.823030 -0.486982
O38   O     O_R   0.679020 0.624310 0.176970 -0.466212
O39   O     O_R   0.820980 0.124310 0.823030 -0.486982
O40   O     O_R   0.179020 0.124310 0.176970 -0.466212
O41   O     O_R   0.213890 0.710430 0.665540 -0.485165
O42   O     O_R   0.786110 0.710430 0.334460 -0.527003
O43   O     O_R   0.713890 0.210430 0.665540 -0.485155
O44   O     O_R   0.286110 0.210430 0.334460 -0.527003
O45   O     O_R   0.235810 0.959820 0.673020 -0.504430
O46   O     O_R   0.764190 0.959820 0.326980 -0.512368
O47   O     O_R   0.735810 0.459820 0.673020 -0.504429
O48   O     O_R   0.264190 0.459820 0.326980 -0.512369
O49   O     O_R   0.331700 0.076900 0.669350 -0.527165
O50   O     O_R   0.668300 0.076900 0.330650 -0.517000
O51   O     O_R   0.831700 0.576900 0.669350 -0.527166
O52   O     O_R   0.168300 0.576900 0.330650 -0.516996
N1    N     N_3   0.129725 0.538873 0.591045 -0.612742
H41   H     H_    0.115989 0.446703 0.587112 0.235889
H42   H     H_    0.086807 0.592481 0.572753 0.236853
N2    N     N_3   0.848999 0.768197 0.452707 -0.642007
H43   H     H_    0.882660 0.715878 0.421221 0.247516
H44   H     H_    0.827851 0.842992 0.424928 0.279430
N3    N     N_3   0.629714 0.038916 0.591041 -0.612731
H45   H     H_    0.615969 0.946750 0.587111 0.235891
H46   H     H_    0.586802 0.092536 0.572745 0.236847
N4    N     N_3   0.348994 0.268207 0.452709 -0.642004
H47   H     H_    0.382657 0.215891 0.421223 0.247517
H48   H     H_    0.327844 0.343000 0.424930 0.279432
N5    N     N_3   0.370887 0.502684 0.934164 -0.603060
H49   H     H_    0.406631 0.472191 0.973792 0.201091
H50   H     H_    0.366043 0.432978 0.896485 0.263254
N6    N     N_3   0.619694 0.529177 0.061751 -0.589456
H51   H     H_    0.584417 0.491627 0.024145 0.197738
H52   H     H_    0.636686 0.456098 0.093959 0.246911
N7    N     N_3   0.870887 0.002683 0.934163 -0.603058
H53   H     H_    0.906631 0.972189 0.973791 0.201092
H54   H     H_    0.866042 0.932976 0.896484 0.263254
N8    N     N_3   0.119694 0.029177 0.061752 -0.589456
H55   H     H_    0.084417 0.991627 0.024145 0.197739
H56   H     H_    0.136687 0.956097 0.093959 0.246904
N9    N     N_3   0.109583 0.645880 0.053650 -0.584799
H57   H     H_    0.063786 0.618829 0.026123 0.211501
H58   H     H_    0.113468 0.740757 0.047456 0.219497
N10   N     N_3   0.874013 0.694681 0.935379 -0.600892
H59   H     H_    0.906406 0.616612 0.936468 0.243727
H60   H     H_    0.900236 0.757318 0.968465 0.195479
N11   N     N_3   0.609587 0.145891 0.053651 -0.584794
H61   H     H_    0.563787 0.118810 0.026136 0.211511
H62   H     H_    0.613463 0.240768 0.047439 0.219486
N12   N     N_3   0.374013 0.194682 0.935379 -0.600891
H63   H     H_    0.406406 0.116613 0.936468 0.243727
H64   H     H_    0.400236 0.257319 0.968464 0.195479

loop_
_geom_bond_atom_site_label_1
_geom_bond_atom_site_label_2
_ccdc_geom_bond_type
Cr2   O18   S    
C49   C53   A    
C58   C62   A    
C55   C59   A    
C63   H11   S    
C8    H24   S    
C34   C37   A    
C56   H8    S    
C41   C42   A    
C14   C18   A    
Cr1   O21   S    
C35   C36   A    
C86   O14   A    
C45   O33   A    
C65   H13   S    
N6    H52   S    
C5    C94   S    
C94   H2    S    
C24   N12   S    
C7    C8    S    
Cr4   O24   S    
Cr7   O19   S    
N1    H41   S    
C15   C19   A    
C7    C96   S    
C22   N10   S    
C1    O21   A    
C50   C54   A    
Cr5   O17   S    
C37   C41   A    
C52   C72   A    
N7    H54   S    
C64   C68   A    
C29   C73   S    
C80   O52   A    
C92   H20   S    
C39   C84   S    
C48   O36   A    
C83   O11   A    
Cr2   O46   S    
C5    C6    S    
C30   C74   S    
C95   C99   S    
C41   H37   S    
C35   H35   S    
Cr12  O16   S    
C14   H26   S    
C92   C96   S    
C47   C99   S    
C74   O2    A    
C3    C18   S    
C61   H9    S    
C78   O50   A    
Cr1   O45   S    
C88   O44   A    
Cr6   O30   S    
C9    C13   A    
C74   O38   A    
C52   C56   A    
C11   C15   A    
C36   H36   S    
C51   N3    S    
C87   O15   A    
N7    H53   S    
Cr9   O37   S    
N2    H43   S    
C88   O16   A    
N11   H62   S    
C27   H31   S    
N11   H61   S    
Cr1   O17   S    
C2    O26   A    
C28   H32   S    
C23   C27   A    
C91   C100  S    
Cr2   O2    S    
C90   C97   S    
C67   C71   A    
C84   O12   A    
C9    C29   A    
Cr6   O26   S    
Cr4   O20   S    
N8    H56   S    
C23   N11   S    
C46   C98   S    
C11   C31   A    
C49   C69   A    
C12   C32   A    
C3    O27   A    
Cr3   O19   S    
Cr4   O48   S    
C57   C80   S    
C40   C83   S    
C16   H28   S    
C8    C95   S    
C1    O25   A    
C4    O28   A    
Cr12  O12   S    
C75   O39   A    
Cr2   O42   S    
C59   C78   S    
Cr3   O23   S    
N6    H51   S    
C72   C88   S    
Cr1   O41   S    
C90   C94   S    
C15   H27   S    
N1    H42   S    
Cr10  O10   S    
C48   C100  S    
N12   H64   S    
C60   C77   S    
C59   C63   A    
C81   O5    A    
Cr8   O32   S    
C45   O29   A    
C6    C98   S    
C12   C16   A    
Cr11  O39   S    
C28   C32   A    
Cr11  O11   S    
C47   O31   A    
C10   C14   A    
C95   H3    S    
C91   C92   S    
Cr3   O43   S    
C62   C66   A    
N4    H47   S    
C55   H7    S    
C82   O10   A    
C51   C55   A    
Cr9   O33   S    
N5    H49   S    
Cr6   O6    S    
C27   C31   A    
Cr10  O38   S    
C17   C21   A    
C56   C60   A    
Cr7   O31   S    
C68   C72   A    
C13   H25   S    
C7    C99   S    
C19   C23   A    
C43   C44   A    
C63   C67   A    
Cr7   O51   S    
N9    H57   S    
C76   O40   A    
C69   C85   S    
C67   H15   S    
Cr6   O50   S    
C10   C30   A    
Cr5   O49   S    
N3    H45   S    
Cr1   O1    S    
C21   N9    S    
C16   C20   A    
C6    C93   S    
Cr5   O5    S    
C77   O49   A    
C52   N4    S    
C33   C34   A    
C5    H21   S    
C83   O7    A    
Cr8   O52   S    
Cr3   O47   S    
C46   O34   A    
C50   N2    S    
C33   H33   S    
Cr12  O40   S    
C71   C87   S    
C4    C17   S    
C58   C79   S    
C3    O23   A    
N3    H46   S    
C49   N1    S    
C26   C30   A    
Cr9   O13   S    
C79   O51   A    
C54   H6    S    
C38   C81   S    
C22   C26   A    
C68   H16   S    
C37   C82   S    
Cr4   O4    S    
N5    H50   S    
Cr9   O17   S    
C10   N6    S    
C11   N7    S    
C70   C86   S    
C93   C97   S    
C12   N8    S    
C62   H10   S    
C43   H39   S    
Cr8   O28   S    
C48   O32   A    
Cr12  O36   S    
C54   C58   A    
C9    N5    S    
C65   C69   A    
C21   C25   A    
N12   H63   S    
Cr10  O34   S    
C1    C20   S    
C53   C57   A    
C79   O47   A    
Cr7   O27   S    
C2    C19   S    
C18   C22   A    
C81   O9    A    
C36   C39   A    
C25   H29   S    
C24   C28   A    
Cr5   O25   S    
N10   H60   S    
C32   C76   S    
Cr7   O7    S    
C51   C71   A    
C75   O3    A    
C57   C61   A    
C84   O8    A    
Cr8   O8    S    
Cr2   O22   S    
C78   O46   A    
C66   C70   A    
Cr11  O35   S    
C33   C38   A    
C44   H40   S    
C13   C17   A    
C89   C98   S    
C60   C64   A    
C85   O13   A    
C46   O30   A    
Cr8   O20   S    
C35   C40   A    
C50   C70   A    
N4    H48   S    
C87   O43   A    
N9    H58   S    
C64   H12   S    
C86   O42   A    
C25   C29   A    
Cr10  O14   S    
C85   O41   A    
C8    C100  S    
Cr12  O20   S    
C77   O45   A    
C82   O6    A    
C96   C100  S    
N10   H59   S    
C76   O4    A    
C93   H1    S    
C53   H5    S    
C61   C65   A    
C89   C93   S    
C42   H38   S    
C73   O37   A    
C4    O24   A    
C7    H23   S    
Cr11  O15   S    
C91   C95   S    
C90   H18   S    
C38   C42   A    
C66   H14   S    
C5    C97   S    
C6    H22   S    
C91   H19   S    
Cr10  O18   S    
N2    H44   S    
N8    H55   S    
Cr6   O18   S    
C39   C43   A    
C73   O1    A    
C40   C44   A    
C94   C98   S    
C34   H34   S    
C96   H4    S    
C45   C97   S    
C31   C75   S    
Cr5   O29   S    
C89   C90   S    
C26   H30   S    
C89   H17   S    
C47   O35   A    
C20   C24   A    
C2    O22   A    
Cr3   O3    S    
C92   C99   S    
Cr4   O44   S    
Cr9   O9    S    
Cr11  O19   S    
C80   O48   A    
