data_mof_unit_18284.cif
_audit_creation_date              2012-12-10T17:49:43-0500
_audit_creation_method            fapswitch 2.2
_symmetry_space_group_name_H-M    P1
_symmetry_Int_Tables_number       1
_space_group_crystal_system       triclinic
_cell_length_a                    10.504288
_cell_length_b                    10.6763
_cell_length_c                    9.971959
_cell_angle_alpha                 91.07395
_cell_angle_beta                  90.182356
_cell_angle_gamma                 91.894222
_cell_volume                      1117.50905359

loop_
_atom_site_label
_atom_site_type_symbol
_atom_type_description
_atom_site_fract_x
_atom_site_fract_y
_atom_site_fract_z
_atom_type_partial_charge
Br1   Br    Br    0.326555 0.790498 0.798797 -0.536880
Br2   Br    Br    0.270170 0.267948 0.239387 -0.569204
Br3   Br    Br    0.762725 0.233098 0.698885 -0.596312
C1    C     C_R   0.513374 0.260761 0.499059 0.948845
C2    C     C_R   0.553090 0.062267 0.616475 -0.017337
C3    C     C_R   0.529210 0.126664 0.496853 -0.076955
C4    C     C_R   0.257700 0.503233 0.499637 0.896364
C5    C     C_R   0.490437 0.060607 0.380821 -0.170259
C6    C     C_R   0.465055 0.934111 0.385987 -0.206551
C7    C     C_R   0.472310 0.873287 0.508311 -0.053904
C8    C     C_R   0.277255 0.415008 0.132312 0.315187
C9    C     C_R   0.163087 0.421050 0.061203 -0.262205
C10   C     C_R   0.166667 0.411786 0.922760 -0.265436
C11   C     C_R   0.284882 0.402981 0.860258 0.283173
C12   C     C_3   0.961905 0.623759 0.468281 -0.203278
C13   C     C_R   0.393884 0.454757 0.926775 0.129011
C14   C     C_R   0.392349 0.456976 0.070485 0.068072
C15   C     C_R   0.603458 0.539098 0.072376 -0.116786
C16   C     C_R   0.487398 0.739316 0.502101 0.874148
C17   C     C_R   0.603020 0.540149 0.929781 -0.053313
C18   C     C_R   0.742390 0.504628 0.500286 0.886441
C19   C     C_3   0.037389 0.393684 0.530147 -0.143510
C20   C     C_3   0.954280 0.424432 0.408371 -0.118528
C21   C     C_3   0.877718 0.508975 0.500550 0.025515
C22   C     C_3   0.958980 0.479108 0.622365 -0.127642
C23   C     C_3   0.041516 0.538969 0.376368 -0.146515
C24   C     C_3   0.046191 0.593409 0.589918 -0.177914
C25   C     C_3   0.634572 0.860745 0.064516 -0.759859
C26   C     C_3   0.314713 0.183461 0.826572 -0.725290
C27   C     C_3   0.122535 0.507776 0.498322 0.009626
C28   C     C_R   0.628307 0.111723 0.724089 0.276569
C29   C     C_R   0.622415 0.055948 0.849193 -0.297311
C30   C     C_R   0.539773 0.952949 0.870031 0.164167
C31   C     C_R   0.473275 0.897718 0.760508 0.267076
C32   C     C_R   0.496852 0.942556 0.629019 -0.062783
H1    H     H_    0.912887 0.355530 0.334238 0.152908
H2    H     H_    0.926136 0.717203 0.443202 0.151038
H3    H     H_    0.078996 0.566840 0.277182 0.155969
H4    H     H_    0.478329 0.106425 0.286044 0.198374
H5    H     H_    0.679174 0.095548 0.931297 0.194242
H6    H     H_    0.472929 0.966938 0.062383 0.235506
H7    H     H_    0.607242 0.805306 0.153413 0.249961
H8    H     H_    0.698136 0.940452 0.098288 0.229207
H9    H     H_    0.686993 0.799439 0.994073 0.243441
H10   H     H_    0.224096 0.297014 0.697256 0.217689
H11   H     H_    0.323502 0.110692 0.746926 0.246650
H12   H     H_    0.440454 0.883617 0.293912 0.179814
H13   H     H_    0.231016 0.157139 0.889237 0.255567
H14   H     H_    0.401693 0.186861 0.890106 0.245727
H15   H     H_    0.687980 0.572070 0.126194 0.143077
H16   H     H_    0.073560 0.397381 0.109668 0.182180
H17   H     H_    0.080673 0.380801 0.870265 0.170334
H18   H     H_    0.687089 0.574101 0.877724 0.138023
H19   H     H_    0.066940 0.297225 0.550550 0.159428
H20   H     H_    0.922128 0.458573 0.723924 0.177605
H21   H     H_    0.087669 0.662107 0.664042 0.193966
N1    N     N_R   0.498800 0.498800 0.142780 -0.104412
N2    N     N_R   0.498760 0.498720 0.857170 -0.090269
N3    N     N_2   0.521229 0.905997 0.001123 -0.262994
N4    N     N_2   0.297518 0.303550 0.765511 -0.255249
O1    O     O_R   0.500000 0.316780 0.614690 -0.572496
O2    O     O_R   0.499990 0.316750 0.385360 -0.590040
O3    O     O_R   0.313960 0.499980 0.614650 -0.614986
O4    O     O_R   0.313940 0.499960 0.385310 -0.602122
O5    O     O_R   0.500010 0.683250 0.614640 -0.586879
O6    O     O_R   0.500000 0.683220 0.385310 -0.635911
O7    O     O_R   0.686060 0.500040 0.614690 -0.604555
O8    O     O_R   0.686040 0.500020 0.385350 -0.640032
Zn1   Zn    Zn3+2 0.500010 0.500020 0.653130 1.009854
Zn2   Zn    Zn3+2 0.499990 0.499980 0.346870 0.972961

loop_
_geom_bond_atom_site_label_1
_geom_bond_atom_site_label_2
_ccdc_geom_bond_type
C8    C9    A    
N2    Zn1   S    
C23   C27   S    
C7    C32   A    
C18   O7    A    
C5    H4    S    
O4    Zn2   S    
N1    Zn2   S    
C22   C24   S    
C10   H17   S    
C11   N4    S    
C6    C7    A    
C26   H11   S    
C25   H8    S    
C12   C24   S    
C28   C29   A    
C26   N4    S    
C7    C16   S    
C20   C21   S    
C23   H3    S    
C29   C30   A    
C30   C31   A    
C30   N3    S    
C18   C21   S    
C19   H19   S    
C4    C27   S    
C26   H14   S    
C10   C11   A    
C9    C10   A    
C24   C27   S    
Br3   C28   S    
C25   H7    S    
C17   H18   S    
C4    O3    A    
O6    Zn2   S    
O5    Zn1   S    
C15   H15   S    
C2    C32   A    
C1    C3    S    
C12   C21   S    
Br1   C31   S    
C6    H12   S    
C13   N2    A    
C15   C17   A    
C29   H5    S    
C18   O8    A    
O3    Zn1   S    
C2    C3    A    
C15   N1    A    
C11   C13   A    
C4    O4    A    
C20   C23   S    
Br2   C8    S    
C16   O5    A    
C17   N2    A    
C20   H1    S    
C1    O2    A    
C26   H13   S    
C9    H16   S    
C21   C22   S    
O2    Zn2   S    
C16   O6    A    
O8    Zn2   S    
C31   C32   A    
C25   N3    S    
O1    Zn1   S    
C19   C20   S    
C13   C14   A    
H10   N4    S    
C3    C5    A    
C19   C27   S    
C2    C28   A    
C24   H21   S    
C1    O1    A    
C25   H9    S    
O7    Zn1   S    
C12   H2    S    
C22   H20   S    
H6    N3    S    
C14   N1    A    
C5    C6    A    
C12   C23   S    
C19   C22   S    
C8    C14   A    
