data_mof_unit_12768.cif
_audit_creation_date              2012-12-10T17:16:42-0500
_audit_creation_method            fapswitch 2.2
_symmetry_space_group_name_H-M    P1
_symmetry_Int_Tables_number       1
_space_group_crystal_system       triclinic
_cell_length_a                    23.526772
_cell_length_b                    13.145877
_cell_length_c                    11.908569
_cell_angle_alpha                 99.336209
_cell_angle_beta                  94.376941
_cell_angle_gamma                 92.624517
_cell_volume                      3617.3559615

loop_
_atom_site_label
_atom_site_type_symbol
_atom_type_description
_atom_site_fract_x
_atom_site_fract_y
_atom_site_fract_z
_atom_type_partial_charge
C1    C     C_R   0.499376 0.299135 0.480158 0.863827
C2    C     C_R   0.501861 0.700273 0.520642 0.885363
C3    C     C_R   0.246921 0.603127 0.496170 0.257000
C4    C     C_R   0.755113 0.411342 0.551251 0.385202
C5    C     C_R   0.295589 0.566113 0.443562 0.356832
C6    C     C_R   0.697419 0.408254 0.508527 0.264717
C7    C     C_R   0.327663 0.497439 0.498716 -0.290724
C8    C     C_R   0.671049 0.501335 0.504528 -0.324469
C9    C     C_R   0.300428 0.441434 0.572837 0.253910
C10   C     C_R   0.703207 0.595881 0.536015 0.293293
C11   C     C_R   0.245637 0.465319 0.603839 0.433262
C12   C     C_R   0.761264 0.595804 0.574667 0.361565
C13   C     C_R   0.214055 0.531178 0.543795 -0.023157
C14   C     C_R   0.789969 0.502606 0.552567 -0.074502
C15   C     C_R   0.508118 0.813440 0.530341 -0.255872
C16   C     C_R   0.500641 0.184992 0.471986 -0.231519
C17   C     C_R   0.495497 0.015786 0.348267 0.546629
C18   C     C_R   0.545916 0.978371 0.638000 0.537041
C19   C     C_R   0.494353 0.124319 0.362551 -0.403652
C20   C     C_R   0.539598 0.871123 0.625806 -0.313075
C21   C     C_R   0.511008 0.135629 0.569780 0.413825
C22   C     C_R   0.486045 0.863989 0.441880 0.474923
C23   C     C_R   0.390896 0.498674 0.499031 0.956163
C24   C     C_R   0.608580 0.500714 0.500470 0.969741
C25   C     C_R   0.520435 0.029212 0.552304 -0.217527
C26   C     C_R   0.501084 0.969488 0.446364 -0.155119
C27   C     C_R   0.432698 0.422789 0.020876 0.273644
C28   C     C_R   0.554411 0.593791 0.981196 0.346686
C29   C     C_R   0.442278 0.422204 0.143603 0.370230
C30   C     C_R   0.557175 0.570155 0.861561 0.355264
C31   C     C_R   0.530116 0.522906 0.151193 0.653485
C32   C     C_R   0.463985 0.496802 0.848374 0.680272
C33   C     C_R   0.518889 0.531524 0.033434 -0.340853
C34   C     C_R   0.471390 0.481148 0.966574 -0.358247
C35   C     C_R   0.882274 0.590074 0.524015 0.685200
C36   C     C_R   0.122051 0.429530 0.524336 0.665310
C37   C     C_R   0.880526 0.411828 0.522426 0.641711
C38   C     C_R   0.120371 0.608875 0.523278 0.629210
C39   C     C_R   0.941130 0.413787 0.535677 -0.166069
C40   C     C_R   0.062489 0.609015 0.545380 -0.170040
C41   C     C_R   0.972182 0.509280 0.544641 -0.148861
C42   C     C_R   0.032401 0.513578 0.544106 -0.128464
C43   C     C_R   0.942490 0.599308 0.541094 -0.157997
C44   C     C_R   0.061971 0.421926 0.531848 -0.137678
C45   C     C_R   0.971269 0.322503 0.535535 0.360404
C46   C     C_R   0.033385 0.701908 0.563528 0.362865
C47   C     C_R   0.031146 0.325877 0.529185 0.403048
C48   C     C_R   0.973178 0.696283 0.554919 0.428950
Cu1   Cu    Cu3+1 0.504210 0.507730 0.615930 1.118521
Cu2   Cu    Cu3+1 0.495790 0.492270 0.384070 1.068585
H1    H     H_    0.558488 0.833486 0.692676 0.242615
H2    H     H_    0.487010 0.162948 0.290001 0.205783
N1    N     N_R   0.852068 0.501799 0.538795 -0.423758
N2    N     N_R   0.151288 0.524146 0.532304 -0.417962
N3    N     N_R   0.510550 0.519360 0.790130 -0.306216
N4    N     N_R   0.489450 0.480640 0.209870 -0.309799
O1    O     O_R   0.502990 0.354470 0.582000 -0.508525
O2    O     O_R   0.497010 0.645530 0.418000 -0.533649
O3    O     O_R   0.495870 0.341410 0.386200 -0.570600
O4    O     O_R   0.504130 0.658590 0.613800 -0.584475
O5    O     O_R   0.421440 0.506500 0.597920 -0.546887
O6    O     O_R   0.578560 0.493500 0.402080 -0.602981
O7    O     O_R   0.414320 0.493440 0.402120 -0.493362
O8    O     O_R   0.585680 0.506560 0.597880 -0.482451
O9    O     O_2   0.854958 0.664759 0.481082 -0.491061
O10   O     O_2   0.150789 0.342780 0.505863 -0.508276
O11   O     O_2   0.851327 0.321335 0.481989 -0.484591
O12   O     O_2   0.143487 0.690025 0.483743 -0.482666
O13   O     O_3   0.942714 0.228245 0.536746 -0.557099
C49   C     C_3   0.926546 0.225461 0.648486 0.101908
H3    H     H_    0.894528 0.282198 0.671865 0.232004
H4    H     H_    0.963460 0.243573 0.713604 0.092838
C50   C     C_3   0.901173 0.117975 0.654552 -0.269067
H5    H     H_    0.863355 0.098447 0.591680 0.274082
H6    H     H_    0.933459 0.061086 0.631920 0.184543
C51   C     C_3   0.883808 0.111518 0.774226 -0.907300
H7    H     H_    0.921999 0.123559 0.836792 0.250024
H8    H     H_    0.863138 0.034301 0.775270 0.255771
H9    H     H_    0.852984 0.170684 0.800069 0.297651
O14   O     O_3   0.062199 0.798904 0.588825 -0.574343
C52   C     C_3   0.099307 0.807147 0.690471 0.123457
H10   H     H_    0.142871 0.793021 0.666820 0.269203
H11   H     H_    0.087514 0.751535 0.747605 0.104734
C53   C     C_3   0.101772 0.916542 0.758547 -0.409008
H12   H     H_    0.109177 0.973092 0.700554 0.241015
H13   H     H_    0.060941 0.931350 0.797055 0.207280
C54   C     C_3   0.149649 0.931587 0.855009 -0.832269
H14   H     H_    0.144162 0.872953 0.911431 0.261611
H15   H     H_    0.148645 0.009358 0.907278 0.253905
H16   H     H_    0.191879 0.924741 0.819468 0.285257
O15   O     O_3   0.410720 0.518894 0.805788 -0.515899
C55   C     C_3   0.402201 0.625470 0.834194 0.110765
H17   H     H_    0.369202 0.642834 0.769676 0.232366
H18   H     H_    0.440918 0.675688 0.827475 0.123291
C56   C     C_3   0.380241 0.651551 0.953186 -0.378201
H19   H     H_    0.354421 0.584778 0.972796 0.280450
H20   H     H_    0.417228 0.668669 0.018222 0.245663
C57   C     C_3   0.343502 0.744685 0.961800 -0.818725
H21   H     H_    0.366584 0.810647 0.934322 0.249042
H22   H     H_    0.333087 0.767547 0.051455 0.256615
H23   H     H_    0.302993 0.725031 0.906634 0.299656
O16   O     O_3   0.586019 0.539591 0.198786 -0.535577
C58   C     C_3   0.614458 0.448125 0.162644 0.091159
H24   H     H_    0.608122 0.422106 0.068324 0.112529
H25   H     H_    0.597561 0.384232 0.204136 0.117753
C59   C     C_3   0.678898 0.462705 0.195297 -0.413054
H26   H     H_    0.687592 0.493332 0.287305 0.202631
H27   H     H_    0.697346 0.386011 0.178187 0.173659
C60   C     C_3   0.709259 0.533437 0.126585 -0.628460
H28   H     H_    0.698425 0.507539 0.033618 0.281605
H29   H     H_    0.756155 0.531504 0.144840 0.219229
H30   H     H_    0.697582 0.613875 0.151651 0.296594
S1    S     S_3+6 0.624526 0.606215 0.817296 0.090376
O17   O     O_2   0.653319 0.511568 0.767933 -0.220309
O18   O     O_2   0.616430 0.677582 0.731750 -0.256923
O19   O     O_3   0.669473 0.665968 0.927452 -0.496100
H31   H     H_    0.674419 0.738760 0.916411 0.401463
S2    S     S_3+6 0.387746 0.345766 0.202933 0.046080
O20   O     O_2   0.400330 0.313585 0.315736 -0.343520
O21   O     O_2   0.336198 0.408665 0.212269 -0.285186
O22   O     O_3   0.368118 0.231681 0.120864 -0.495301
H32   H     H_    0.331500 0.209063 0.147707 0.365487
S3    S     S_3+6 0.377163 0.338469 0.933842 0.117883
O23   O     O_2   0.366036 0.356241 0.814637 -0.120740
O24   O     O_2   0.395337 0.229922 0.923934 -0.256543
O25   O     O_3   0.313775 0.348141 0.989978 -0.456839
H33   H     H_    0.289480 0.288356 0.948077 0.384580
S4    S     S_3+6 0.568935 0.723506 0.051255 0.016591
O26   O     O_2   0.520941 0.754898 0.122550 -0.229587
O27   O     O_2   0.623026 0.733219 0.128298 -0.298085
O28   O     O_3   0.574007 0.803247 0.954740 -0.560877
H34   H     H_    0.597447 0.864682 0.995251 0.355107
O29   O     O_3   0.059216 0.234713 0.508807 -0.539968
C61   C     C_3   0.065026 0.184156 0.605561 0.125213
H35   H     H_    0.097515 0.126254 0.587826 0.189116
H36   H     H_    0.025470 0.138389 0.613742 0.150373
C62   C     C_3   0.085734 0.255586 0.718492 -0.410138
H37   H     H_    0.124213 0.300473 0.704377 0.317625
H38   H     H_    0.053365 0.311025 0.745919 0.190068
C63   C     C_3   0.100147 0.194889 0.814412 -0.872504
H39   H     H_    0.062952 0.143488 0.825777 0.242581
H40   H     H_    0.111527 0.249256 0.895447 0.273236
H41   H     H_    0.137422 0.148444 0.794710 0.275581
O30   O     O_3   0.943120 0.784805 0.556586 -0.536439
C64   C     C_3   0.948732 0.850818 0.664256 0.132748
H42   H     H_    0.910556 0.896968 0.666465 0.203306
H43   H     H_    0.985453 0.907196 0.668243 0.142916
C65   C     C_3   0.951019 0.796750 0.770428 -0.404200
H44   H     H_    0.919817 0.729747 0.755941 0.299042
H45   H     H_    0.993801 0.767514 0.785773 0.184548
C66   C     C_3   0.938176 0.869870 0.877440 -0.799977
H46   H     H_    0.967297 0.940488 0.890945 0.230508
H47   H     H_    0.944255 0.830622 0.952944 0.270409
H48   H     H_    0.893226 0.891860 0.869560 0.280664
S5    S     S_3+6 0.262189 0.724413 0.587804 0.017920
O31   O     O_2   0.240781 0.811298 0.531427 -0.253867
O32   O     O_2   0.234741 0.723619 0.697591 -0.330322
O33   O     O_3   0.332940 0.745396 0.620128 -0.530180
H49   H     H_    0.337579 0.811496 0.674263 0.368414
S6    S     S_3+6 0.769082 0.335467 0.659852 0.023787
O34   O     O_2   0.783894 0.228913 0.609105 -0.324077
O35   O     O_2   0.816994 0.386561 0.743639 -0.336537
O36   O     O_3   0.710219 0.324461 0.729726 -0.457707
H50   H     H_    0.722446 0.290527 0.795249 0.350309
O37   O     O_3   0.318261 0.606907 0.354413 -0.532977
C67   C     C_3   0.277485 0.651844 0.286113 0.146560
H51   H     H_    0.301397 0.698549 0.233531 0.175924
H52   H     H_    0.251612 0.707408 0.337250 0.200608
C68   C     C_3   0.239304 0.569820 0.204331 -0.389581
H53   H     H_    0.265795 0.525269 0.142898 0.290847
H54   H     H_    0.217983 0.515838 0.252889 0.224589
C69   C     C_3   0.193760 0.619473 0.136599 -0.847570
H55   H     H_    0.165562 0.663195 0.195287 0.273813
H56   H     H_    0.167280 0.558480 0.077296 0.263780
H57   H     H_    0.214067 0.672579 0.085649 0.263482
O38   O     O_3   0.663916 0.316621 0.489645 -0.561079
C70   C     C_3   0.683187 0.249776 0.396625 0.086936
H58   H     H_    0.720830 0.210095 0.425839 0.213789
H59   H     H_    0.695132 0.291851 0.327053 0.105852
C71   C     C_3   0.635649 0.168636 0.346888 -0.356800
H60   H     H_    0.624208 0.122772 0.413374 0.225011
H61   H     H_    0.597638 0.208334 0.319430 0.221985
C72   C     C_3   0.653730 0.096294 0.243848 -0.913360
H62   H     H_    0.659740 0.139367 0.172302 0.255134
H63   H     H_    0.620220 0.033237 0.215329 0.270768
H64   H     H_    0.694294 0.061564 0.266381 0.268522
O39   O     O_3   0.326752 0.362918 0.616371 -0.488180
C73   C     C_3   0.332998 0.278567 0.528580 0.144590
H65   H     H_    0.378611 0.278166 0.511232 0.178345
H66   H     H_    0.306818 0.281223 0.446779 0.131077
C74   C     C_3   0.316080 0.177720 0.569288 -0.306663
H67   H     H_    0.337470 0.176603 0.655481 0.292819
H68   H     H_    0.269166 0.172563 0.575398 0.242818
C75   C     C_3   0.332669 0.083974 0.487531 -0.771682
H69   H     H_    0.311697 0.082863 0.400512 0.259129
H70   H     H_    0.318905 0.012093 0.518211 0.293175
H71   H     H_    0.379716 0.085790 0.483563 0.266647
O40   O     O_3   0.675698 0.687373 0.549786 -0.538719
C76   C     C_3   0.670828 0.725873 0.445514 0.036531
H72   H     H_    0.631893 0.770624 0.445042 0.179323
H73   H     H_    0.664659 0.664163 0.368792 0.175362
C77   C     C_3   0.722716 0.798338 0.437773 -0.338649
H74   H     H_    0.729778 0.855685 0.517433 0.258972
H75   H     H_    0.761240 0.753182 0.428508 0.266683
C78   C     C_3   0.714680 0.855473 0.336711 -0.836259
H76   H     H_    0.714494 0.800534 0.255519 0.291228
H77   H     H_    0.750662 0.913958 0.340552 0.256844
H78   H     H_    0.674075 0.895387 0.338893 0.267109
S7    S     S_3+6 0.226166 0.439479 0.737381 0.062156
O41   O     O_2   0.226644 0.325498 0.739093 -0.289518
O42   O     O_2   0.269974 0.494328 0.827867 -0.231590
O43   O     O_3   0.161991 0.483425 0.766637 -0.580391
H79   H     H_    0.157304 0.471960 0.845676 0.360580
S8    S     S_3+6 0.787429 0.692717 0.691655 0.052625
O44   O     O_2   0.818604 0.780773 0.652355 -0.288086
O45   O     O_2   0.738976 0.736045 0.755335 -0.233115
O46   O     O_3   0.831154 0.639947 0.781583 -0.536460
H80   H     H_    0.805580 0.597086 0.819841 0.393228
S9    S     S_3+6 0.422572 0.810520 0.358477 0.048105
O47   O     O_2   0.386780 0.762676 0.436737 -0.255945
O48   O     O_2   0.389242 0.891899 0.312682 -0.317295
O49   O     O_3   0.437063 0.719844 0.249598 -0.472799
H81   H     H_    0.404099 0.668633 0.237391 0.365116
S10   S     S_3+6 0.495630 0.194609 0.709553 0.048449
O50   O     O_2   0.444087 0.256480 0.700512 -0.255549
O51   O     O_2   0.482246 0.114955 0.782334 -0.266234
O52   O     O_3   0.551879 0.272180 0.772461 -0.503448
H82   H     H_    0.540292 0.301804 0.848617 0.349550
O53   O     O_3   0.496153 0.949145 0.244242 -0.534015
C79   C     C_3   0.492673 0.994069 0.144553 0.117159
H83   H     H_    0.512312 0.941016 0.078450 0.223143
H84   H     H_    0.518629 0.067798 0.151579 0.093769
C80   C     C_3   0.430224 0.000794 0.102735 -0.380002
H85   H     H_    0.406229 0.926761 0.105632 0.272900
H86   H     H_    0.411026 0.062941 0.159446 0.254568
C81   C     C_3   0.425211 0.021319 0.980580 -0.715564
H87   H     H_    0.452548 0.091010 0.975664 0.315711
H88   H     H_    0.380072 0.033225 0.954005 0.276127
H89   H     H_    0.439654 0.954851 0.921744 0.246029
O54   O     O_3   0.577296 0.031704 0.734331 -0.552929
C82   C     C_3   0.632189 0.062441 0.706700 0.095045
H90   H     H_    0.646108 0.135740 0.764678 0.213692
H91   H     H_    0.633096 0.079273 0.617889 0.132039
C83   C     C_3   0.674443 0.980896 0.727282 -0.388217
H92   H     H_    0.672256 0.963663 0.815271 0.251029
H93   H     H_    0.662866 0.908530 0.665922 0.250729
C84   C     C_3   0.735346 0.018145 0.712904 -0.812806
H94   H     H_    0.738718 0.034977 0.625154 0.273907
H95   H     H_    0.764767 0.957150 0.727526 0.292776
H96   H     H_    0.748374 0.088931 0.775773 0.259512

loop_
_geom_bond_atom_site_label_1
_geom_bond_atom_site_label_2
_ccdc_geom_bond_type
C75   H70   S    
C54   H14   S    
S10   O52   S    
C41   C42   A    
C16   C21   A    
C8    C24   S    
C21   S10   S    
C35   N1    A    
C50   H6    S    
C68   H53   S    
O36   H50   S    
C65   C66   S    
C12   S8    S    
C22   S9    S    
S4    O26   D    
C52   C53   S    
C61   C62   S    
C74   H68   S    
C52   H10   S    
C56   C57   S    
S3    O23   D    
C39   C41   A    
C78   H76   S    
C83   H92   S    
C40   C46   A    
C62   H38   S    
O37   C67   S    
Cu1   O4    S    
C77   H75   S    
C73   C74   S    
Cu2   O3    S    
C78   H78   S    
C51   H8    S    
C13   N2    S    
C20   H1    S    
O13   C49   S    
C1    O3    A    
C36   O10   S    
C23   O7    A    
S3    O24   D    
C75   H71   S    
S5    O32   D    
C59   H26   S    
C35   O9    S    
S7    O43   S    
Cu1   O1    S    
O19   H31   S    
C48   O30   S    
C79   C80   S    
C73   H66   S    
C82   H90   S    
C50   H5    S    
C66   H48   S    
S2    O20   D    
O29   C61   S    
C52   H11   S    
C19   H2    S    
C15   C22   A    
C56   H19   S    
C69   H56   S    
C70   H59   S    
C77   C78   S    
C76   C77   S    
C24   O6    A    
C66   H46   S    
C51   H9    S    
O40   C76   S    
C5    O37   S    
C31   N4    A    
C35   C43   A    
C43   C48   A    
C32   N3    A    
C18   C20   A    
C30   S1    S    
C3    C13   A    
C44   C47   A    
C39   C45   A    
S1    O19   S    
C37   N1    A    
C45   C47   A    
C75   H69   S    
C76   H72   S    
C24   O8    A    
Cu1   O8    S    
C47   O29   S    
S5    O33   S    
C67   H52   S    
Cu2   O7    S    
C41   C43   A    
C67   H51   S    
O16   C58   S    
C18   C25   A    
C42   C44   A    
C10   O40   S    
C55   H18   S    
C64   H43   S    
C18   O54   S    
C64   H42   S    
C84   H95   S    
C27   C34   A    
C16   C19   A    
C15   C20   A    
C62   C63   S    
C46   C48   A    
S5    O31   D    
Cu1   O5    S    
C31   C33   A    
C45   O13   S    
C74   H67   S    
Cu2   O2    S    
C31   O16   S    
C36   N2    A    
C51   H7    S    
C4    C6    A    
C81   H87   S    
C77   H74   S    
C60   H30   S    
O15   C55   S    
C5    C7    A    
C27   S3    S    
S8    O44   D    
O30   C64   S    
S3    O25   S    
C61   H36   S    
S10   O50   D    
C9    O39   S    
O46   H80   S    
Cu1   N3    S    
C49   H4    S    
C55   C56   S    
Cu2   N4    S    
S10   O51   D    
C73   H65   S    
C82   H91   S    
S2    O22   S    
S6    O35   D    
C72   H62   S    
S6    O36   S    
O53   C79   S    
C1    O1    A    
S9    O48   D    
C71   C72   S    
C9    C11   A    
O52   H82   S    
C38   N2    A    
C70   C71   S    
C49   C50   S    
C3    S5    S    
C33   C34   A    
C58   H25   S    
C1    C16   S    
C6    O38   S    
C53   H12   S    
C63   H41   S    
C79   H84   S    
C2    C15   S    
C80   H86   S    
O22   H32   S    
C49   H3    S    
C10   C12   A    
C67   C68   S    
C65   H45   S    
O38   C70   S    
C29   N4    A    
C12   C14   A    
C28   C33   A    
Cu1   Cu2   S    
C57   H22   S    
C54   H15   S    
O33   H49   S    
Cu2   O6    S    
C50   C51   S    
C72   H64   S    
C17   C26   A    
O28   H34   S    
S4    O28   S    
S9    O47   D    
C64   C65   S    
C69   H55   S    
C69   H57   S    
C76   H73   S    
S1    O17   D    
C62   H37   S    
C84   H96   S    
C7    C9    A    
C83   H93   S    
C21   C25   A    
C56   H20   S    
S7    O42   D    
C17   O53   S    
C71   H61   S    
O54   C82   S    
C63   H40   S    
O14   C52   S    
C3    C5    A    
S8    O46   S    
S4    O27   D    
C6    C8    A    
C84   H94   S    
C2    O2    A    
C61   H35   S    
C53   C54   S    
C57   H23   S    
C27   C29   A    
C30   N3    A    
S7    O41   D    
C81   H89   S    
C82   C83   S    
S6    O34   D    
C60   H29   S    
C25   C26   A    
S8    O45   D    
C28   C30   A    
C37   C39   A    
C83   C84   S    
C60   H28   S    
C11   S7    S    
S9    O49   S    
C38   C40   A    
C11   C13   A    
C4    S6    S    
C59   H27   S    
O25   H33   S    
C7    C23   S    
C37   O11   S    
C40   C42   A    
C55   H17   S    
C17   C19   A    
C81   H88   S    
C58   C59   S    
C2    O4    A    
C65   H44   S    
C66   H47   S    
C32   O15   S    
C4    C14   A    
C79   H83   S    
C80   C81   S    
S2    O21   D    
C74   C75   S    
C36   C44   A    
C70   H58   S    
C63   H39   S    
C23   O5    A    
C14   N1    S    
O43   H79   S    
C72   H63   S    
C8    C10   A    
C57   H21   S    
C22   C26   A    
C54   H16   S    
C38   O12   S    
C58   H24   S    
C29   S2    S    
C53   H13   S    
O39   C73   S    
C68   C69   S    
C46   O14   S    
C78   H77   S    
O49   H81   S    
C59   C60   S    
C71   H60   S    
C28   S4    S    
C80   H85   S    
C32   C34   A    
S1    O18   D    
C68   H54   S    
