data_mof_unit_62053.cif
_audit_creation_date              2012-12-10T20:09:53-0500
_audit_creation_method            fapswitch 2.2
_symmetry_space_group_name_H-M    P1
_symmetry_Int_Tables_number       1
_space_group_crystal_system       triclinic
_cell_length_a                    38.675324
_cell_length_b                    32.084517
_cell_length_c                    21.640288
_cell_angle_alpha                 90.000149
_cell_angle_beta                  123.983397
_cell_angle_gamma                 89.999848
_cell_volume                      22266.4804475

loop_
_atom_site_label
_atom_site_type_symbol
_atom_type_description
_atom_site_fract_x
_atom_site_fract_y
_atom_site_fract_z
_atom_type_partial_charge
C1    C     C_R   0.919320 0.000000 0.419326 0.902583
C2    C     C_R   0.030788 0.975792 0.250896 0.040077
C3    C     C_R   0.999978 0.998826 0.120486 0.871519
C4    C     C_R   0.500022 0.498827 0.879514 0.871583
C5    C     C_R   0.499978 0.498827 0.120486 0.871580
C6    C     C_R   1.000000 0.080674 0.999999 0.897814
C7    C     C_R   0.500000 0.580674 1.000000 0.897927
C8    C     C_R   0.500000 0.919557 1.000000 0.885756
C9    C     C_R   0.000000 0.419557 0.000000 0.885880
C10   C     C_R   0.580547 0.999912 0.080478 0.894641
C11   C     C_R   0.419452 0.999911 0.919522 0.894640
C12   C     C_R   0.080547 0.499914 0.080478 0.894658
C13   C     C_R   0.469215 0.475789 0.749107 0.040061
C14   C     C_R   0.919452 0.499914 0.919522 0.894660
C15   C     C_R   0.500000 0.080613 0.000000 0.902559
C16   C     C_R   0.000000 0.580613 0.000000 0.902547
C17   C     C_R   0.477129 0.228290 0.932414 -0.172418
C18   C     C_R   0.522871 0.228290 0.067586 -0.172420
C19   C     C_R   0.022889 0.728290 0.067584 -0.172423
C20   C     C_R   0.977111 0.728290 0.932417 -0.172423
C21   C     C_R   0.500000 0.206652 0.000000 0.161010
C22   C     C_R   0.000000 0.706652 0.000001 0.161013
C23   C     C_R   0.977114 0.771725 0.932415 -0.178003
C24   C     C_R   0.530785 0.475789 0.250893 0.040063
C25   C     C_R   0.022887 0.771725 0.067587 -0.178001
C26   C     C_R   0.522868 0.271725 0.067589 -0.178004
C27   C     C_R   0.477132 0.271725 0.932412 -0.178003
C28   C     C_R   0.065296 0.079536 0.725690 -0.083445
C29   C     C_R   0.934691 0.079524 0.274302 -0.083457
C30   C     C_R   0.565291 0.579542 0.725688 -0.083287
C31   C     C_R   0.434708 0.579541 0.274312 -0.083290
C32   C     C_R   0.000000 0.793349 0.000001 0.171972
C33   C     C_R   0.500000 0.293349 0.000000 0.171973
C34   C     C_1   0.500000 0.162210 0.000000 -0.063815
C35   C     C_R   0.970000 0.977837 0.685967 -0.245236
C36   C     C_1   0.000000 0.662210 0.000000 -0.063819
C37   C     C_1   0.000000 0.837761 0.000001 -0.082557
C38   C     C_1   0.500000 0.337761 0.000000 -0.082564
C39   C     C_1   0.000000 0.875060 0.000000 -0.199291
C40   C     C_1   0.500000 0.375060 0.000000 -0.199292
C41   C     C_1   0.500000 0.124888 0.000000 -0.170032
C42   C     C_1   1.000000 0.624888 0.000000 -0.170031
C43   C     C_R   0.467199 0.772061 0.996010 0.364690
C44   C     C_R   0.532798 0.772061 0.003982 0.364696
C45   C     C_R   0.967002 0.272058 0.995313 0.364633
C46   C     C_R   0.030002 0.977839 0.314035 -0.245238
C47   C     C_R   0.032989 0.272059 0.004658 0.364649
C48   C     C_R   0.499999 0.793639 0.999997 -0.218588
C49   C     C_R   0.999996 0.293638 0.999988 -0.218529
C50   C     C_R   0.032371 0.228443 0.002643 0.274040
C51   C     C_R   0.967620 0.228442 0.997324 0.274083
C52   C     C_R   0.532172 0.728445 0.001973 0.274094
C53   C     C_R   0.467825 0.728445 0.998019 0.274104
C54   C     C_R   0.999996 0.206755 0.999985 -0.199232
C55   C     C_R   0.499999 0.706757 0.999996 -0.199167
C56   C     C_1   0.499999 0.838142 0.999999 0.105733
C57   C     C_R   0.470001 0.477835 0.685969 -0.245217
C58   C     C_1   0.999998 0.338141 0.999995 0.105604
C59   C     C_R   0.069284 0.040175 0.757321 0.018176
C60   C     C_R   0.930709 0.040164 0.242673 0.018163
C61   C     C_R   0.569281 0.540180 0.757318 0.018145
C62   C     C_R   0.430718 0.540179 0.242682 0.018145
C63   C     C_1   0.999998 0.162193 0.999990 0.192440
C64   C     C_1   0.499999 0.662194 0.999998 0.192473
C65   C     C_1   0.999999 0.124894 0.999995 -0.125973
C66   C     C_1   0.500000 0.624895 0.999999 -0.125986
C67   C     C_1   0.500000 0.875398 0.999999 -0.179463
C68   C     C_R   0.529999 0.477835 0.314031 -0.245218
C69   C     C_1   0.999999 0.375397 0.999999 -0.179397
C70   C     C_R   0.108176 0.020101 0.795996 -0.204355
C71   C     C_R   0.891821 0.020084 0.203999 -0.204343
C72   C     C_R   0.608174 0.520108 0.795989 -0.204374
C73   C     C_R   0.391826 0.520106 0.204011 -0.204372
C74   C     C_R   0.142583 0.038934 0.802064 0.445602
C75   C     C_R   0.857411 0.038911 0.197927 0.445603
C76   C     C_R   0.642579 0.538944 0.802055 0.445597
C77   C     C_R   0.357421 0.538941 0.197944 0.445595
C78   C     C_R   0.138180 0.077789 0.769054 -0.180789
C79   C     C_R   0.001402 0.000011 0.687369 -0.067052
C80   C     C_R   0.861807 0.077765 0.230934 -0.180812
C81   C     C_R   0.638173 0.577799 0.769046 -0.180814
C82   C     C_R   0.361826 0.577797 0.230953 -0.180818
C83   C     C_R   0.032353 0.018682 0.815029 -0.217640
C84   C     C_R   0.967645 0.018678 0.184970 -0.217642
C85   C     C_R   0.532351 0.518685 0.815027 -0.217520
C86   C     C_R   0.467648 0.518684 0.184973 -0.217521
C87   C     C_3   0.695558 0.082932 0.122873 0.094411
C88   C     C_3   0.729266 0.107597 0.122191 -0.370466
C89   C     C_3   0.715070 0.119318 0.043011 -0.871860
C90   C     C_R   0.998598 0.000011 0.312631 -0.067047
C91   C     C_3   0.304434 0.082919 0.877149 0.094437
C92   C     C_3   0.270739 0.107619 0.877818 -0.370367
C93   C     C_3   0.284920 0.119318 0.956998 -0.871880
C94   C     C_3   0.195572 0.582928 0.122856 0.094441
C95   C     C_3   0.229267 0.607627 0.122189 -0.370332
C96   C     C_3   0.215089 0.619323 0.043008 -0.871924
C97   C     C_3   0.804427 0.582932 0.877133 0.094442
C98   C     C_3   0.770731 0.607632 0.877796 -0.370338
C99   C     C_3   0.784910 0.619333 0.956974 -0.871923
C100  C     C_3   0.403785 0.802793 0.921154 0.119574
C101  C     C_R   0.501402 0.500011 0.687369 -0.067062
C102  C     C_3   0.370854 0.829244 0.920920 -0.312171
C103  C     C_3   0.335324 0.840950 0.841830 -0.922102
C104  C     C_3   0.596213 0.802790 0.078839 0.119579
C105  C     C_3   0.629135 0.829255 0.079072 -0.312195
C106  C     C_3   0.664671 0.840951 0.158163 -0.922091
C107  C     C_3   0.903658 0.302760 0.919575 0.119431
C108  C     C_3   0.870324 0.328907 0.918573 -0.311555
C109  C     C_3   0.835087 0.340592 0.839247 -0.922518
C110  C     C_3   0.096340 0.302746 0.080402 0.119453
C111  C     C_3   0.129650 0.328939 0.081406 -0.311631
C112  C     C_R   0.080680 0.000000 0.580674 0.902578
C113  C     C_R   0.498598 0.500011 0.312631 -0.067061
C114  C     C_3   0.164911 0.340578 0.160742 -0.922443
C115  C     C_3   0.811742 0.936901 0.560695 0.078657
C116  C     C_3   0.793735 0.979288 0.524270 -0.344315
C117  C     C_3   0.783042 0.980621 0.444919 -0.911261
C118  C     C_3   0.188263 0.936917 0.439306 0.078668
C119  C     C_3   0.206267 0.979306 0.475722 -0.344318
C120  C     C_3   0.216961 0.980644 0.555072 -0.911266
C121  C     C_3   0.311742 0.436902 0.560708 0.078665
C122  C     C_3   0.293733 0.479290 0.524293 -0.344341
C123  C     C_3   0.283037 0.480630 0.444940 -0.911263
C124  C     C_R   0.033277 0.020177 0.752123 0.018496
C125  C     C_3   0.688257 0.436897 0.439294 0.078661
C126  C     C_3   0.706267 0.479285 0.475714 -0.344338
C127  C     C_3   0.716963 0.480622 0.555066 -0.911269
C128  C     C_R   0.966721 0.020173 0.247875 0.018498
C129  C     C_R   0.533275 0.520180 0.752121 0.018502
C130  C     C_R   0.466725 0.520179 0.247879 0.018502
C131  C     C_R   0.894539 0.956293 0.691552 -0.272279
C132  C     C_R   0.105464 0.956299 0.308449 -0.272284
C133  C     C_R   0.394541 0.456289 0.691559 -0.272284
C134  C     C_R   0.605459 0.456288 0.308442 -0.272284
C135  C     C_R   0.863706 0.930231 0.686482 0.544049
C136  C     C_R   0.419320 0.500000 0.419326 0.902566
C137  C     C_R   0.136299 0.930239 0.313520 0.544047
C138  C     C_R   0.363710 0.430225 0.686492 0.544034
C139  C     C_R   0.636290 0.430224 0.313509 0.544035
C140  C     C_R   0.875705 0.898545 0.739249 -0.172453
C141  C     C_R   0.124301 0.898552 0.260755 -0.172447
C142  C     C_R   0.375711 0.398539 0.739259 -0.172445
C143  C     C_R   0.624289 0.398538 0.260742 -0.172448
C144  C     C_R   0.917844 0.891396 0.793832 -0.206291
C145  C     C_R   0.082162 0.891400 0.206174 -0.206293
C146  C     C_R   0.417851 0.391390 0.793838 -0.206289
C147  C     C_R   0.580680 0.500000 0.580674 0.902566
C148  C     C_R   0.582149 0.391390 0.206161 -0.206289
C149  C     C_R   0.948396 0.916416 0.797144 -0.111459
C150  C     C_R   0.051609 0.916419 0.202861 -0.111455
C151  C     C_R   0.448401 0.416413 0.797148 -0.111473
C152  C     C_R   0.551599 0.416413 0.202851 -0.111471
C153  C     C_R   0.001026 0.000035 0.621183 0.886997
C154  C     C_R   0.998974 0.000035 0.378817 0.887001
C155  C     C_R   0.501026 0.500035 0.621182 0.886987
C156  C     C_R   0.498974 0.500035 0.378817 0.886987
C157  C     C_R   0.936928 0.949417 0.746597 0.078121
C158  C     C_R   0.000314 0.997361 0.813481 -0.094511
C159  C     C_R   0.063076 0.949421 0.253406 0.078127
C160  C     C_R   0.436930 0.449414 0.746601 0.078128
C161  C     C_R   0.563070 0.449414 0.253399 0.078127
C162  C     C_R   0.727911 0.962028 0.231728 -0.296749
C163  C     C_R   0.272089 0.962026 0.768255 -0.296771
C164  C     C_R   0.227909 0.462039 0.231762 -0.296595
C165  C     C_R   0.772091 0.462037 0.768247 -0.296593
C166  C     C_R   0.706568 0.999850 0.205207 -0.025849
C167  C     C_R   0.293432 0.999847 0.794789 -0.025859
C168  C     C_R   0.206568 0.499860 0.205222 -0.025838
C169  C     C_R   0.999686 0.997360 0.186520 -0.094517
C170  C     C_R   0.793432 0.499859 0.794781 -0.025840
C171  C     C_R   0.728549 0.037575 0.221312 0.523083
C172  C     C_R   0.271451 0.037572 0.778695 0.523059
C173  C     C_R   0.228551 0.537583 0.221314 0.523021
C174  C     C_R   0.771449 0.537582 0.778682 0.523022
C175  C     C_R   0.772028 0.037053 0.267086 -0.303534
C176  C     C_R   0.227972 0.037051 0.732922 -0.303436
C177  C     C_R   0.272030 0.537059 0.267087 -0.303426
C178  C     C_R   0.727970 0.537058 0.732909 -0.303437
C179  C     C_R   0.793357 0.999207 0.293267 0.021732
C180  C     C_R   0.500313 0.497361 0.813481 -0.094540
C181  C     C_R   0.206643 0.999206 0.706729 0.021727
C182  C     C_R   0.293357 0.499213 0.293284 0.021750
C183  C     C_R   0.706643 0.499212 0.706718 0.021753
C184  C     C_R   0.771356 0.961483 0.275361 0.430647
C185  C     C_R   0.228644 0.961482 0.724622 0.430606
C186  C     C_R   0.271354 0.461491 0.275396 0.430528
C187  C     C_R   0.728646 0.461489 0.724613 0.430536
C188  C     C_1   0.662092 0.999695 0.161584 0.013085
C189  C     C_1   0.337908 0.999692 0.838415 0.013106
C190  C     C_1   0.162092 0.499705 0.161591 0.013136
C191  C     C_R   0.499686 0.497361 0.186519 -0.094540
C192  C     C_1   0.837908 0.499704 0.838410 0.013135
C193  C     C_1   0.837815 0.999627 0.338062 0.072511
C194  C     C_1   0.162184 0.999626 0.661936 0.072520
C195  C     C_1   0.337815 0.499630 0.338073 0.072560
C196  C     C_1   0.662184 0.499629 0.661929 0.072560
C197  C     C_1   0.875107 0.999911 0.375310 -0.150867
C198  C     C_1   0.124892 0.999911 0.624689 -0.150866
C199  C     C_1   0.375107 0.499912 0.375315 -0.150852
C200  C     C_1   0.624892 0.499912 0.624685 -0.150856
C201  C     C_R   0.099598 0.098067 0.731032 -0.181646
C202  C     C_R   0.969214 0.975790 0.749106 0.040075
C203  C     C_R   0.900385 0.098049 0.268956 -0.181646
C204  C     C_R   0.599591 0.598076 0.731028 -0.181567
C205  C     C_R   0.400408 0.598074 0.268972 -0.181567
C206  C     C_1   0.624787 0.999747 0.124627 -0.174857
C207  C     C_1   0.375213 0.999745 0.875373 -0.174855
C208  C     C_1   0.124787 0.499754 0.124629 -0.174866
C209  C     C_1   0.875213 0.499753 0.875371 -0.174867
C210  C     C_R   1.000000 0.919290 0.000000 0.889193
C211  C     C_R   0.500000 0.419290 0.000000 0.889210
C212  C     C_R   0.000022 0.998827 0.879514 0.871522
Cl1   Cl    Cl    0.797264 0.913291 0.307758 -0.604113
Cl2   Cl    Cl    0.808738 0.013966 0.148164 -0.637458
Cl3   Cl    Cl    0.691257 0.514010 0.851815 -0.637451
Cl4   Cl    Cl    0.308743 0.514007 0.148185 -0.637457
Cl5   Cl    Cl    0.202735 0.913291 0.692208 -0.604139
Cl6   Cl    Cl    0.297259 0.413299 0.307816 -0.604312
Cl7   Cl    Cl    0.702741 0.413297 0.692201 -0.604309
Cl8   Cl    Cl    0.927488 0.201454 0.996282 -0.567730
Cl9   Cl    Cl    0.072502 0.201455 0.003677 -0.567764
Cl10  Cl    Cl    0.427961 0.701457 0.997845 -0.567887
Cl11  Cl    Cl    0.572036 0.701458 0.002145 -0.567892
Cl12  Cl    Cl    0.191260 0.013999 0.851829 -0.637498
H1    H     H_    0.164601 0.092406 0.773162 0.143784
H2    H     H_    0.073175 0.866352 0.166468 0.156866
H3    H     H_    0.915910 0.320862 0.891756 0.124322
H4    H     H_    0.857221 0.310980 0.944924 0.252852
H5    H     H_    0.884732 0.357897 0.951314 0.228265
H6    H     H_    0.847278 0.359795 0.812716 0.257839
H7    H     H_    0.811179 0.358954 0.840587 0.284636
H8    H     H_    0.820110 0.312091 0.805400 0.278350
H9    H     H_    0.110947 0.273427 0.112136 0.174162
H10   H     H_    0.084094 0.320806 0.108271 0.124275
H11   H     H_    0.142734 0.311063 0.054972 0.252864
H12   H     H_    0.115225 0.357947 0.048743 0.228208
H13   H     H_    0.426841 0.366343 0.833545 0.156868
H14   H     H_    0.152738 0.359721 0.187370 0.257849
H15   H     H_    0.188794 0.358987 0.159399 0.284596
H16   H     H_    0.179914 0.312057 0.194504 0.278363
H17   H     H_    0.787493 0.912730 0.528667 0.177119
H18   H     H_    0.838341 0.928640 0.556238 0.130486
H19   H     H_    0.765060 0.985473 0.522983 0.241319
H20   H     H_    0.816678 0.004264 0.557500 0.220569
H21   H     H_    0.811562 0.975467 0.445314 0.274145
H22   H     H_    0.769875 0.011598 0.419810 0.265798
H23   H     H_    0.759618 0.956304 0.410103 0.278362
H24   H     H_    0.573160 0.366343 0.166453 0.156868
H25   H     H_    0.212514 0.912748 0.471338 0.177123
H26   H     H_    0.161666 0.928655 0.443766 0.130494
H27   H     H_    0.234942 0.985491 0.477006 0.241318
H28   H     H_    0.183322 0.004280 0.442486 0.220569
H29   H     H_    0.188441 0.975490 0.554679 0.274143
H30   H     H_    0.230126 0.011622 0.580176 0.265796
H31   H     H_    0.240386 0.956329 0.589893 0.278364
H32   H     H_    0.287493 0.412731 0.528677 0.177107
H33   H     H_    0.338339 0.428644 0.556244 0.130507
H34   H     H_    0.265059 0.485472 0.523012 0.241300
H35   H     H_    0.980960 0.910147 0.839148 0.119648
H36   H     H_    0.316676 0.504266 0.557527 0.220572
H37   H     H_    0.311555 0.475481 0.445330 0.274164
H38   H     H_    0.269867 0.511608 0.419838 0.265788
H39   H     H_    0.259613 0.456313 0.410121 0.278357
H40   H     H_    0.712505 0.412726 0.471324 0.177105
H41   H     H_    0.661660 0.428640 0.443756 0.130503
H42   H     H_    0.734942 0.485466 0.476996 0.241300
H43   H     H_    0.683325 0.504261 0.442482 0.220571
H44   H     H_    0.688444 0.475473 0.554675 0.274164
H45   H     H_    0.730133 0.511599 0.580172 0.265788
H46   H     H_    0.019045 0.910148 0.160858 0.119647
H47   H     H_    0.740386 0.456305 0.589883 0.278355
H48   H     H_    0.480966 0.410144 0.839150 0.119649
H49   H     H_    0.519034 0.410145 0.160849 0.119648
H50   H     H_    0.710805 0.933029 0.218738 0.189004
H51   H     H_    0.289195 0.933028 0.781236 0.189013
H52   H     H_    0.210801 0.433043 0.218782 0.188897
H53   H     H_    0.835383 0.092377 0.226823 0.143788
H54   H     H_    0.789199 0.433040 0.781233 0.188907
H55   H     H_    0.789121 0.066145 0.281489 0.164499
H56   H     H_    0.210879 0.066142 0.718530 0.164486
H57   H     H_    0.289125 0.566150 0.281477 0.164491
H58   H     H_    0.710875 0.566149 0.718514 0.164493
H59   H     H_    0.040636 0.788402 0.120022 0.136683
H60   H     H_    0.959364 0.788402 0.879980 0.136681
H61   H     H_    0.459397 0.288402 0.879975 0.136685
H62   H     H_    0.540603 0.288402 0.120025 0.136685
H63   H     H_    0.459385 0.211618 0.879977 0.147016
H64   H     H_    0.664593 0.592419 0.773153 0.143794
H65   H     H_    0.540615 0.211618 0.120023 0.147016
H66   H     H_    0.040648 0.711618 0.120020 0.147013
H67   H     H_    0.959353 0.711618 0.879981 0.147012
H68   H     H_    0.096325 0.128261 0.706003 0.153081
H69   H     H_    0.903653 0.128243 0.293983 0.153083
H70   H     H_    0.596316 0.628271 0.706000 0.153122
H71   H     H_    0.403682 0.628269 0.294000 0.153121
H72   H     H_    0.035679 0.095747 0.696848 0.150109
H73   H     H_    0.964305 0.095740 0.303144 0.150111
H74   H     H_    0.535673 0.595751 0.696848 0.150165
H75   H     H_    0.335405 0.592416 0.226846 0.143792
H76   H     H_    0.464326 0.595751 0.303152 0.150165
H77   H     H_    0.111691 0.989942 0.821415 0.179584
H78   H     H_    0.888311 0.989926 0.178582 0.179586
H79   H     H_    0.611691 0.489949 0.821407 0.179589
H80   H     H_    0.388309 0.489947 0.178593 0.179588
H81   H     H_    0.056533 0.034568 0.865176 0.177836
H82   H     H_    0.943462 0.034561 0.134820 0.177837
H83   H     H_    0.556531 0.534572 0.865174 0.177865
H84   H     H_    0.443469 0.534571 0.134826 0.177865
H85   H     H_    0.946430 0.961559 0.635693 0.149085
H86   H     H_    0.852272 0.879039 0.737304 0.157263
H87   H     H_    0.053573 0.961564 0.364310 0.149083
H88   H     H_    0.446432 0.461556 0.635696 0.149092
H89   H     H_    0.553568 0.461556 0.364304 0.149090
H90   H     H_    0.885600 0.981950 0.652980 0.139731
H91   H     H_    0.114402 0.981957 0.347019 0.139730
H92   H     H_    0.385600 0.481946 0.652988 0.139733
H93   H     H_    0.614400 0.481945 0.347014 0.139734
H94   H     H_    0.666637 0.101971 0.095421 0.169537
H95   H     H_    0.687580 0.053990 0.088765 0.143135
H96   H     H_    0.736712 0.136452 0.155820 0.232453
H97   H     H_    0.147735 0.879047 0.262700 0.157263
H98   H     H_    0.758006 0.088518 0.147277 0.245503
H99   H     H_    0.708140 0.090815 0.008810 0.278632
H100  H     H_    0.740225 0.136943 0.044466 0.272902
H101  H     H_    0.686755 0.139209 0.016826 0.256900
H102  H     H_    0.333373 0.101930 0.904636 0.169504
H103  H     H_    0.312377 0.053971 0.911233 0.143155
H104  H     H_    0.263338 0.136485 0.844233 0.232444
H105  H     H_    0.241975 0.088573 0.852676 0.245463
H106  H     H_    0.291797 0.090803 0.991150 0.278674
H107  H     H_    0.259779 0.136978 0.955531 0.272891
H108  H     H_    0.352280 0.379032 0.737316 0.157256
H109  H     H_    0.313264 0.139169 0.983244 0.256894
H110  H     H_    0.166632 0.601940 0.095366 0.169499
H111  H     H_    0.187630 0.553979 0.088775 0.143172
H112  H     H_    0.236667 0.636494 0.155771 0.232444
H113  H     H_    0.258031 0.588581 0.147334 0.245465
H114  H     H_    0.208212 0.590808 0.008860 0.278680
H115  H     H_    0.240230 0.636982 0.044476 0.272884
H116  H     H_    0.186744 0.639175 0.016758 0.256890
H117  H     H_    0.833367 0.601944 0.904620 0.169499
H118  H     H_    0.812371 0.553985 0.911219 0.143173
H119  H     H_    0.647720 0.379031 0.262684 0.157257
H120  H     H_    0.763330 0.636497 0.844209 0.232445
H121  H     H_    0.741968 0.588585 0.852654 0.245463
H122  H     H_    0.791787 0.590819 0.991128 0.278680
H123  H     H_    0.759767 0.636992 0.955504 0.272883
H124  H     H_    0.813253 0.639185 0.983221 0.256892
H125  H     H_    0.388915 0.773493 0.889597 0.174471
H126  H     H_    0.415800 0.820679 0.892726 0.124130
H127  H     H_    0.357977 0.811543 0.947882 0.252670
H128  H     H_    0.385567 0.858226 0.953455 0.228274
H129  H     H_    0.347308 0.859902 0.814678 0.257798
H130  H     H_    0.926832 0.866348 0.833539 0.156865
H131  H     H_    0.311745 0.859577 0.843749 0.284326
H132  H     H_    0.320016 0.812458 0.808215 0.278533
H133  H     H_    0.611090 0.773488 0.110383 0.174501
H134  H     H_    0.584200 0.820663 0.107280 0.124115
H135  H     H_    0.642008 0.811570 0.052088 0.252675
H136  H     H_    0.614417 0.858242 0.046558 0.228261
H137  H     H_    0.652692 0.859885 0.185340 0.257803
H138  H     H_    0.688243 0.859592 0.156242 0.284317
H139  H     H_    0.679988 0.812455 0.191756 0.278539
H140  H     H_    0.889072 0.273450 0.887794 0.174060
O1    O     O_R   0.939010 0.034440 0.439030 -0.621668
O2    O     O_R   0.439000 0.999980 0.990770 -0.615717
O3    O     O_R   0.061000 0.499980 0.009230 -0.615659
O4    O     O_R   0.939000 0.499980 0.990770 -0.615656
O5    O     O_R   0.500000 0.061030 0.051640 -0.613564
O6    O     O_R   0.500000 0.061030 0.948360 -0.613563
O7    O     O_R   1.000000 0.561030 0.051640 -0.613573
O8    O     O_R   0.000000 0.561030 0.948360 -0.613572
O9    O     O_R   0.939030 0.965580 0.439000 -0.596328
O10   O     O_R   0.060970 0.965580 0.561000 -0.596327
O11   O     O_R   0.439030 0.465580 0.439000 -0.596324
O12   O     O_R   0.060990 0.034440 0.560970 -0.621667
O13   O     O_R   0.560970 0.465580 0.561000 -0.596324
O14   O     O_R   1.000000 0.034440 0.591610 -0.630626
O15   O     O_R   0.000000 0.034440 0.408390 -0.630629
O16   O     O_R   0.500000 0.534440 0.591610 -0.630619
O17   O     O_R   0.500000 0.534440 0.408390 -0.630619
O18   O     O_R   0.000010 0.965580 0.591580 -0.615236
O19   O     O_R   0.999990 0.965580 0.408420 -0.615232
O20   O     O_R   0.500010 0.465580 0.591580 -0.615236
O21   O     O_R   0.499990 0.465580 0.408420 -0.615236
O22   O     O_R   0.034440 0.939000 0.034360 -0.611053
O23   O     O_R   0.439010 0.534440 0.439030 -0.621665
O24   O     O_R   0.965560 0.939000 0.965640 -0.611050
O25   O     O_R   0.534440 0.439000 0.034360 -0.611051
O26   O     O_R   0.465560 0.439000 0.965640 -0.611049
O27   O     O_R   0.034440 0.999990 0.942780 -0.622826
O28   O     O_R   0.965560 0.999990 0.057220 -0.622825
O29   O     O_R   0.534440 0.499990 0.942780 -0.622825
O30   O     O_R   0.465560 0.499990 0.057220 -0.622825
O31   O     O_R   0.965580 1.000000 0.873940 -0.607798
O32   O     O_R   0.034420 1.000000 0.126060 -0.607799
O33   O     O_R   0.465580 0.500000 0.873940 -0.607804
O34   O     O_R   0.560990 0.534440 0.560970 -0.621665
O35   O     O_R   0.534420 0.500000 0.126060 -0.607803
O36   O     O_R   0.034440 0.060970 0.034440 -0.602776
O37   O     O_R   0.965560 0.060970 0.965560 -0.602771
O38   O     O_R   0.534440 0.560970 0.034440 -0.602849
O39   O     O_R   0.465560 0.560970 0.965560 -0.602849
O40   O     O_R   0.500020 0.939060 0.051770 -0.609985
O41   O     O_R   0.499980 0.939060 0.948230 -0.609987
O42   O     O_R   0.000020 0.439060 0.051770 -0.609997
O43   O     O_R   0.999980 0.439060 0.948230 -0.610003
O44   O     O_3   0.707860 0.075345 0.197009 -0.643578
O45   O     O_R   0.561000 0.000050 0.112670 -0.609785
O46   O     O_3   0.292142 0.075340 0.803017 -0.643588
O47   O     O_3   0.207862 0.575353 0.196988 -0.643591
O48   O     O_3   0.792138 0.575352 0.803002 -0.643590
O49   O     O_3   0.436108 0.793634 0.995673 -0.583022
O50   O     O_3   0.563889 0.793634 0.004320 -0.583023
O51   O     O_3   0.935697 0.293624 0.994294 -0.583022
O52   O     O_3   0.064294 0.293628 0.005681 -0.583031
O53   O     O_3   0.821532 0.936984 0.634384 -0.646431
O54   O     O_3   0.178472 0.936995 0.365616 -0.646434
O55   O     O_3   0.321535 0.436978 0.634399 -0.646452
O56   O     O_R   0.439000 0.000050 0.887330 -0.609786
O57   O     O_3   0.678465 0.436976 0.365604 -0.646451
O58   O     O_R   0.061000 0.500050 0.112670 -0.609836
O59   O     O_R   0.939000 0.500050 0.887330 -0.609838
O60   O     O_R   0.561000 0.999980 0.009230 -0.615717
Zn1   Zn    Zn3+2 1.000000 0.045990 0.500000 0.953981
Zn2   Zn    Zn3+2 0.499990 0.000060 0.930950 0.987766
Zn3   Zn    Zn3+2 0.000010 0.500060 0.069050 0.987769
Zn4   Zn    Zn3+2 0.999990 0.500060 0.930950 0.987764
Zn5   Zn    Zn3+2 0.500000 0.545990 0.500000 0.954049
Zn6   Zn    Zn3+2 0.000000 0.954030 0.500000 1.018238
Zn7   Zn    Zn3+2 0.500000 0.454030 0.500000 1.018252
Zn8   Zn    Zn3+2 0.045990 0.999980 0.045940 1.009505
Zn9   Zn    Zn3+2 0.954010 0.999980 0.954060 1.009512
Zn10  Zn    Zn3+2 0.545990 0.499980 0.045940 1.009437
Zn11  Zn    Zn3+2 0.454010 0.499980 0.954060 1.009437
Zn12  Zn    Zn3+2 0.500010 0.000060 0.069050 0.987766

loop_
_geom_bond_atom_site_label_1
_geom_bond_atom_site_label_2
_ccdc_geom_bond_type
C115  O53   S    
C63   C65   T    
C126  C127  S    
C18   C21   A    
C142  C146  A    
C36   C42   T    
C23   H60   S    
C104  H133  S    
C165  C187  A    
C166  C188  S    
C164  C186  A    
C87   O44   S    
C170  C174  A    
C17   H63   S    
C54   C63   S    
C83   H81   S    
C6    O36   A    
C177  C182  A    
C168  C190  S    
C108  C109  S    
C110  C111  S    
O11   Zn7   S    
C115  H17   S    
C104  O50   S    
C2    C159  S    
C70   C74   A    
C205  H71   S    
C13   C160  S    
C141  C145  A    
C85   H83   S    
C106  H138  S    
C86   H84   S    
C8    O41   A    
O40   Zn12  S    
C31   C62   A    
C147  C200  S    
C112  C198  S    
C104  C105  S    
C99   H123  S    
C147  O34   A    
C150  C159  A    
C89   H99   S    
C164  C168  A    
C118  H26   S    
C72   H79   S    
C3    C169  S    
O16   Zn5   S    
C108  H4    S    
C132  C137  A    
C17   C21   A    
O43   Zn4   S    
C64   C66   T    
C109  H6    S    
C73   H80   S    
C183  C196  S    
C58   C69   T    
C81   H64   S    
C181  C194  S    
O15   Zn1   S    
C80   H53   S    
C70   H77   S    
C96   H114  S    
C105  H136  S    
C91   C92   S    
C114  H16   S    
C179  C193  S    
C98   H121  S    
C59   C124  S    
O6    Zn2   S    
C125  H41   S    
O33   Zn11  S    
C30   H74   S    
C60   C128  S    
C175  H55   S    
C142  H108  S    
C153  O18   A    
C22   C36   S    
C33   C38   S    
C100  H126  S    
C152  H49   S    
C133  C160  A    
C102  H128  S    
C23   C32   A    
C7    C66   S    
C93   H106  S    
C76   Cl3   S    
C77   C82   A    
C178  H58   S    
C87   H94   S    
C125  H40   S    
C154  O15   A    
C49   C58   S    
C2    C169  A    
C103  H131  S    
C88   C89   S    
C91   O46   S    
C98   C99   S    
C30   C61   A    
O37   Zn9   S    
C4    O33   A    
C6    O37   A    
C73   C77   A    
C147  O13   A    
C211  O26   A    
C123  H38   S    
C133  H92   S    
C44   C48   A    
C77   Cl4   S    
O9    Zn6   S    
C84   C128  A    
C155  O16   A    
C116  H20   S    
C173  O47   S    
C89   H101  S    
C62   C130  S    
C71   H78   S    
C165  H54   S    
O17   Zn5   S    
C150  H46   S    
C97   C98   S    
C117  H22   S    
C27   C33   A    
C186  Cl6   S    
C40   C211  S    
C144  H130  S    
C28   C201  A    
C31   C205  A    
C109  H8    S    
C80   C203  A    
C79   C153  S    
C115  C116  S    
O35   Zn10  S    
C120  H29   S    
C139  C143  A    
C149  H35   S    
C19   H66   S    
C107  H3    S    
C107  C108  S    
C20   C23   A    
C62   C73   A    
C204  H70   S    
C96   H116  S    
O26   Zn11  S    
C25   H59   S    
C145  C150  A    
C110  H9    S    
C61   C129  S    
O24   Zn9   S    
C114  H14   S    
C29   H73   S    
C44   C52   A    
O45   Zn12  S    
O58   Zn3   S    
C127  H47   S    
C11   C207  S    
C134  H93   S    
C11   O56   A    
C47   C50   A    
C195  C199  T    
C143  C148  A    
C167  C189  S    
C132  C159  A    
C113  C130  A    
C210  O24   A    
O41   Zn2   S    
C17   C27   A    
C5    O30   A    
C5    C191  S    
C134  C139  A    
C98   H120  S    
C86   C130  A    
C3    O32   A    
O22   Zn8   S    
C14   O59   A    
O23   Zn5   S    
C119  H27   S    
C103  H129  S    
C26   C33   A    
C107  O51   S    
C29   C60   A    
O2    Zn12  S    
C35   H85   S    
C203  H69   S    
C97   H117  S    
C32   C37   S    
C156  O21   A    
C12   O58   A    
C137  O54   S    
C28   H72   S    
C179  C184  A    
C177  H57   S    
C14   C209  S    
C1    C197  S    
C148  C152  A    
C92   H104  S    
C13   C180  A    
C57   C101  A    
C79   C124  A    
C104  H134  S    
C94   H110  S    
C134  C161  A    
C10   C206  S    
C120  H31   S    
C84   H82   S    
C162  H50   S    
C194  C198  T    
C85   C180  A    
C158  C202  A    
C35   C79   A    
C68   H89   S    
C47   O52   S    
C102  C103  S    
C31   H76   S    
C146  C151  A    
C81   C204  A    
C8    C67   S    
C87   H95   S    
C127  H45   S    
C88   H96   S    
O21   Zn7   S    
C182  C195  S    
C172  C176  A    
C121  H33   S    
C101  C129  A    
C87   C88   S    
C210  O22   A    
C24   C161  S    
C18   C26   A    
C78   C201  A    
C15   O6    A    
C50   Cl9   S    
C163  H51   S    
C188  C206  T    
C50   C54   A    
C9    C69   S    
C154  O19   A    
C176  H56   S    
C151  H48   S    
C28   C59   A    
O4    Zn3   S    
C145  H2    S    
C131  H90   S    
C74   Cl12  S    
O38   Zn10  S    
O3    Zn4   S    
C182  C186  A    
C131  C157  A    
C9    O43   A    
C162  C166  A    
C43   C53   A    
C6    C65   S    
C140  H86   S    
C92   H105  S    
C136  O11   A    
C111  H11   S    
C90   C154  S    
C174  C178  A    
C178  C183  A    
O18   Zn6   S    
C52   C55   A    
C196  C200  T    
C68   C113  A    
C78   H1    S    
C91   H103  S    
C133  C138  A    
C141  H97   S    
C112  O10   A    
C176  C181  A    
C34   C41   T    
C4    C180  S    
C105  H135  S    
O34   Zn5   S    
C158  C212  S    
C135  C140  A    
C127  H44   S    
C15   C41   S    
C10   O60   A    
C138  C142  A    
C82   H75   S    
C187  Cl7   S    
C21   C34   S    
C60   C71   A    
C53   Cl10  S    
O28   Zn9   S    
C12   O3    A    
C39   C210  S    
C162  C184  A    
C85   C129  A    
C27   H61   S    
C115  H18   S    
C174  O48   S    
C45   C49   A    
O32   Zn8   S    
C172  O46   S    
O36   Zn8   S    
C121  C122  S    
O59   Zn4   S    
C61   C72   A    
C122  H36   S    
C16   O7    A    
C20   C22   A    
C201  H68   S    
C125  C126  S    
C5    O35   A    
C106  H139  S    
C113  C156  S    
C88   H98   S    
C99   H124  S    
C3    O28   A    
O13   Zn7   S    
C165  C170  A    
C139  O57   S    
C137  C141  A    
O20   Zn7   S    
C75   Cl2   S    
C89   H100  S    
C100  O49   S    
C164  H52   S    
C171  O44   S    
C140  C144  A    
C94   O47   S    
C118  H25   S    
C46   H87   S    
C119  C120  S    
C212  O27   A    
C167  C172  A    
C46   C90   A    
C117  H21   S    
C105  C106  S    
C131  C135  A    
C7    O38   A    
O27   Zn8   S    
C37   C39   T    
C35   C202  A    
C11   O2    A    
C38   C40   T    
C109  H7    S    
C83   C158  A    
C189  C207  T    
C92   C93   S    
C111  C114  S    
C94   C95   S    
O12   Zn1   S    
C120  H30   S    
C192  C209  T    
C24   C68   A    
C59   C70   A    
O39   Zn11  S    
C13   C57   A    
C52   Cl11  S    
C74   C78   A    
C112  O12   A    
C149  C157  A    
C118  O54   S    
C110  H10   S    
C114  H15   S    
C25   C32   A    
C125  O57   S    
C101  C155  S    
C29   C203  A    
O56   Zn2   S    
C95   C96   S    
C72   C76   A    
C47   C49   A    
C1    O9    A    
C2    C46   A    
C86   C191  A    
C185  Cl5   S    
C100  H125  S    
C12   C208  S    
C132  H91   S    
C102  H127  S    
C26   H62   S    
C183  C187  A    
C93   H107  S    
O25   Zn10  S    
C45   C51   A    
C95   H113  S    
C170  C192  S    
C148  H24   S    
C110  O52   S    
C116  C117  S    
O8    Zn4   S    
C118  C119  S    
C136  C199  S    
C103  H132  S    
C122  H34   S    
O29   Zn10  S    
C123  H39   S    
C43   O49   S    
C106  H137  S    
C43   C48   A    
C99   H122  S    
C136  O23   A    
O60   Zn2   S    
C116  H19   S    
C166  C171  A    
O30   Zn11  S    
O19   Zn6   S    
O1    Zn1   S    
C111  H12   S    
C108  H5    S    
C53   C55   A    
C168  C173  A    
C18   H65   S    
C19   C22   A    
O7    Zn3   S    
C84   C169  A    
C181  C185  A    
C175  C179  A    
C171  C175  A    
C94   H111  S    
C163  C167  A    
C144  C149  A    
O31   Zn9   S    
C44   O50   S    
C153  O14   A    
O42   Zn3   S    
C45   O51   S    
C146  H13   S    
C173  C177  A    
O14   Zn1   S    
C55   C64   S    
C100  C102  S    
C96   H115  S    
C14   O4    A    
C190  C208  T    
C83   C124  A    
C126  H43   S    
C121  O55   S    
C16   C42   S    
C121  H32   S    
C75   C80   A    
C97   O48   S    
C48   C56   S    
C1    O1    A    
C4    O29   A    
C20   H67   S    
C57   H88   S    
C126  H42   S    
C152  C161  A    
C76   C81   A    
C107  H140  S    
C15   O5    A    
C138  O55   S    
C51   Cl8   S    
C56   C67   T    
C30   C204  A    
C155  O20   A    
C117  H23   S    
C163  C185  A    
C51   C54   A    
C151  C160  A    
C93   H109  S    
C119  H28   S    
C71   C75   A    
C135  O53   S    
C184  Cl1   S    
C8    O40   A    
C123  H37   S    
C193  C197  T    
C16   O8    A    
C10   O45   A    
C24   C191  A    
C7    O39   A    
C97   H118  S    
C19   C25   A    
C9    O42   A    
C211  O25   A    
C95   H112  S    
O5    Zn12  S    
C156  O17   A    
O10   Zn6   S    
C143  H119  S    
C90   C128  A    
C157  C202  S    
C122  C123  S    
C91   H102  S    
C82   C205  A    
C212  O31   A    
