data_mof_unit_36298.cif
_audit_creation_date              2012-12-11T15:24:06-0500
_audit_creation_method            fapswitch 2.2
_symmetry_space_group_name_H-M    P1
_symmetry_Int_Tables_number       1
_space_group_crystal_system       triclinic
_cell_length_a                    8.386313
_cell_length_b                    14.417012
_cell_length_c                    19.203839
_cell_angle_alpha                 93.343237
_cell_angle_beta                  94.712277
_cell_angle_gamma                 91.87227
_cell_volume                      2308.42650633

loop_
_atom_site_label
_atom_site_type_symbol
_atom_type_description
_atom_site_fract_x
_atom_site_fract_y
_atom_site_fract_z
_atom_type_partial_charge
Ba1   Ba    Ba6+2 0.150350 0.545800 0.464500 1.840030
Ba2   Ba    Ba6+2 0.659830 0.454190 0.535450 1.871256
C1    C     C_3   0.361238 0.782165 0.193591 0.288772
C2    C     C_3   0.425011 0.790534 0.270179 0.416247
C3    C     C_3   0.486628 0.748014 0.647501 0.897523
C4    C     C_3   0.471447 0.848411 0.678564 0.681775
C5    C     C_3   0.953337 0.203002 0.758979 0.711024
C6    C     C_3   0.963032 0.180270 0.835819 -0.201211
C7    C     C_3   0.465312 0.247820 0.737185 0.371114
C8    C     C_3   0.523030 0.217417 0.809323 0.296646
C9    C     C_R   0.012658 0.936820 0.530913 0.008565
C10   C     C_R   0.823134 0.800659 0.496645 0.070074
C11   C     C_R   0.674307 0.769795 0.463309 -0.256293
C12   C     C_3   0.840063 0.799757 0.239878 0.305719
C13   C     C_R   0.571468 0.831183 0.430567 -0.052420
C14   C     C_R   0.622961 0.922393 0.423978 -0.101748
C15   C     C_R   0.773763 0.956536 0.454475 -0.026916
C16   C     C_R   0.871298 0.897227 0.494882 -0.068375
C17   C     C_R   0.952479 0.093185 0.491004 0.037257
C18   C     C_R   0.053613 0.032639 0.529139 0.015903
C19   C     C_R   0.987980 0.192833 0.498326 0.081599
C20   C     C_R   0.124133 0.224666 0.541461 -0.136034
C21   C     C_R   0.235963 0.163102 0.568257 0.044225
C22   C     C_R   0.198213 0.068039 0.564135 -0.054339
C23   C     C_3   0.904085 0.884624 0.204395 0.727341
C24   C     C_R   0.824383 0.050555 0.447021 0.415101
C25   C     C_R   0.601262 0.548913 0.299922 -0.161952
C26   C     C_R   0.458017 0.497882 0.279434 0.012615
C27   C     C_R   0.400427 0.493034 0.208609 -0.082016
C28   C     C_R   0.486805 0.535568 0.157978 0.029313
C29   C     C_R   0.634889 0.581817 0.179262 -0.136295
C30   C     C_R   0.693234 0.588350 0.250010 -0.009704
C31   C     C_R   0.435745 0.594929 0.036667 -0.085007
C32   C     C_R   0.384721 0.579291 0.965280 -0.049520
C33   C     C_R   0.331873 0.490071 0.936378 -0.005053
C34   C     C_3   0.941548 0.263135 0.319507 0.691995
C35   C     C_R   0.326166 0.416971 0.983439 0.461610
C36   C     C_R   0.374263 0.434565 0.054713 -0.078547
C37   C     C_R   0.430572 0.522397 0.082168 -0.019033
C38   C     C_R   0.138142 0.437654 0.831664 -0.057981
C39   C     C_R   0.101357 0.419492 0.759421 0.003720
C40   C     C_R   0.351221 0.497600 0.736125 -0.047642
C41   C     C_R   0.394968 0.509883 0.809804 0.355766
C42   C     C_R   0.289170 0.476886 0.858152 0.098414
C43   C     C_R   0.211407 0.445772 0.712709 -0.228745
C44   C     C_3   0.943068 0.168291 0.279206 -0.216243
C45   C     C_3   0.967379 0.670715 0.678900 0.587276
C46   C     C_3   0.996555 0.705830 0.756704 0.968792
C47   C     C_3   0.435825 0.252861 0.333239 0.665264
C48   C     C_3   0.449320 0.182778 0.271704 -0.263201
H1    H     H_    0.476406 0.722929 0.283000 -0.088170
H2    H     H_    0.825778 0.151932 0.249299 0.192323
H3    H     H_    0.037789 0.168701 0.242056 0.126776
H4    H     H_    0.966455 0.111214 0.313810 0.092719
H5    H     H_    0.850191 0.635467 0.671700 0.076274
H6    H     H_    0.550639 0.291275 0.346079 0.023710
H7    H     H_    0.471977 0.219749 0.224227 0.138348
H8    H     H_    0.336941 0.139735 0.260321 0.116513
H9    H     H_    0.549508 0.136781 0.283451 0.148766
H10   H     H_    0.520081 0.845924 0.277238 -0.036969
H11   H     H_    0.461884 0.766171 0.161320 0.009582
H12   H     H_    0.343673 0.858973 0.687992 0.054865
H13   H     H_    0.311121 0.849250 0.178508 0.123927
H14   H     H_    0.071900 0.230407 0.746283 -0.190799
H15   H     H_    0.862512 0.134039 0.848070 0.115764
H16   H     H_    0.074784 0.143710 0.849353 0.140736
H17   H     H_    0.958317 0.245459 0.868857 0.146023
H18   H     H_    0.336993 0.264275 0.736254 -0.105959
H19   H     H_    0.535938 0.310976 0.726134 0.098218
H20   H     H_    0.428578 0.173929 0.830275 0.091483
H21   H     H_    0.782517 0.823828 0.287338 -0.114808
H22   H     H_    0.625944 0.172439 0.804819 0.100986
H23   H     H_    0.634179 0.698121 0.466098 0.047771
H24   H     H_    0.540969 0.966640 0.396541 0.129168
H25   H     H_    0.282261 0.021624 0.588179 0.123320
H26   H     H_    0.151828 0.298638 0.548634 0.032167
H27   H     H_    0.090488 0.894438 0.562354 0.125448
H28   H     H_    0.387428 0.637604 0.932252 0.144743
H29   H     H_    0.478028 0.663994 0.056328 0.107431
H30   H     H_    0.751577 0.761009 0.201970 -0.070850
H31   H     H_    0.289854 0.454257 0.192616 0.140352
H32   H     H_    0.371895 0.377690 0.089178 0.140390
H33   H     H_    0.050134 0.419775 0.867371 0.112729
H34   H     H_    0.707788 0.609042 0.140579 0.082908
H35   H     H_    0.179502 0.434900 0.656985 0.081395
H36   H     H_    0.647454 0.551906 0.354312 0.055211
H37   H     H_    0.976188 0.930374 0.244610 0.008089
H38   H     H_    0.057774 0.281194 0.348809 0.039158
O1    O     O_2   0.108370 0.727470 0.525290 -0.413684
O2    O     O_3   0.314026 0.311932 0.315749 -0.649524
O3    O     O_3   0.969290 0.745136 0.260246 -0.545767
O4    O     O_2   0.701930 0.272470 0.474700 -0.361584
O5    O     O_3   0.944970 0.388780 0.468720 -0.491132
O6    O     O_3   0.463940 0.328280 0.598320 -0.487254
O7    O     O_3   0.815908 0.266403 0.363112 -0.619165
O8    O     O_3   0.372010 0.546630 0.581240 -0.430853
O9    O     O_3   0.877070 0.374860 0.631520 -0.467866
O10   O     O_2   0.774663 0.440309 0.749535 -0.468774
O11   O     O_3   0.829233 0.264956 0.746068 -0.606882
O12   O     O_3   0.865330 0.611210 0.531230 -0.490354
O13   O     O_3   0.438280 0.453360 0.418700 -0.481006
O14   O     O_2   0.627420 0.543410 0.667830 -0.485646
O15   O     O_3   0.449609 0.686352 0.698778 -0.672142
O16   O     O_2   0.568446 0.163614 0.562556 -0.327181
O17   O     O_3   0.488027 0.174438 0.688481 -0.600686
O18   O     O_3   0.346360 0.671710 0.401620 -0.465321
O19   O     O_2   0.239364 0.834322 0.443393 -0.479854
O20   O     O_3   0.970772 0.746777 0.636431 -0.633212
O21   O     O_3   0.302426 0.815122 0.312478 -0.554214
O22   O     O_2   0.182890 0.456530 0.332150 -0.374824
O23   O     O_3   0.933230 0.625130 0.368420 -0.462842
O24   O     O_2   0.025106 0.569494 0.247112 -0.355769
P1    P     P_3+3 0.937730 0.712710 0.546710 1.045100
P2    P     P_3+3 0.357970 0.428340 0.344000 1.071376
P3    P     P_3+3 0.900814 0.633595 0.278276 1.097247
P4    P     P_3+3 0.872570 0.287280 0.453240 1.107600
P5    P     P_3+3 0.900422 0.374029 0.723030 1.009381
P6    P     P_3+3 0.365841 0.791373 0.398366 1.000179
P7    P     P_3+3 0.446769 0.567459 0.670385 0.985862
P8    P     P_3+3 0.437197 0.208004 0.604015 1.116880
O25   O     O_3   0.079743 0.606205 0.661649 -0.797430
H39   H     H_    0.168193 0.642134 0.644157 0.324553
O26   O     O_3   0.145812 0.754191 0.768581 -0.709167
H40   H     H_    0.228581 0.707787 0.777624 0.308800
O27   O     O_3   0.993972 0.630198 0.799790 -0.743322
H41   H     H_    0.881684 0.605797 0.797697 0.308780
O28   O     O_3   0.875350 0.766169 0.774164 -0.659205
H42   H     H_    0.894424 0.825384 0.751668 0.375493
S1    S     S_3+6 0.375936 0.196583 0.406176 -0.116289
O29   O     O_2   0.493810 0.129253 0.432433 -0.295687
O30   O     O_2   0.361706 0.273481 0.460644 -0.332767
O31   O     O_3   0.200550 0.138397 0.388492 -0.642861
H43   H     H_    0.227542 0.075246 0.371121 0.333702
O32   O     O_3   0.243891 0.710360 0.182498 -0.667687
H44   H     H_    0.210997 0.706245 0.131556 0.311725
O33   O     O_3   0.643299 0.736850 0.630299 -0.777843
H45   H     H_    0.639359 0.683770 0.595004 0.275515
O34   O     O_3   0.379483 0.733452 0.587873 -0.745073
H46   H     H_    0.417957 0.773051 0.551782 0.283566
O35   O     O_3   0.567773 0.863968 0.741891 -0.640226
H47   H     H_    0.507262 0.838104 0.779107 0.317811
O36   O     O_3   0.514666 0.913664 0.631190 -0.730682
H48   H     H_    0.632514 0.912416 0.629202 0.366055
S2    S     S_3+6 0.745772 0.951032 0.166738 -0.112865
O37   O     O_2   0.640419 0.983160 0.222178 -0.408862
O38   O     O_2   0.817182 0.034113 0.135179 -0.224820
O39   O     O_3   0.636851 0.885557 0.103554 -0.548911
H49   H     H_    0.546411 0.924408 0.088708 0.374735
S3    S     S_3+6 0.907863 0.097956 0.706073 -0.058561
O40   O     O_2   0.770814 0.044724 0.732734 -0.220849
O41   O     O_2   0.860313 0.122491 0.632806 -0.312326
O42   O     O_3   0.068039 0.030594 0.707278 -0.514793
H50   H     H_    0.162474 0.074251 0.713372 0.300503
O43   O     O_3   0.568206 0.295352 0.854516 -0.686591
H51   H     H_    0.615658 0.271017 0.898535 0.345631
O44   O     O_3   0.760207 0.098289 0.392603 -0.714378
H52   H     H_    0.724096 0.053274 0.353124 0.304412
O45   O     O_3   0.537025 0.554488 0.836661 -0.708270
H53   H     H_    0.598581 0.574510 0.798284 0.327817
S4    S     S_3+6 0.265259 0.300674 0.959953 -0.109212
O46   O     O_2   0.104402 0.282489 0.986657 -0.281155
O47   O     O_2   0.255685 0.280852 0.882569 -0.388805
O48   O     O_3   0.397402 0.230156 0.998237 -0.493489
H54   H     H_    0.357213 0.166379 0.982464 0.374086
O49   O     O_3   0.003688 0.857218 0.152275 -0.696308
H55   H     H_    0.938774 0.815324 0.117196 0.326133
S5    S     S_3+6 0.897198 0.345145 0.256594 -0.073108
O50   O     O_2   0.863872 0.431892 0.298122 -0.350488
O51   O     O_2   0.035756 0.360520 0.213295 -0.284946
O52   O     O_3   0.733473 0.310909 0.203808 -0.548623
H56   H     H_    0.704128 0.366390 0.178175 0.351791

loop_
_geom_bond_atom_site_label_1
_geom_bond_atom_site_label_2
_ccdc_geom_bond_type
C3    O33   S    
C2    O21   S    
C3    O15   S    
C9    C16   A    
C6    H16   S    
O49   H55   S    
C12   H21   S    
O8    P7    S    
C24   O44   S    
O39   H49   S    
C34   O7    S    
C20   H26   S    
C47   O2    S    
C41   O45   S    
C8    O43   S    
C46   O26   S    
C3    O34   S    
S5    O51   D    
C34   H38   S    
S1    O30   D    
C31   C37   A    
C5    O11   S    
O18   P6    S    
C14   H24   S    
C48   H9    S    
C35   S4    S    
O44   H52   S    
C17   C19   A    
C35   C36   A    
C7    H19   S    
C32   C33   A    
S2    O39   S    
C3    C4    S    
C40   P7    S    
C45   O25   S    
O52   H56   S    
Ba2   O14   S    
C7    O17   S    
C13   C14   A    
C44   H2    S    
C23   H37   S    
Ba1   Ba2   S    
C17   C24   A    
C9    H27   S    
C46   O27   S    
C5    S3    S    
Ba2   P4    S    
O48   H54   S    
Ba2   O9    S    
C14   C15   A    
C45   C46   S    
C21   C22   A    
O45   H53   S    
O17   P8    S    
C34   C44   S    
C12   H30   S    
C4    O36   S    
C7    C8    S    
O22   P2    D    
O19   P6    D    
Ba1   O18   S    
S1    O31   S    
Ba2   O12   S    
C6    H15   S    
C30   P3    S    
C19   C20   A    
C36   H32   S    
O9    P5    S    
O13   P2    S    
C38   H33   S    
C44   H4    S    
Ba1   P1    S    
C19   P4    S    
Ba1   O12   S    
O21   P6    S    
C31   C32   A    
S5    O52   S    
C1    H11   S    
C5    H14   S    
O1    P1    D    
C9    C18   A    
C2    H1    S    
C48   H8    S    
S4    O48   S    
C18   C22   A    
O26   H40   S    
O35   H47   S    
S2    O38   D    
S3    O42   S    
S5    O50   D    
C31   H29   S    
Ba2   O13   S    
C23   O49   S    
C47   S1    S    
C34   S5    S    
C29   H34   S    
O5    P4    S    
S4    O47   D    
O20   P1    S    
C25   H36   S    
C43   H35   S    
C41   C42   A    
C27   H31   S    
C27   C28   A    
Ba1   O22   S    
O11   P5    S    
C29   C30   A    
Ba2   O6    S    
O7    P4    S    
C2    H10   S    
C15   C16   A    
O43   H51   S    
C10   C11   A    
Ba2   O4    S    
C33   C42   S    
O4    P4    D    
O25   H39   S    
C26   P2    S    
C8    H20   S    
C38   C39   A    
C11   H23   S    
C47   C48   S    
C11   C13   A    
O27   H41   S    
C23   S2    S    
C40   C41   A    
C15   C24   A    
O28   H42   S    
Ba1   O13   S    
C21   P8    S    
O10   P5    D    
C45   H5    S    
C10   P1    S    
C26   C27   A    
Ba1   O1    S    
C33   C35   A    
C25   C30   A    
C20   C21   A    
C48   H7    S    
Ba2   O5    S    
O15   P7    S    
O12   P1    S    
O33   H45   S    
C22   H25   S    
O32   H44   S    
C1    H13   S    
C47   H6    S    
O6    P8    S    
C13   P6    S    
S2    O37   D    
C1    O32   S    
S4    O46   D    
C4    H12   S    
C17   C18   A    
S3    O41   D    
S1    O29   D    
C7    H18   S    
S3    O40   D    
Ba1   O23   S    
C46   O28   S    
C28   C29   A    
C36   C37   A    
Ba1   O8    S    
C44   H3    S    
Ba2   O8    S    
O3    P3    S    
C28   C37   S    
O31   H43   S    
O2    P2    S    
C12   C23   S    
C4    O35   S    
C12   O3    S    
C5    C6    S    
O34   H46   S    
C38   C42   A    
O42   H50   S    
C6    H17   S    
Ba1   O5    S    
C45   O20   S    
Ba1   P2    S    
C10   C16   A    
C25   C26   A    
C39   C43   A    
O36   H48   S    
O23   P3    S    
C39   P5    S    
C40   C43   A    
O24   P3    D    
C32   H28   S    
O14   P7    D    
C1    C2    S    
O16   P8    D    
C8    H22   S    
