data_mof_unit_40046.cif
_audit_creation_date              2013-03-05T15:41:13-0500
_audit_creation_method            fapswitch 2.2
_symmetry_space_group_name_H-M    P1
_symmetry_Int_Tables_number       1
_space_group_crystal_system       triclinic
_cell_length_a                    16.79688
_cell_length_b                    16.79687
_cell_length_c                    16.796891
_cell_angle_alpha                 67.583341
_cell_angle_beta                  67.583213
_cell_angle_gamma                 67.583492
_cell_volume                      3892.46836747

loop_
_atom_site_label
_atom_site_type_symbol
_atom_site_description
_atom_site_fract_x
_atom_site_fract_y
_atom_site_fract_z
_atom_type_partial_charge
O1    O     O_R   0.124540 0.978640 0.385460 -0.573255
O2    O     O_R   0.875460 0.021360 0.614540 -0.566115
O3    O     O_R   0.978640 0.385460 0.124540 -0.573255
O4    O     O_R   0.021360 0.614540 0.875460 -0.566111
O5    O     O_R   0.385460 0.124540 0.978640 -0.573258
O6    O     O_R   0.614540 0.875460 0.021360 -0.566114
O7    O     O_R   0.614540 0.021360 0.875460 -0.562512
O8    O     O_R   0.385460 0.978640 0.124540 -0.566813
O9    O     O_R   0.875460 0.614540 0.021360 -0.562524
O10   O     O_R   0.124540 0.385460 0.978640 -0.566814
O11   O     O_R   0.021360 0.875460 0.614540 -0.562514
O12   O     O_R   0.978640 0.124540 0.385460 -0.566811
C1    C     C_R   0.308991 0.010247 0.430643 0.026996
C2    C     C_R   0.690982 0.989460 0.569457 0.026913
C3    C     C_R   0.010245 0.430644 0.308991 0.026987
C4    C     C_R   0.989442 0.569462 0.690986 0.026910
C5    C     C_R   0.430644 0.308992 0.010245 0.026997
C6    C     C_R   0.569467 0.690987 0.989437 0.026912
C7    C     C_R   0.550928 0.042226 0.676601 0.033423
C8    C     C_R   0.448981 0.958091 0.323216 0.023515
C9    C     C_R   0.676604 0.550932 0.042216 0.033440
C10   C     C_R   0.323218 0.448982 0.958086 0.023516
C11   C     C_R   0.042214 0.676604 0.550931 0.033400
C12   C     C_R   0.958084 0.323219 0.448981 0.023514
Cu1   Cu    Cu3+1 0.995180 0.995180 0.424630 1.091480
Cu2   Cu    Cu3+1 0.004820 0.004820 0.575370 1.125962
Cu3   Cu    Cu3+1 0.995180 0.424630 0.995180 1.091444
Cu4   Cu    Cu3+1 0.004820 0.575370 0.004820 1.125947
Cu5   Cu    Cu3+1 0.424630 0.995180 0.995180 1.091446
Cu6   Cu    Cu3+1 0.575370 0.004820 0.004820 1.125979
C13   C     C_R   0.027968 0.828348 0.564792 0.778910
C14   C     C_R   0.972029 0.171641 0.435198 0.773593
C15   C     C_R   0.828348 0.564792 0.027968 0.778920
C16   C     C_R   0.171641 0.435198 0.972029 0.773605
C17   C     C_R   0.564791 0.027970 0.828347 0.778915
C18   C     C_R   0.435198 0.972030 0.171641 0.773598
C19   C     C_R   0.430151 0.168334 0.986428 0.786342
C20   C     C_R   0.569852 0.831670 0.013513 0.786961
C21   C     C_R   0.986429 0.430151 0.168334 0.786341
C22   C     C_R   0.013514 0.569851 0.831669 0.786971
C23   C     C_R   0.168334 0.986428 0.430151 0.786343
C24   C     C_R   0.831668 0.013519 0.569851 0.786958
O13   O     O_R   0.013780 0.867370 0.487190 -0.582239
O14   O     O_R   0.986220 0.132630 0.512810 -0.572578
O15   O     O_R   0.867370 0.487190 0.013780 -0.582234
O16   O     O_R   0.132630 0.512810 0.986220 -0.572572
O17   O     O_R   0.487190 0.013780 0.867370 -0.582252
O18   O     O_R   0.512810 0.986220 0.132630 -0.572568
O19   O     O_R   0.512810 0.132630 0.986220 -0.563779
O20   O     O_R   0.487190 0.867370 0.013780 -0.577785
O21   O     O_R   0.986220 0.512810 0.132630 -0.563797
O22   O     O_R   0.013780 0.487190 0.867370 -0.577808
O23   O     O_R   0.132630 0.986220 0.512810 -0.563784
O24   O     O_R   0.867370 0.013780 0.487190 -0.577779
C25   C     C_R   0.403329 0.987084 0.401695 0.075827
C26   C     C_R   0.596609 0.012972 0.598255 0.081033
C27   C     C_R   0.987077 0.401698 0.403329 0.075825
C28   C     C_R   0.012952 0.598262 0.596612 0.081021
C29   C     C_R   0.401697 0.403330 0.987080 0.075829
C30   C     C_R   0.598262 0.596613 0.012953 0.081035
H1    H     H_    0.269577 0.965114 0.269818 0.209500
H2    H     H_    0.730405 0.034786 0.730156 0.208733
H3    H     H_    0.965118 0.269816 0.269575 0.209501
H4    H     H_    0.034781 0.730156 0.730407 0.208729
H5    H     H_    0.269816 0.269576 0.965117 0.209499
H6    H     H_    0.730156 0.730407 0.034783 0.208726
C31   C     C_R   0.262377 0.989530 0.389176 -0.119709
C32   C     C_R   0.737594 0.010436 0.610764 -0.116645
C33   C     C_R   0.989529 0.389176 0.262377 -0.119713
C34   C     C_R   0.010425 0.610765 0.737597 -0.116635
C35   C     C_R   0.389176 0.262377 0.989529 -0.119709
C36   C     C_R   0.610768 0.737597 0.010422 -0.116641
C37   C     C_R   0.601599 0.037154 0.730753 -0.116592
C38   C     C_R   0.398353 0.962821 0.269222 -0.117501
C39   C     C_R   0.730755 0.601602 0.037148 -0.116598
C40   C     C_R   0.269222 0.398353 0.962820 -0.117500
C41   C     C_R   0.037146 0.730755 0.601602 -0.116596
C42   C     C_R   0.962819 0.269222 0.398353 -0.117498
C43   C     C_R   0.456967 0.076171 0.697564 -0.102951
C44   C     C_R   0.542930 0.924562 0.301963 -0.122343
C45   C     C_R   0.076165 0.697563 0.456971 -0.102940
C46   C     C_R   0.924548 0.301969 0.542929 -0.122335
C47   C     C_R   0.697563 0.456972 0.076166 -0.102944
C48   C     C_R   0.301968 0.542929 0.924552 -0.122321
C49   C     C_R   0.264589 0.054615 0.498528 -0.138727
C50   C     C_R   0.735316 0.944531 0.501938 -0.137151
C51   C     C_R   0.498528 0.264591 0.054612 -0.138725
C52   C     C_R   0.501953 0.735322 0.944498 -0.137113
C53   C     C_R   0.054614 0.498527 0.264590 -0.138736
C54   C     C_R   0.944514 0.501940 0.735319 -0.137130
C55   C     C_R   0.306986 0.970799 0.306652 -0.232537
C56   C     C_R   0.692981 0.029144 0.693310 -0.238896
C57   C     C_R   0.970800 0.306650 0.306985 -0.232539
C58   C     C_R   0.029135 0.693311 0.692984 -0.238895
C59   C     C_R   0.306651 0.306985 0.970800 -0.232537
C60   C     C_R   0.693312 0.692984 0.029136 -0.238912
C61   C     C_R   0.688459 0.935098 0.453885 -0.062634
C62   C     C_R   0.311172 0.062120 0.548061 -0.065890
C63   C     C_R   0.935063 0.453902 0.688460 -0.062603
C64   C     C_R   0.062120 0.548059 0.311175 -0.065894
C65   C     C_R   0.453905 0.688462 0.935061 -0.062601
C66   C     C_R   0.548063 0.311175 0.062114 -0.065889
C67   C     C_R   0.592284 0.927578 0.351795 -0.052117
C68   C     C_R   0.407820 0.074926 0.646494 -0.045181
C69   C     C_R   0.351807 0.592284 0.927556 -0.052099
C70   C     C_R   0.646495 0.407824 0.074919 -0.045184
C71   C     C_R   0.927550 0.351810 0.592282 -0.052116
C72   C     C_R   0.074923 0.646493 0.407824 -0.045181
C73   C     C_R   0.734372 0.894832 0.382544 0.267124
C74   C     C_R   0.265155 0.102125 0.619587 0.256283
C75   C     C_R   0.894775 0.382575 0.734369 0.267104
C76   C     C_R   0.102133 0.619579 0.265159 0.256289
C77   C     C_R   0.382576 0.734370 0.894777 0.267121
C78   C     C_R   0.619590 0.265158 0.102117 0.256261
C79   C     C_R   0.686656 0.892895 0.330403 0.273415
C80   C     C_R   0.313398 0.108989 0.668270 0.274686
C81   C     C_R   0.330429 0.686653 0.892850 0.273418
C82   C     C_R   0.668272 0.313401 0.108981 0.274680
C83   C     C_R   0.892844 0.330432 0.686650 0.273427
C84   C     C_R   0.108996 0.668262 0.313402 0.274690
H7    H     H_    0.422034 0.106828 0.751886 0.199266
H8    H     H_    0.577392 0.891415 0.249411 0.195174
H9    H     H_    0.106827 0.751881 0.422039 0.199270
H10   H     H_    0.891406 0.249413 0.577391 0.195179
H11   H     H_    0.751880 0.422040 0.106829 0.199252
H12   H     H_    0.249413 0.577391 0.891408 0.195176
H13   H     H_    0.193832 0.087555 0.510243 0.194218
H14   H     H_    0.806464 0.913903 0.488246 0.204785
H15   H     H_    0.510243 0.193834 0.087553 0.194214
H16   H     H_    0.488249 0.806482 0.913877 0.204792
H17   H     H_    0.087555 0.510242 0.193832 0.194223
H18   H     H_    0.913919 0.488213 0.806478 0.204846
C85   C     C_R   0.546209 0.964070 0.425675 -0.000428
C86   C     C_R   0.453747 0.036807 0.573746 0.005062
C87   C     C_R   0.964047 0.425686 0.546209 -0.000429
C88   C     C_R   0.036796 0.573750 0.453750 0.005037
C89   C     C_R   0.425683 0.546210 0.964053 -0.000410
C90   C     C_R   0.573750 0.453751 0.036797 0.005064
C91   C     C_R   0.594322 0.969010 0.475837 0.001092
C92   C     C_R   0.405510 0.030237 0.524700 -0.000265
C93   C     C_R   0.475849 0.594324 0.968986 0.001086
C94   C     C_R   0.524703 0.405513 0.030229 -0.000267
C95   C     C_R   0.968983 0.475850 0.594323 0.001084
C96   C     C_R   0.030229 0.524703 0.405512 -0.000272
C97   C     C_R   0.451744 0.993973 0.450590 0.041016
C98   C     C_R   0.548166 0.006140 0.549346 0.048080
C99   C     C_R   0.993961 0.450595 0.451744 0.041017
C100  C     C_R   0.006121 0.549355 0.548168 0.048060
C101  C     C_R   0.450593 0.451745 0.993964 0.041024
C102  C     C_R   0.549353 0.548169 0.006123 0.048084
N1    N     N_R   0.265479 0.148721 0.741348 0.143747
O25   O     O_R   0.204351 0.115856 0.807778 -0.218993
O26   O     O_R   0.276521 0.222924 0.737201 -0.355408
N2    N     N_R   0.734747 0.854572 0.256323 0.139389
O27   O     O_R   0.785776 0.772541 0.269013 -0.295550
O28   O     O_R   0.734586 0.904326 0.175046 -0.266827
N3    N     N_R   0.148741 0.741332 0.265484 0.143745
O29   O     O_R   0.115896 0.807757 0.204340 -0.218991
O30   O     O_R   0.222939 0.737179 0.276542 -0.355411
N4    N     N_R   0.854486 0.256377 0.734733 0.139403
O31   O     O_R   0.772420 0.269112 0.785674 -0.295635
O32   O     O_R   0.904226 0.175084 0.734638 -0.266821
N5    N     N_R   0.741356 0.265482 0.148706 0.143753
O33   O     O_R   0.807798 0.204375 0.115818 -0.218974
O34   O     O_R   0.737206 0.276508 0.222919 -0.355393
N6    N     N_R   0.256368 0.734737 0.854502 0.139398
O35   O     O_R   0.269091 0.785702 0.772445 -0.295598
O36   O     O_R   0.175079 0.734624 0.904246 -0.266833
N7    N     N_R   0.169192 0.136030 0.643489 0.141618
O37   O     O_R   0.131371 0.219447 0.644004 -0.315451
O38   O     O_R   0.119611 0.081713 0.672706 -0.268493
N8    N     N_R   0.830014 0.858147 0.360676 0.139177
O39   O     O_R   0.879726 0.888874 0.281414 -0.224611
O40   O     O_R   0.866586 0.788326 0.416913 -0.373271
N9    N     N_R   0.643498 0.169194 0.136016 0.141622
O41   O     O_R   0.644023 0.131367 0.219434 -0.315436
O42   O     O_R   0.672714 0.119619 0.081692 -0.268455
N10   N     N_R   0.360747 0.830004 0.858033 0.139146
O43   O     O_R   0.281474 0.879751 0.888669 -0.224641
O44   O     O_R   0.417040 0.866531 0.788244 -0.373325
N11   N     N_R   0.136054 0.643470 0.169198 0.141615
O45   O     O_R   0.219485 0.643947 0.131390 -0.315489
O46   O     O_R   0.081745 0.672708 0.119605 -0.268478
N12   N     N_R   0.858030 0.360745 0.830003 0.139140
O47   O     O_R   0.888631 0.281457 0.879748 -0.224604
O48   O     O_R   0.788276 0.417064 0.866535 -0.373359

loop_
_geom_bond_atom_site_label_1
_geom_bond_atom_site_label_2
_geom_bond_distance
_ccdc_geom_bond_type
C7    C26   1.413339 A    
O10   Cu3   1.954483 S    
C11   C28   1.413339 A    
C2    C26   1.409316 A    
C91   C98   1.415289 A    
C4    C54   1.410798 A    
N3    O29   1.301056 A    
C62   C74   1.415520 A    
O5    C19   1.300454 A    
C15   O15   1.285154 A    
N7    O37   1.301180 A    
C72   C84   1.414803 A    
C21   O21   1.284600 A    
N5    O33   1.301077 A    
C10   C40   1.426098 A    
C17   O17   1.285151 A    
Cu1   O13   1.956766 S    
C52   C65   1.404710 A    
Cu2   O14   1.956765 S    
C23   C31   1.475765 S    
C44   H8    1.078692 S    
N11   O45   1.301215 A    
C90   C102  1.410932 A    
C43   H7    1.077769 S    
Cu4   O16   1.956768 S    
C13   O13   1.285155 A    
C45   H9    1.077768 S    
C9    C47   1.408162 A    
O8    Cu5   1.954483 S    
C94   C101  1.415603 A    
C63   C95   1.410407 A    
C34   C58   1.393920 A    
C72   C88   1.413952 A    
C33   C57   1.393742 A    
C96   C99   1.415601 A    
C40   C59   1.392847 A    
C86   C92   1.412079 A    
N8    O39   1.301108 A    
Cu4   O21   1.956765 S    
C28   C100  1.415293 A    
C25   C97   1.415215 A    
C35   C59   1.393740 A    
C42   C57   1.392845 A    
C41   C58   1.392995 A    
C65   C77   1.415512 A    
N12   O47   1.301078 A    
C75   C83   1.409778 A    
O8    C18   1.304822 A    
C71   C83   1.414958 A    
C50   C61   1.404679 A    
C12   C46   1.407372 A    
C71   C87   1.414371 A    
C49   C62   1.404315 A    
C68   C80   1.414800 A    
C65   C93   1.410423 A    
C15   C39   1.483295 S    
O4    C22   1.300881 A    
C83   N4    1.436257 S    
H2    C56   1.083529 S    
C93   C102  1.415288 A    
N1    O25   1.301050 A    
O6    C20   1.300876 A    
C16   O16   1.285316 A    
C52   H16   1.075991 S    
N2    O28   1.301208 A    
C73   N8    1.436315 S    
C54   H18   1.075913 S    
Cu3   O15   1.956769 S    
C87   C95   1.411989 A    
C77   N10   1.436303 S    
C45   C72   1.408770 A    
O11   C13   1.305141 A    
N3    O30   1.301145 A    
O7    Cu6   1.954485 S    
O12   C14   1.304819 A    
O1    Cu1   1.954482 S    
N7    O38   1.301181 A    
C69   C81   1.414967 A    
C47   H11   1.077770 S    
C8    C25   1.413051 A    
C3    C33   1.424029 A    
C46   H10   1.078694 S    
O4    Cu4   1.954486 S    
N8    O40   1.301252 A    
C39   C60   1.392997 A    
C13   C41   1.483298 S    
O5    Cu5   1.954483 S    
Cu5   O20   1.956769 S    
C29   C101  1.415213 A    
C6    C36   1.424664 A    
C95   C100  1.415287 A    
C86   C98   1.410927 A    
C20   C36   1.476119 S    
C82   N5    1.435815 S    
C64   C76   1.415517 A    
C8    C44   1.407374 A    
C44   C67   1.408547 A    
C50   H14   1.075861 S    
N10   O43   1.301079 A    
C7    C37   1.426545 A    
N6    O36   1.301196 A    
C4    C34   1.424673 A    
Cu1   O24   1.956765 S    
C2    C50   1.410775 A    
C9    C30   1.413340 A    
N9    O42   1.301207 A    
C90   C94   1.412079 A    
N11   O46   1.301194 A    
C10   C29   1.413050 A    
C76   C84   1.409647 A    
C89   C101  1.411079 A    
C12   C27   1.413051 A    
C4    C28   1.409326 A    
C53   C64   1.404314 A    
O11   Cu2   1.954484 S    
Cu1   Cu2   2.666202 S    
C22   O22   1.284417 A    
C69   C89   1.414372 A    
C6    C52   1.410809 A    
C62   C92   1.410852 A    
C67   C85   1.414374 A    
C10   C48   1.407374 A    
C38   C55   1.392843 A    
C92   C97   1.415605 A    
C67   C79   1.414974 A    
Cu5   Cu6   2.666203 S    
C66   C78   1.415523 A    
C24   C32   1.476111 S    
C3    C53   1.409747 A    
C51   C66   1.404312 A    
C19   O19   1.284602 A    
C68   C86   1.413953 A    
N9    O41   1.301238 A    
C81   N6    1.436262 S    
C63   C75   1.415518 A    
C31   C55   1.393741 A    
C48   C69   1.408551 A    
C21   C33   1.475761 S    
C8    C38   1.426100 A    
O10   C16   1.304820 A    
C30   C102  1.415294 A    
C46   C71   1.408545 A    
C11   C41   1.426537 A    
C7    C43   1.408164 A    
C23   O23   1.284598 A    
N2    O27   1.301247 A    
C78   C82   1.409642 A    
C18   C38   1.483051 S    
O9    C15   1.305137 A    
C77   C81   1.409785 A    
C12   C42   1.426095 A    
C78   N9    1.436802 S    
O6    Cu6   1.954483 S    
Cu6   O19   1.956769 S    
Cu5   O17   1.956764 S    
C5    C35   1.424032 A    
C87   C99   1.411073 A    
C27   C99   1.415212 A    
C79   N2    1.436272 S    
C64   C96   1.410851 A    
N6    O35   1.301228 A    
C43   C68   1.408774 A    
C49   H13   1.077278 S    
C85   C97   1.411079 A    
Cu2   O23   1.956766 S    
C74   C80   1.409652 A    
C54   C63   1.404687 A    
Cu3   O22   1.956766 S    
H6    C60   1.083529 S    
C1    C31   1.424034 A    
Cu6   O18   1.956763 S    
C89   C93   1.411993 A    
C17   C37   1.483298 S    
C11   C45   1.408163 A    
N5    O34   1.301154 A    
C5    C51   1.409745 A    
O7    C17   1.305140 A    
N4    O32   1.301191 A    
O1    C23   1.300457 A    
C37   C56   1.392999 A    
O2    Cu2   1.954482 S    
N10   O44   1.301230 A    
C85   C91   1.411990 A    
C76   N11   1.436791 S    
C20   O20   1.284428 A    
C22   C34   1.476118 S    
C53   H17   1.077280 S    
C47   C70   1.408768 A    
O12   Cu1   1.954484 S    
N4    O31   1.301220 A    
C51   H15   1.077280 S    
C48   H12   1.078694 S    
C19   C35   1.475767 S    
C61   C73   1.415497 A    
C5    C29   1.408949 A    
H4    C58   1.083529 S    
C88   C96   1.412079 A    
C24   O24   1.284425 A    
C84   N3    1.435815 S    
O2    C24   1.300873 A    
C3    C27   1.408947 A    
O3    Cu3   1.954484 S    
C75   N12   1.436316 S    
C32   C56   1.393914 A    
N12   O48   1.301245 A    
C18   O18   1.285314 A    
N1    O26   1.301143 A    
C26   C98   1.415293 A    
C6    C30   1.409331 A    
C70   C90   1.413954 A    
C73   C79   1.409777 A    
C14   C42   1.483049 S    
C36   C60   1.393921 A    
C74   N7    1.436793 S    
H5    C59   1.083532 S    
C14   O14   1.285318 A    
C9    C39   1.426536 A    
C88   C100  1.410928 A    
C1    C49   1.409746 A    
Cu3   Cu4   2.666200 S    
C2    C32   1.424653 A    
C66   C94   1.410852 A    
H3    C57   1.083533 S    
C61   C91   1.410407 A    
C80   N1    1.435809 S    
C70   C82   1.414800 A    
O3    C21   1.300452 A    
H1    C55   1.083531 S    
O9    Cu4   1.954484 S    
C16   C40   1.483049 S    
C1    C25   1.408948 A    
