data_mof_unit_32208.cif
_audit_creation_date              2012-12-11T15:52:27-0500
_audit_creation_method            fapswitch 2.2
_symmetry_space_group_name_H-M    P1
_symmetry_Int_Tables_number       1
_space_group_crystal_system       triclinic
_cell_length_a                    11.008498
_cell_length_b                    11.020142
_cell_length_c                    18.789047
_cell_angle_alpha                 90.033849
_cell_angle_beta                  89.912991
_cell_angle_gamma                 119.859316
_cell_volume                      1976.80603041

loop_
_atom_site_label
_atom_site_type_symbol
_atom_type_description
_atom_site_fract_x
_atom_site_fract_y
_atom_site_fract_z
_atom_type_partial_charge
Br1   Br    Br    0.463423 0.202003 0.882942 -0.389584
Br2   Br    Br    0.810162 0.242840 0.883428 -0.361156
Br3   Br    Br    0.773152 0.542079 0.889889 -0.397140
Br4   Br    Br    0.940280 0.139645 0.087526 -0.423085
Br5   Br    Br    0.202790 0.066044 0.081073 -0.436287
Br6   Br    Br    0.864504 0.802159 0.086809 -0.429912
C1    C     C_R   0.519271 0.457574 0.147624 0.543122
C2    C     C_3   0.029822 0.743181 0.459655 -0.278310
C3    C     C_3   0.714063 0.970576 0.459676 -0.278506
C4    C     C_3   0.256950 0.286614 0.459940 -0.278554
C5    C     C_R   0.522281 0.453555 0.355925 0.539961
C6    C     C_R   0.546268 0.068582 0.355936 0.540191
C7    C     C_R   0.931267 0.477587 0.355940 0.540392
C8    C     C_R   0.458228 0.517445 0.647104 0.564803
C9    C     C_R   0.059269 0.541896 0.647105 0.572181
C10   C     C_R   0.482572 0.940836 0.647115 0.572848
C11   C     C_R   0.466537 0.912110 0.935423 0.038757
C12   C     C_R   0.542853 0.061494 0.147451 0.541863
C13   C     C_R   0.088612 0.552798 0.935706 0.044450
C14   C     C_R   0.468670 0.514804 0.931493 0.057307
C15   C     C_R   0.017570 0.512756 0.081310 -0.001081
C16   C     C_R   0.497504 0.984755 0.080767 0.000695
C17   C     C_R   0.493051 0.501816 0.079586 0.000702
C18   C     C_R   0.380047 0.954346 0.968224 -0.023860
C19   C     C_R   0.055066 0.426592 0.969528 -0.023667
C20   C     C_R   0.589958 0.611942 0.966291 -0.033702
C21   C     C_R   0.014034 0.406616 0.039877 0.007019
C22   C     C_R   0.398498 0.993020 0.038587 0.013039
C23   C     C_R   0.939102 0.481292 0.147623 0.539373
C24   C     C_R   0.603371 0.599406 0.038130 0.008199
C25   C     C_R   0.570645 0.922400 0.051143 -0.131302
C26   C     C_R   0.075604 0.646680 0.050971 -0.135462
C27   C     C_R   0.361464 0.425355 0.047338 -0.142942
C28   C     C_R   0.103314 0.664280 0.978068 -0.136594
C29   C     C_R   0.558718 0.891124 0.978457 -0.134289
C30   C     C_R   0.350940 0.426754 0.973477 -0.138395
C31   C     C_3   0.338059 0.060418 0.949421 0.053586
C32   C     C_3   0.953798 0.275565 0.952512 0.059632
C33   C     C_3   0.741461 0.662120 0.952967 0.042126
C34   C     C_R   0.450674 0.523928 0.855715 0.599713
C35   C     C_3   0.902571 0.259534 0.029110 0.059866
C36   C     C_3   0.366525 0.107189 0.026941 0.054448
C37   C     C_3   0.752307 0.636611 0.031857 0.061325
C38   C     C_R   0.513132 0.014089 0.579642 0.023996
C39   C     C_R   0.986057 0.499400 0.579632 0.023996
C40   C     C_R   0.500957 0.486709 0.579600 0.024567
C41   C     C_R   0.960298 0.485313 0.431372 0.014856
C42   C     C_R   0.524881 0.039527 0.431375 0.014963
C43   C     C_R   0.514536 0.474896 0.431350 0.014927
C44   C     C_R   0.632903 0.037446 0.542060 0.035096
C45   C     C_R   0.121317 0.576376 0.860150 0.558449
C46   C     C_R   0.962888 0.595816 0.542086 0.034548
C47   C     C_R   0.404756 0.367185 0.542146 0.035422
C48   C     C_R   0.951267 0.588561 0.469672 0.039214
C49   C     C_R   0.637273 0.048857 0.469633 0.039280
C50   C     C_R   0.411757 0.362784 0.469715 0.039235
C51   C     C_R   0.416425 0.043525 0.469277 -0.163386
C52   C     C_R   0.956067 0.372985 0.469267 -0.163462
C53   C     C_R   0.626810 0.582983 0.469097 -0.163190
C54   C     C_R   0.967416 0.379311 0.543722 -0.163842
C55   C     C_R   0.411362 0.032358 0.543739 -0.164183
C56   C     C_R   0.455398 0.878386 0.860122 0.555614
C57   C     C_R   0.620751 0.588067 0.543554 -0.163747
C58   C     C_3   0.709937 0.956837 0.539656 -0.271014
C59   C     C_3   0.043863 0.753007 0.539616 -0.271134
C60   C     C_3   0.247339 0.290750 0.539921 -0.270434
Cr1   Cr    Cr6+3 0.769160 0.541570 0.250690 1.072687
Cr2   Cr    Cr6+3 0.458430 0.227590 0.250690 1.074799
Cr3   Cr    Cr6+3 0.772410 0.230840 0.250690 1.075315
Cr4   Cr    Cr6+3 0.541570 0.769160 0.749310 1.047193
Cr5   Cr    Cr6+3 0.227590 0.458430 0.749310 1.049504
Cr6   Cr    Cr6+3 0.230840 0.772410 0.749310 1.050721
H1    H     H_    0.225926 0.011310 0.934119 0.159238
H2    H     H_    0.973598 0.297069 0.572012 0.126707
H3    H     H_    0.322676 0.025920 0.572053 0.126161
H4    H     H_    0.702868 0.676433 0.571761 0.126207
H5    H     H_    0.815142 0.014662 0.564754 0.133835
H6    H     H_    0.986259 0.800818 0.564860 0.133493
H7    H     H_    0.200076 0.185619 0.565087 0.133432
H8    H     H_    0.131224 0.780285 0.431496 0.140106
H9    H     H_    0.650357 0.869160 0.431702 0.140014
H10   H     H_    0.219256 0.350594 0.432010 0.140084
H11   H     H_    0.646223 0.909795 0.082221 0.212069
H12   H     H_    0.007809 0.215445 0.940622 0.157731
H13   H     H_    0.085538 0.734282 0.081524 0.214051
H14   H     H_    0.270326 0.353853 0.077891 0.212648
H15   H     H_    0.127343 0.762428 0.953955 0.152906
H16   H     H_    0.627661 0.859097 0.954991 0.151748
H17   H     H_    0.251825 0.355521 0.949232 0.156883
H18   H     H_    0.644052 0.846877 0.557030 0.162732
H19   H     H_    0.153959 0.796452 0.556812 0.162551
H20   H     H_    0.203254 0.356909 0.557325 0.163262
H21   H     H_    0.963403 0.784490 0.438481 0.140333
H22   H     H_    0.821522 0.036956 0.438334 0.140352
H23   H     H_    0.799785 0.774298 0.937385 0.164830
H24   H     H_    0.215993 0.179229 0.438651 0.140276
H25   H     H_    0.795632 0.245104 0.035251 0.161927
H26   H     H_    0.458787 0.212852 0.035639 0.160282
H27   H     H_    0.768378 0.546638 0.043250 0.159960
H28   H     H_    0.333960 0.050109 0.441536 0.132326
H29   H     H_    0.949141 0.283811 0.441523 0.132594
H30   H     H_    0.715747 0.665140 0.441251 0.132821
O1    O     O_R   0.911480 0.572650 0.170990 -0.489376
O2    O     O_R   0.528970 0.640340 0.824320 -0.512118
O3    O     O_R   0.111370 0.471030 0.824320 -0.467310
O4    O     O_R   0.359660 0.888630 0.824320 -0.483838
O5    O     O_R   0.909980 0.572450 0.331530 -0.513344
O6    O     O_R   0.427550 0.337530 0.331530 -0.513817
O7    O     O_R   0.662470 0.090020 0.331530 -0.513795
O8    O     O_R   0.572450 0.909980 0.668470 -0.511668
O9    O     O_R   0.337530 0.427550 0.668470 -0.514497
O10   O     O_R   0.090020 0.662470 0.668470 -0.513907
O11   O     O_R   0.638950 0.528780 0.324500 -0.506224
O12   O     O_R   0.427350 0.338830 0.170990 -0.484025
O13   O     O_R   0.471220 0.110170 0.324500 -0.506520
O14   O     O_R   0.889830 0.361050 0.324500 -0.506238
O15   O     O_R   0.528780 0.638950 0.675500 -0.504086
O16   O     O_R   0.110170 0.471220 0.675500 -0.499389
O17   O     O_R   0.361050 0.889830 0.675500 -0.501979
O18   O     O_3   0.666667 0.333333 0.250560 -0.281124
O19   O     O_3   0.333333 0.666667 0.749440 -0.325086
O20   O     O_R   0.661170 0.088520 0.170990 -0.486099
O21   O     O_R   0.572650 0.911480 0.829010 -0.458411
O22   O     O_R   0.338830 0.427350 0.829010 -0.503430
O23   O     O_R   0.088520 0.661170 0.829010 -0.467667
O24   O     O_R   0.640340 0.528970 0.175680 -0.475514
O25   O     O_R   0.471030 0.111370 0.175680 -0.472310
O26   O     O_R   0.888630 0.359660 0.175680 -0.471551

loop_
_geom_bond_atom_site_label_1
_geom_bond_atom_site_label_2
_ccdc_geom_bond_type
C30   H17   S    
C42   C49   A    
Br5   C36   S    
Cr6   O10   S    
C39   C54   A    
Cr6   O19   S    
C3    C58   S    
C44   C58   S    
C58   H5    S    
C58   H18   S    
C6    C42   S    
C10   O8    A    
C42   C51   A    
C8    C40   S    
C55   H3    S    
C60   H7    S    
C1    O12   A    
C37   H27   S    
C36   H26   S    
C14   C34   S    
Cr4   O2    S    
C20   C33   S    
C57   H4    S    
Cr4   O15   S    
C52   C54   A    
C27   C30   A    
C25   H11   S    
C23   O1    A    
C54   H2    S    
C31   C36   S    
C21   C35   S    
C56   O21   A    
Cr4   O8    S    
Cr3   O7    S    
Cr4   O21   S    
Cr3   O26   S    
C17   C27   A    
Cr5   O9    S    
C19   C32   S    
C3    C49   S    
C4    C50   S    
Cr1   O18   S    
C10   C38   S    
Br1   C31   S    
C6    O13   A    
C15   C21   A    
Br3   C33   S    
C2    C59   S    
C16   C22   A    
C13   C19   A    
C6    O7    A    
C46   C48   A    
C4    C60   S    
C8    O9    A    
C34   O22   A    
C15   C26   A    
C11   C18   A    
C16   C25   A    
Cr1   O1    S    
C45   O23   A    
C11   C56   S    
Cr5   O22   S    
C32   C35   S    
C10   O17   A    
C2    C48   S    
C7    C41   S    
C33   C37   S    
C39   C46   A    
C51   H28   S    
C15   C23   S    
C4    H10   S    
C26   C28   A    
C27   H14   S    
C17   C24   A    
C5    C43   S    
C12   O25   A    
C34   O2    A    
C29   H16   S    
Br2   C32   S    
C4    H24   S    
C45   O3    A    
C8    O15   A    
C18   C31   S    
C52   H29   S    
C47   C60   S    
Cr2   O25   S    
C33   H23   S    
C12   O20   A    
C41   C48   A    
Cr6   O4    S    
C20   C24   A    
Br6   C37   S    
Cr5   O3    S    
C25   C29   A    
C24   C37   S    
Cr1   O24   S    
C9    C39   S    
C5    O6    A    
C47   C50   A    
C38   C44   A    
C59   H19   S    
C31   H1    S    
C59   H6    S    
Cr5   O16   S    
C32   H12   S    
C12   C16   S    
C53   H30   S    
C9    O10   A    
Cr5   O19   S    
C2    H21   S    
C18   C22   A    
Cr3   O14   S    
C13   C28   A    
C60   H20   S    
C51   C55   A    
C56   O4    A    
C38   C55   A    
C19   C21   A    
C43   C50   A    
C11   C29   A    
C40   C57   A    
Cr3   O18   S    
C53   C57   A    
C44   C49   A    
C43   C53   A    
C9    O16   A    
Cr6   O23   S    
Cr1   O11   S    
Cr2   O18   S    
C41   C52   A    
Cr4   O19   S    
Cr1   O5    S    
C14   C20   A    
Cr3   O20   S    
C1    C17   S    
C26   H13   S    
C40   C47   A    
C22   C36   S    
C35   H25   S    
C28   H15   S    
C1    O24   A    
C5    O11   A    
C7    O14   A    
Cr6   O17   S    
Cr2   O13   S    
C14   C30   A    
C13   C45   S    
Br4   C35   S    
C23   O26   A    
Cr2   O12   S    
C7    O5    A    
C2    H8    S    
Cr2   O6    S    
C3    H22   S    
C46   C59   S    
C3    H9    S    
