data_mof_unit_15427.cif
_audit_creation_date              2012-12-10T17:24:14-0500
_audit_creation_method            fapswitch 2.2
_symmetry_space_group_name_H-M    P1
_symmetry_Int_Tables_number       1
_space_group_crystal_system       triclinic
_cell_length_a                    19.341979
_cell_length_b                    10.754902
_cell_length_c                    9.622155
_cell_angle_alpha                 90.090057
_cell_angle_beta                  89.613126
_cell_angle_gamma                 93.659625
_cell_volume                      1997.48272127

loop_
_atom_site_label
_atom_site_type_symbol
_atom_type_description
_atom_site_fract_x
_atom_site_fract_y
_atom_site_fract_z
_atom_type_partial_charge
C1    C     C_R   0.497943 0.262674 0.499947 0.767701
C2    C     C_R   0.291241 0.494348 0.502934 -0.110476
C3    C     C_R   0.928846 0.467789 0.498003 0.440066
C4    C     C_R   0.069077 0.471049 0.502029 0.416399
C5    C     C_R   0.813835 0.439387 0.614112 -0.235528
C6    C     C_R   0.742031 0.443427 0.613476 -0.286944
C7    C     C_R   0.707623 0.479253 0.493706 -0.200251
C8    C     C_R   0.746151 0.499683 0.369380 0.340683
C9    C     C_R   0.818760 0.504907 0.372581 0.389932
C10   C     C_R   0.852915 0.470795 0.494552 -0.113287
C11   C     C_R   0.385518 0.117064 0.639598 -0.196143
C12   C     C_R   0.367534 0.499523 0.500764 0.781302
C13   C     C_R   0.333368 0.046156 0.709288 -0.162823
C14   C     C_R   0.333890 0.916906 0.710839 -0.104973
C15   C     C_R   0.386512 0.857883 0.642501 -0.166194
C16   C     C_R   0.440581 0.927856 0.573078 0.078603
C17   C     C_R   0.440143 0.059166 0.571846 0.093334
C18   C     C_R   0.493642 0.128474 0.499874 -0.095651
C19   C     C_R   0.545254 0.069425 0.428281 -0.208361
C20   C     C_R   0.545784 0.941293 0.430052 -0.190295
C21   C     C_R   0.494294 0.870511 0.501649 -0.063724
C22   C     C_R   0.578004 0.685702 0.147638 -0.146081
C23   C     C_R   0.498378 0.737061 0.500313 0.804951
C24   C     C_R   0.596489 0.798898 0.086261 -0.433620
C25   C     C_R   0.587267 0.813223 0.944138 0.373081
C26   C     C_R   0.576197 0.702782 0.865708 0.416862
C27   C     C_R   0.537316 0.596665 0.926678 0.017924
C28   C     C_R   0.537712 0.593162 0.075937 0.154510
C29   C     C_R   0.464387 0.410311 0.073905 -0.069554
C30   C     C_R   0.464825 0.409761 0.926289 -0.071623
C31   C     C_R   0.632107 0.493090 0.498665 0.836702
C32   C     C_R   0.254214 0.533104 0.620833 0.425032
C33   C     C_R   0.181634 0.526305 0.618453 -0.251551
C34   C     C_R   0.145394 0.477191 0.502992 0.006500
C35   C     C_R   0.182599 0.437381 0.387285 -0.161481
C36   C     C_R   0.254724 0.446325 0.387124 -0.260274
Cu1   Cu    Cu3+1 0.500000 0.499990 0.640660 0.966910
Cu2   Cu    Cu3+1 0.500000 0.500010 0.359340 0.936710
H1    H     H_    0.381857 0.216944 0.637957 0.134297
H2    H     H_    0.291985 0.091661 0.761029 0.131884
H3    H     H_    0.292931 0.862056 0.763886 0.169694
H4    H     H_    0.383814 0.757438 0.643356 0.186918
H5    H     H_    0.587584 0.897013 0.378447 0.123722
H6    H     H_    0.434773 0.336987 0.128916 0.133013
H7    H     H_    0.595312 0.675452 0.251565 0.231743
H8    H     H_    0.621886 0.872037 0.148046 0.161684
H9    H     H_    0.153783 0.562338 0.706193 0.161637
H10   H     H_    0.435680 0.335953 0.871672 0.129622
H11   H     H_    0.156048 0.399333 0.296489 0.161340
H12   H     H_    0.281997 0.414220 0.296539 0.160943
H13   H     H_    0.838871 0.411839 0.708562 0.186780
H14   H     H_    0.713277 0.419318 0.707455 0.181082
H15   H     H_    0.586304 0.123090 0.373728 0.131791
N1    N     N_R   0.033888 0.444463 0.383066 -0.247859
N2    N     N_R   0.965122 0.442906 0.381135 -0.186439
N3    N     N_R   0.963872 0.492429 0.617575 -0.244837
N4    N     N_R   0.032695 0.494275 0.619435 -0.244856
N5    N     N_R   0.500660 0.501210 0.147910 -0.174778
N6    N     N_R   0.500680 0.501290 0.852040 -0.169197
O1    O     O_R   0.499990 0.319640 0.618810 -0.595507
O2    O     O_R   0.500000 0.319660 0.381240 -0.587679
O3    O     O_R   0.400140 0.499970 0.618820 -0.562608
O4    O     O_R   0.400150 0.500000 0.381250 -0.582144
O5    O     O_R   0.500000 0.680340 0.618760 -0.527714
O6    O     O_R   0.500010 0.680360 0.381190 -0.599411
O7    O     O_R   0.599850 0.500000 0.618750 -0.530423
O8    O     O_R   0.599860 0.500030 0.381180 -0.574388
O9    O     O_3   0.288644 0.592864 0.730106 -0.597770
C37   C     C_3   0.283353 0.516698 0.849564 0.064999
H16   H     H_    0.309381 0.428599 0.831453 0.142059
H17   H     H_    0.228416 0.493908 0.880266 0.134209
C38   C     C_3   0.318941 0.586266 0.969839 -0.751786
H18   H     H_    0.291146 0.670648 0.995499 0.237641
H19   H     H_    0.318839 0.525197 0.062772 0.197149
H20   H     H_    0.373292 0.615291 0.941285 0.257824
O10   O     O_3   0.605839 0.923988 0.874129 -0.568945
C39   C     C_3   0.589576 0.030455 0.951359 0.061439
H21   H     H_    0.630724 0.053715 0.028993 0.137421
H22   H     H_    0.538231 0.017001 0.004598 0.152344
C40   C     C_3   0.586846 0.140867 0.853566 -0.757905
H23   H     H_    0.544545 0.122639 0.777765 0.262657
H24   H     H_    0.576791 0.226107 0.913724 0.200888
H25   H     H_    0.636817 0.156417 0.796738 0.242559
O11   O     O_3   0.608011 0.699141 0.737054 -0.555669
C41   C     C_3   0.681032 0.724405 0.744162 0.093644
H26   H     H_    0.705930 0.635239 0.751201 0.147734
H27   H     H_    0.699968 0.779301 0.835905 0.145936
C42   C     C_3   0.705652 0.794737 0.612988 -0.309708
H28   H     H_    0.686825 0.743223 0.519098 0.197029
H29   H     H_    0.683531 0.887622 0.612214 0.241091
C43   C     C_3   0.784497 0.812252 0.606359 -0.935913
H30   H     H_    0.804453 0.865911 0.697973 0.266057
H31   H     H_    0.800389 0.864368 0.510696 0.254857
H32   H     H_    0.807677 0.720486 0.603698 0.265012
O12   O     O_3   0.713949 0.521024 0.244493 -0.581759
C44   C     C_3   0.708912 0.408860 0.166833 0.141985
H33   H     H_    0.659890 0.354662 0.194536 0.146849
H34   H     H_    0.752915 0.348343 0.183990 0.137511
C45   C     C_3   0.708113 0.439380 0.012700 -0.812901
H35   H     H_    0.757594 0.490244 0.981802 0.251324
H36   H     H_    0.701716 0.351769 0.951688 0.193828
H37   H     H_    0.664698 0.498008 0.989032 0.239822
O13   O     O_3   0.855418 0.538404 0.252820 -0.588899
C46   C     C_3   0.876661 0.666919 0.257653 0.087734
H38   H     H_    0.924636 0.680326 0.193855 0.180621
H39   H     H_    0.890595 0.700528 0.364332 0.115708
C47   C     C_3   0.821263 0.746062 0.195541 -0.329388
H40   H     H_    0.804702 0.707093 0.093091 0.244436
H41   H     H_    0.775426 0.744392 0.265799 0.230309
C48   C     C_3   0.848438 0.881257 0.176251 -0.942706
H42   H     H_    0.865181 0.922417 0.277455 0.259609
H43   H     H_    0.806701 0.936110 0.133679 0.258956
H44   H     H_    0.892894 0.886921 0.102359 0.265428

loop_
_geom_bond_atom_site_label_1
_geom_bond_atom_site_label_2
_ccdc_geom_bond_type
C31   O7    A    
C16   C21   A    
O12   C44   S    
C2    C12   S    
C20   H5    S    
C46   H39   S    
Cu1   O3    S    
C7    C8    A    
C39   H21   S    
C31   O8    A    
C26   C27   A    
Cu1   Cu2   S    
C30   H10   S    
C18   C19   A    
C40   H25   S    
C5    C6    A    
C40   H23   S    
C41   C42   S    
C15   C16   A    
C44   C45   S    
N3    N4    A    
C2    C32   A    
C34   C35   A    
C37   H17   S    
C48   H42   S    
C13   H2    S    
Cu2   N5    S    
C3    N2    A    
O11   C41   S    
C35   C36   A    
C16   C17   A    
C44   H34   S    
C4    N4    A    
C35   H11   S    
C47   H40   S    
Cu2   O6    S    
C9    C10   A    
C32   O9    S    
Cu2   O2    S    
C19   H15   S    
C41   H27   S    
C22   C28   A    
C13   C14   A    
C30   N6    A    
C47   H41   S    
C8    O12   S    
C38   H20   S    
C46   H38   S    
C33   C34   A    
O10   C39   S    
C39   H22   S    
C4    C34   S    
C7    C31   S    
C24   C25   A    
C38   H19   S    
C1    O1    A    
C43   H30   S    
C12   O4    A    
C8    C9    A    
C25   C26   A    
C41   H26   S    
C37   C38   S    
C29   C30   A    
C43   H31   S    
C12   O3    A    
C3    N3    A    
C45   H35   S    
C42   C43   S    
C9    O13   S    
C44   H33   S    
C20   C21   A    
C17   C18   A    
C1    C18   S    
C29   N5    A    
C11   H1    S    
C48   H44   S    
Cu1   N6    S    
C14   H3    S    
C40   H24   S    
C23   O5    A    
C45   H36   S    
C42   H29   S    
C21   C23   S    
C29   H6    S    
C33   H9    S    
C47   C48   S    
C22   C24   A    
Cu2   O8    S    
O13   C46   S    
Cu1   O5    S    
C36   H12   S    
Cu2   O4    S    
C39   C40   S    
C2    C36   A    
N1    N2    A    
C11   C17   A    
C26   O11   S    
C4    N1    A    
O9    C37   S    
C15   H4    S    
C38   H18   S    
C1    O2    A    
C6    C7    A    
C28   N5    A    
C25   O10   S    
C24   H8    S    
C32   C33   A    
C23   O6    A    
C19   C20   A    
C5    C10   A    
C3    C10   S    
C27   N6    A    
C43   H32   S    
C11   C13   A    
Cu1   O7    S    
C37   H16   S    
C48   H43   S    
Cu1   O1    S    
C22   H7    S    
C42   H28   S    
C27   C28   A    
C14   C15   A    
C5    H13   S    
C6    H14   S    
C46   C47   S    
C45   H37   S    
