data_mof_unit_57078.cif
_audit_creation_date              2013-03-05T15:48:43-0500
_audit_creation_method            fapswitch 2.2
_symmetry_space_group_name_H-M    P1
_symmetry_Int_Tables_number       1
_space_group_crystal_system       triclinic
_cell_length_a                    22.100958
_cell_length_b                    7.091297
_cell_length_c                    19.678
_cell_angle_alpha                 93.206069
_cell_angle_beta                  98.784499
_cell_angle_gamma                 86.535365
_cell_volume                      3038.86612483

loop_
_atom_site_label
_atom_site_type_symbol
_atom_site_description
_atom_site_fract_x
_atom_site_fract_y
_atom_site_fract_z
_atom_type_partial_charge
O1    O     O_R   0.448420 0.506120 0.415750 -0.570783
O2    O     O_R   0.551580 0.006120 0.584250 -0.584829
O3    O     O_R   0.436490 0.174470 0.555610 -0.560202
O4    O     O_R   0.563510 0.674470 0.444390 -0.558103
C1    C     C_R   0.421837 0.352394 0.576041 0.960285
C2    C     C_R   0.578675 0.837457 0.423540 0.948890
O5    O     O_R   0.441310 0.176330 0.414520 -0.588515
O6    O     O_R   0.558690 0.676330 0.585480 -0.572383
O7    O     O_R   0.556430 0.007110 0.442150 -0.568597
O8    O     O_R   0.443570 0.507110 0.557850 -0.573000
C3    C     C_R   0.424612 0.346019 0.391005 0.992649
C4    C     C_R   0.577431 0.843794 0.607496 0.982484
O9    O     O_3   0.537770 0.339560 0.509230 -0.259534
O10   O     O_3   0.462230 0.839560 0.490770 -0.259041
V1    V     V_3+5 0.492990 0.064280 0.498290 1.269595
V2    V     V_3+5 0.507010 0.564280 0.501710 1.289716
C5    C     C_R   0.878256 0.890796 0.697594 -0.179520
C6    C     C_R   0.124187 0.463249 0.302210 -0.178406
H1    H     H_    0.900159 0.886269 0.652206 0.204184
H2    H     H_    0.103729 0.486199 0.348632 0.205457
C7    C     C_R   0.888683 0.934442 0.821072 -0.304077
C8    C     C_R   0.110960 0.441834 0.178418 -0.304155
C9    C     C_R   0.592653 0.854953 0.734096 0.166704
C10   C     C_R   0.409883 0.312191 0.264562 0.150566
C11   C     C_R   0.628128 0.847156 0.798466 -0.194988
C12   C     C_R   0.375735 0.331725 0.200057 -0.181625
C13   C     C_R   0.692030 0.836040 0.806272 0.311416
C14   C     C_R   0.313358 0.384206 0.191961 0.321215
C15   C     C_R   0.722312 0.849700 0.747795 -0.064516
C16   C     C_R   0.281432 0.397130 0.250091 -0.070952
C17   C     C_R   0.686359 0.826156 0.680758 -0.049390
C18   C     C_R   0.318049 0.399084 0.317376 -0.038738
C19   C     C_R   0.787071 0.876412 0.753383 0.120982
C20   C     C_R   0.215267 0.413867 0.244627 0.114252
C21   C     C_R   0.815392 0.857467 0.693167 -0.024124
C22   C     C_R   0.188082 0.431386 0.305665 -0.017679
C23   C     C_R   0.781844 0.794513 0.630174 0.199531
C24   C     C_R   0.224888 0.423370 0.369899 0.201726
C25   C     C_R   0.718476 0.768740 0.624993 0.076800
C26   C     C_R   0.287928 0.438662 0.375439 0.067873
C27   C     C_R   0.824730 0.926518 0.816480 -0.149096
C28   C     C_R   0.174352 0.402063 0.181471 -0.164311
C29   C     C_R   0.915610 0.922703 0.760608 0.330089
C30   C     C_R   0.085407 0.474623 0.239467 0.331730
C31   C     C_R   0.620202 0.845392 0.674156 -0.242358
C32   C     C_R   0.383060 0.355225 0.324081 -0.236379
H3    H     H_    0.805778 0.961717 0.863127 0.157305
H4    H     H_    0.189436 0.357458 0.133516 0.166130
H5    H     H_    0.605408 0.836209 0.843007 0.205488
H6    H     H_    0.398869 0.314199 0.155206 0.205110
C33   C     C_3   0.812236 0.769995 0.248488 -0.495803
C34   C     C_3   0.202730 0.224183 0.736584 -0.462345
C35   C     C_3   0.778786 0.116890 0.259037 -0.463200
C36   C     C_3   0.203745 0.577201 0.764588 -0.487483
C37   C     C_3   0.727982 0.081790 0.306951 0.359711
C38   C     C_3   0.252084 0.603795 0.715439 0.369366
H7    H     H_    0.803631 0.827015 0.349760 0.160854
H8    H     H_    0.212183 0.313243 0.638944 0.168223
H9    H     H_    0.861583 0.780801 0.270583 0.227370
H10   H     H_    0.153914 0.227015 0.711800 0.214580
H11   H     H_    0.766670 0.245724 0.229821 0.257343
H12   H     H_    0.203552 0.689861 0.805951 0.232733
H13   H     H_    0.823234 0.140409 0.292374 0.207571
H14   H     H_    0.156100 0.591030 0.736710 0.208994
C39   C     C_1   0.624997 0.829755 0.377288 -0.115440
C40   C     C_1   0.376080 0.388242 0.621659 -0.105668
C41   C     C_3   0.789042 0.944122 0.206633 0.076352
C42   C     C_3   0.211166 0.381162 0.796134 0.073694
C43   C     C_3   0.773773 0.760755 0.306470 0.150702
C44   C     C_3   0.244922 0.259733 0.682130 0.108796
C45   C     C_3   0.709513 0.873036 0.292325 -0.177052
C46   C     C_3   0.291710 0.412423 0.709013 -0.178180
C47   C     C_3   0.680975 0.841962 0.214134 0.113335
C48   C     C_3   0.325234 0.370677 0.784357 0.132086
C49   C     C_3   0.726353 0.894055 0.164642 0.006725
C50   C     C_3   0.277382 0.350986 0.834760 -0.017028
C51   C     C_1   0.663389 0.835716 0.338768 0.196617
C52   C     C_1   0.337957 0.414747 0.660422 0.253238
C53   C     C_1   0.835366 0.968942 0.159732 0.112403
C54   C     C_1   0.164294 0.383675 0.843099 0.109078
C55   C     C_1   0.874028 0.967503 0.121381 -0.186961
C56   C     C_1   0.125578 0.409956 0.880695 -0.179276
H15   H     H_    0.734620 0.771721 0.128750 0.170463
H16   H     H_    0.280750 0.208190 0.855749 0.201823
H17   H     H_    0.809402 0.637536 0.215394 0.231275
H18   H     H_    0.213235 0.082178 0.756916 0.238827
H19   H     H_    0.638423 0.932442 0.203683 0.168671
H20   H     H_    0.351463 0.496448 0.803386 0.171286
O11   O     O_R   0.056480 0.288780 0.942210 -0.584501
O12   O     O_R   0.943520 0.788780 0.057790 -0.571516
O13   O     O_R   0.058700 0.616820 0.085490 -0.591125
O14   O     O_R   0.941300 0.116820 0.914510 -0.588960
C57   C     C_R   0.072135 0.449000 0.110976 1.039236
C58   C     C_R   0.927032 0.947911 0.889180 1.041192
O15   O     O_R   0.063520 0.618570 0.944410 -0.560667
O16   O     O_R   0.936480 0.118570 0.055590 -0.575388
O17   O     O_R   0.948420 0.787670 0.915740 -0.574501
O18   O     O_R   0.051580 0.287670 0.084260 -0.581403
C59   C     C_R   0.079017 0.442458 0.924981 0.973913
C60   C     C_R   0.920767 0.957276 0.075854 0.968405
O19   O     O_3   0.962260 0.453430 0.990800 -0.271325
O20   O     O_3   0.037740 0.953430 0.009200 -0.274568
V3    V     V_3+5 0.007000 0.728750 0.001710 1.273426
V4    V     V_3+5 0.993000 0.228750 0.998290 1.276060
N1    N     N_R   0.980332 0.944298 0.761531 0.228820
O21   O     O_R   0.020706 0.886930 0.812418 -0.410093
O22   O     O_R   0.999759 0.007856 0.708376 -0.363351
N2    N     N_R   0.020612 0.516904 0.239270 0.228687
O23   O     O_R   0.980044 0.449705 0.190347 -0.409458
O24   O     O_R   0.001462 0.610938 0.291337 -0.370841
I1    I     I_    0.761332 0.107455 0.421630 -0.216908
I2    I     I_    0.193849 0.677225 0.619035 -0.236867
N3    N     N_R   0.674180 0.216519 0.293720 0.257007
O25   O     O_R   0.647528 0.247617 0.231708 -0.304378
O26   O     O_R   0.651107 0.304426 0.344487 -0.328217
N4    N     N_R   0.292955 0.757940 0.741852 0.245536
O27   O     O_R   0.288974 0.845850 0.800880 -0.390136
O28   O     O_R   0.342681 0.776041 0.715542 -0.331272
I3    I     I_    0.687840 0.100837 0.091562 -0.083357
I4    I     I_    0.297288 0.538646 0.924982 -0.096425
N5    N     N_R   0.662377 0.647903 0.198976 0.276297
O29   O     O_R   0.604397 0.613832 0.188635 -0.285050
O30   O     O_R   0.702125 0.514955 0.184638 -0.369932
N6    N     N_R   0.372131 0.213119 0.786604 0.279846
O31   O     O_R   0.420587 0.233219 0.758189 -0.362324
O32   O     O_R   0.376610 0.088546 0.833411 -0.262442
I5    I     I_    0.785398 0.516676 0.356177 -0.222291
I6    I     I_    0.278868 0.046782 0.613043 -0.186501
I7    I     I_    0.829413 0.714048 0.544260 -0.200594
I8    I     I_    0.187599 0.360967 0.459501 -0.241326
I9    I     I_    0.496560 0.839816 0.730946 -0.098302
I10   I     I_    0.503907 0.227098 0.267607 -0.168205
N7    N     N_R   0.723942 0.774747 0.871077 0.225515
O33   O     O_R   0.762863 0.629187 0.872510 -0.386171
O34   O     O_R   0.706734 0.841996 0.928401 -0.363072
N8    N     N_R   0.286194 0.443680 0.125417 0.224457
O35   O     O_R   0.292921 0.336347 0.071002 -0.358883
O36   O     O_R   0.262702 0.615479 0.118261 -0.371692
I11   I     I_    0.683139 0.563530 0.547608 -0.227947
I12   I     I_    0.322273 0.627448 0.458029 -0.256962

loop_
_geom_bond_atom_site_label_1
_geom_bond_atom_site_label_2
_geom_bond_distance
_ccdc_geom_bond_type
C42   C54   1.488589 S    
C48   N6    1.475162 S    
C9    C31   1.404270 A    
C13   C15   1.427212 A    
C56   C59   1.447161 S    
C35   C37   1.610904 S    
O1    C3    1.317211 A    
O2    C4    1.326750 A    
C50   H16   1.108956 S    
C2    O7    1.325666 A    
N4    O27   1.299681 A    
O5    C3    1.324661 A    
N1    O22   1.301860 A    
C50   I4    2.164349 S    
C48   C50   1.573363 S    
O11   C59   1.307352 A    
C24   I8    2.135182 S    
C21   C23   1.408176 A    
C10   C12   1.383611 A    
C12   H6    1.083364 S    
O15   C59   1.325906 A    
C36   C42   1.543602 S    
C7    C58   1.473852 S    
C15   C19   1.441778 A    
N2    O23   1.301703 A    
C29   N1    1.445023 S    
C43   C45   1.579798 S    
C47   H19   1.105054 S    
C46   C52   1.503826 S    
C34   H10   1.113568 S    
C19   C21   1.418610 A    
C7    C29   1.405684 A    
C35   H11   1.104105 S    
C2    C39   1.466868 S    
C8    C30   1.405795 A    
N2    O24   1.302092 A    
C14   C16   1.428901 A    
C38   C46   1.579754 S    
C20   C28   1.422484 A    
C16   C18   1.442298 A    
C20   C22   1.419079 A    
C34   C42   1.568296 S    
C33   C43   1.529745 S    
O5    V1    2.028540 S    
O6    V2    2.010310 S    
C47   C49   1.572919 S    
C33   H17   1.111997 S    
C38   I2    2.193206 S    
O12   C60   1.319614 A    
O15   V3    1.912037 S    
C36   C38   1.572474 S    
C30   N2    1.444703 S    
C27   H3    1.076795 S    
C40   C52   1.219914 T    
C25   I11   2.138385 S    
C48   H20   1.109292 S    
C39   C51   1.225021 T    
C16   C20   1.447895 A    
C13   N7    1.436253 S    
C49   I3    2.157290 S    
C54   C56   1.213607 T    
C53   C55   1.222615 T    
H8    C44   1.097631 S    
C33   C41   1.540815 S    
C36   H12   1.108450 S    
C58   O17   1.309141 A    
O4    V2    2.022080 S    
C5    C29   1.395994 A    
C6    C30   1.394646 A    
O13   C57   1.317005 A    
C10   I10   2.121391 S    
C17   C25   1.423645 A    
O6    C4    1.310184 A    
O14   C58   1.308977 A    
C38   N4    1.480970 S    
C9    I9    2.124222 S    
O1    V2    2.006388 S    
C28   H4    1.073145 S    
O20   V4    2.141097 S    
O2    V1    2.013099 S    
N5    O29   1.301566 A    
O17   V3    2.014289 S    
C7    C27   1.406810 A    
C46   C48   1.588022 S    
O19   V4    1.699015 S    
C47   N5    1.461736 S    
O9    V1    2.226635 S    
O11   V4    1.991220 S    
N7    O33   1.301805 A    
C8    C57   1.467832 S    
O10   V2    2.141239 S    
O4    C2    1.326038 A    
C41   C49   1.550932 S    
C45   C51   1.512825 S    
O3    V1    1.912007 S    
N8    O36   1.301533 A    
N6    O32   1.300433 A    
N3    O25   1.295949 A    
O19   V3    2.226474 S    
C44   I6    2.153256 S    
O16   V4    2.022102 S    
C37   I1    2.265193 S    
C14   N8    1.429689 S    
C18   C32   1.439177 A    
O13   V3    2.028529 S    
C1    C40   1.453894 S    
O3    C1    1.338678 A    
C4    C31   1.495085 S    
C55   C60   1.463293 S    
C42   C50   1.551037 S    
C37   N3    1.480008 S    
N1    O21   1.301234 A    
C12   C14   1.393524 A    
C19   C27   1.425255 A    
C34   H18   1.102930 S    
O7    V1    1.924815 S    
C10   C32   1.402343 A    
C1    O8    1.312510 A    
C15   C17   1.438984 A    
O8    V2    1.985573 S    
C24   C26   1.391154 A    
C35   H13   1.110814 S    
C49   H15   1.111983 S    
C8    C28   1.405159 A    
C36   H14   1.111962 S    
O18   V4    2.007486 S    
O16   C60   1.314980 A    
C22   C24   1.396800 A    
C5    H1    1.077055 S    
N4    O28   1.300223 A    
C26   I12   2.124226 S    
C6    H2    1.079831 S    
C18   C26   1.414658 A    
O20   V3    1.759482 S    
C35   C41   1.585011 S    
C11   H5    1.083108 S    
O12   V3    1.927564 S    
N5    O30   1.298458 A    
C34   C44   1.563677 S    
O14   V4    2.010329 S    
C9    C11   1.386170 A    
C33   H9    1.116194 S    
C43   I5    2.019256 S    
C23   C25   1.410831 A    
C17   C31   1.446776 A    
O9    V2    1.699469 S    
C45   C47   1.579956 S    
N7    O34   1.301324 A    
O10   V1    1.759920 S    
N8    O35   1.300681 A    
C3    C32   1.488241 S    
C44   C46   1.557468 S    
C5    C21   1.412156 A    
H7    C43   1.096772 S    
C6    C22   1.408411 A    
C57   O18   1.309273 A    
C23   I7    2.156734 S    
C41   C53   1.503153 S    
C37   C45   1.558951 S    
N6    O31   1.300054 A    
N3    O26   1.301604 A    
C11   C13   1.395013 A    
