data_mof_unit_68262.cif
_audit_creation_date              2012-12-11T14:26:53-0500
_audit_creation_method            fapswitch 2.2
_symmetry_space_group_name_H-M    P1
_symmetry_Int_Tables_number       1
_space_group_crystal_system       triclinic
_cell_length_a                    8.269537
_cell_length_b                    14.898078
_cell_length_c                    15.259104
_cell_angle_alpha                 96.997151
_cell_angle_beta                  99.577353
_cell_angle_gamma                 97.311164
_cell_volume                      1818.89377068

loop_
_atom_site_label
_atom_site_type_symbol
_atom_type_description
_atom_site_fract_x
_atom_site_fract_y
_atom_site_fract_z
_atom_type_partial_charge
Ba1   Ba    Ba6+2 0.154720 0.543770 0.458160 1.658970
Ba2   Ba    Ba6+2 0.655440 0.456220 0.541760 1.645214
C1    C     C_3   0.304143 0.778237 0.136416 0.335534
C2    C     C_3   0.347260 0.746564 0.227297 0.567018
C3    C     C_3   0.591317 0.733993 0.675755 0.323016
C4    C     C_3   0.627095 0.839215 0.697010 0.299309
C5    C     C_3   0.888911 0.208657 0.720859 0.342086
C6    C     C_3   0.874926 0.113025 0.745696 -0.393128
C7    C     C_3   0.434586 0.233770 0.775825 0.409418
C8    C     C_3   0.501509 0.199301 0.862608 0.302230
C9    C     C_R   0.632835 0.829511 0.452302 0.001887
C10   C     C_R   0.890503 0.791934 0.526502 0.039587
C11   C     C_R   0.080022 0.233668 0.520985 -0.282490
C12   C     C_3   0.838723 0.778439 0.251392 0.480264
C13   C     C_R   0.175916 0.174505 0.561552 0.005010
C14   C     C_R   0.107882 0.083817 0.564039 0.042771
C15   C     C_R   0.947034 0.046814 0.512931 0.041803
C16   C     C_R   0.851589 0.108871 0.470170 -0.056168
C17   C     C_R   0.875108 0.951384 0.503659 0.037217
C18   C     C_R   0.706003 0.922676 0.460554 -0.020941
C19   C     C_R   0.615703 0.986649 0.424224 -0.093552
C20   C     C_R   0.688723 0.075855 0.426372 -0.062474
C21   C     C_R   0.965502 0.882167 0.532644 -0.119251
C22   C     C_R   0.726434 0.765758 0.485277 -0.294208
C23   C     C_3   0.752083 0.839492 0.191615 -0.324903
C24   C     C_R   0.919901 0.202996 0.473399 -0.025860
C25   C     C_R   0.239740 0.463113 0.766779 -0.356141
C26   C     C_R   0.142976 0.425759 0.823417 -0.028821
C27   C     C_R   0.211363 0.428474 0.915407 0.321037
C28   C     C_R   0.364409 0.487494 0.954910 -0.009676
C29   C     C_R   0.446424 0.537021 0.895582 0.032698
C30   C     C_R   0.390558 0.518583 0.801529 0.027541
C31   C     C_R   0.608771 0.531484 0.088942 -0.137894
C32   C     C_R   0.673428 0.549687 0.181057 -0.011019
C33   C     C_R   0.413859 0.482230 0.212186 0.049502
C34   C     C_3   0.711546 0.219251 0.237435 0.793289
C35   C     C_R   0.340369 0.477967 0.121478 -0.142063
C36   C     C_R   0.437215 0.499582 0.055864 0.043204
C37   C     C_R   0.577243 0.522746 0.242085 -0.214374
C38   C     C_3   0.839554 0.153154 0.238036 -0.337031
C39   C     C_3   0.088952 0.656888 0.733922 0.311330
C40   C     C_3   0.173619 0.687817 0.830862 -0.428224
C41   C     C_3   0.227465 0.270159 0.345741 0.305740
C42   C     C_3   0.230997 0.166942 0.334194 -0.432857
H1    H     H_    0.248098 0.691146 0.232527 0.080608
H2    H     H_    0.865600 0.127425 0.302456 0.033169
H3    H     H_    0.792569 0.092910 0.185316 0.082317
H4    H     H_    0.955105 0.186274 0.221529 0.085294
H5    H     H_    0.172267 0.620493 0.697575 0.016505
H6    H     H_    0.972709 0.610156 0.732186 0.062253
H7    H     H_    0.305556 0.715146 0.834546 0.145602
H8    H     H_    0.162264 0.630891 0.871048 0.061577
H9    H     H_    0.115904 0.744560 0.859257 0.121715
H10   H     H_    0.102194 0.283774 0.353397 -0.006260
H11   H     H_    0.316694 0.300495 0.408096 0.089615
H12   H     H_    0.200025 0.136022 0.262397 0.132872
H13   H     H_    0.142816 0.131951 0.370653 0.074444
H14   H     H_    0.355284 0.153048 0.362576 0.144711
H15   H     H_    0.466316 0.719103 0.231020 -0.319932
H16   H     H_    0.298642 0.718503 0.083653 -0.064927
H17   H     H_    0.707887 0.708309 0.665309 -0.044668
H18   H     H_    0.498312 0.714789 0.612480 0.006963
H19   H     H_    0.736730 0.866314 0.669526 -0.068571
H20   H     H_    0.520343 0.867067 0.661432 0.046392
H21   H     H_    0.402656 0.833213 0.128955 0.002350
H22   H     H_    0.681159 0.882880 0.230601 0.081991
H23   H     H_    0.794340 0.208798 0.659972 0.107088
H24   H     H_    0.015093 0.226602 0.705905 -0.065540
H25   H     H_    0.755268 0.094519 0.767718 0.165797
H26   H     H_    0.881124 0.062697 0.687094 0.091810
H27   H     H_    0.979394 0.110550 0.800896 0.104714
H28   H     H_    0.297233 0.225822 0.766029 -0.104193
H29   H     H_    0.486035 0.307461 0.781698 -0.014787
H30   H     H_    0.476241 0.245273 0.919665 -0.053630
H31   H     H_    0.637869 0.202798 0.868284 0.054466
H32   H     H_    0.670020 0.695275 0.480527 0.074480
H33   H     H_    0.487416 0.968553 0.391618 0.117628
H34   H     H_    0.096469 0.893036 0.556048 0.144780
H35   H     H_    0.133673 0.304281 0.523660 0.063816
H36   H     H_    0.612823 0.119120 0.394015 0.117535
H37   H     H_    0.697140 0.539971 0.045135 0.107593
H38   H     H_    0.208759 0.456526 0.104839 0.157829
H39   H     H_    0.743010 0.741802 0.283001 -0.007087
H40   H     H_    0.631572 0.530592 0.312702 0.076618
H41   H     H_    0.191002 0.455116 0.695442 0.079970
H42   H     H_    0.843867 0.884610 0.164959 0.121860
H43   H     H_    0.666270 0.796283 0.133943 0.071849
O1    O     O_2   0.174040 0.723040 0.553850 -0.458101
O2    O     O_3   0.266360 0.305791 0.269400 -0.652260
O3    O     O_3   0.916923 0.719317 0.198360 -0.576252
O4    O     O_2   0.636250 0.276900 0.446120 -0.461482
O5    O     O_3   0.908740 0.390420 0.449120 -0.455541
O6    O     O_3   0.439970 0.334920 0.611710 -0.476690
O7    O     O_3   0.761006 0.298908 0.303377 -0.628538
O8    O     O_3   0.402050 0.547860 0.609740 -0.473500
O9    O     O_3   0.872650 0.381380 0.659100 -0.487792
O10   O     O_2   0.804258 0.436862 0.819348 -0.474238
O11   O     O_3   0.860711 0.269096 0.792917 -0.609230
O12   O     O_3   0.901550 0.609570 0.550800 -0.494715
O13   O     O_3   0.408230 0.452130 0.390190 -0.481475
O14   O     O_2   0.675480 0.547140 0.721810 -0.467027
O15   O     O_3   0.532830 0.697044 0.747059 -0.643100
O16   O     O_2   0.497209 0.176036 0.536698 -0.493718
O17   O     O_3   0.485616 0.183099 0.704692 -0.598303
O18   O     O_3   0.370320 0.665070 0.388210 -0.489290
O19   O     O_2   0.299292 0.825893 0.457886 -0.504146
O20   O     O_3   0.052580 0.734768 0.696904 -0.637776
O21   O     O_3   0.357776 0.820477 0.295430 -0.627069
O22   O     O_2   0.134800 0.452800 0.278160 -0.468767
O23   O     O_3   0.937630 0.618610 0.340820 -0.482959
O24   O     O_2   0.014909 0.560159 0.182175 -0.513095
P1    P     P_3+3 0.004160 0.709210 0.580280 0.979768
P2    P     P_3+3 0.305010 0.425580 0.290930 0.990331
P3    P     P_3+3 0.885288 0.608181 0.224348 0.943256
P4    P     P_3+3 0.806120 0.290780 0.419650 0.985112
P5    P     P_3+3 0.921988 0.380636 0.774980 0.981315
P6    P     P_3+3 0.415344 0.784788 0.399760 0.929035
P7    P     P_3+3 0.499546 0.577623 0.722578 0.944646
P8    P     P_3+3 0.397357 0.216763 0.604182 0.937203
O25   O     O_3   0.152919 0.813670 0.131377 -0.617235
C43   C     C_3   0.077784 0.811996 0.041094 0.287110
H44   H     H_    0.170481 0.822879 0.996815 -0.001559
H45   H     H_    0.005990 0.869934 0.037950 0.044306
C44   C     C_3   0.957815 0.722907 0.007374 -0.309711
H46   H     H_    0.845947 0.723585 0.038199 0.147773
H47   H     H_    0.914901 0.715341 0.934147 0.021536
H48   H     H_    0.017256 0.662542 0.022832 0.136487
O26   O     O_3   0.645259 0.872168 0.789737 -0.619063
C45   C     C_3   0.793983 0.852698 0.839292 0.296087
H49   H     H_    0.833385 0.788420 0.811012 0.049217
H50   H     H_    0.771266 0.843969 0.907591 0.049942
C46   C     C_3   0.935009 0.931137 0.848271 -0.375579
H51   H     H_    0.903134 0.994086 0.883884 0.108722
H52   H     H_    0.048687 0.913820 0.887643 0.063332
H53   H     H_    0.961293 0.942287 0.781187 0.140113
O27   O     O_3   0.423694 0.109253 0.862831 -0.638529
C47   C     C_3   0.513589 0.070950 0.932439 0.259784
H54   H     H_    0.540166 0.118014 0.997492 0.067498
H55   H     H_    0.632586 0.054960 0.914091 0.061046
C48   C     C_3   0.412923 0.982630 0.945890 -0.301950
H56   H     H_    0.376263 0.935318 0.881379 0.167205
H57   H     H_    0.488027 0.948798 0.995735 0.054018
H58   H     H_    0.300163 0.998139 0.971666 0.095379
N1    N     N_3   0.962407 0.835678 0.322217 -0.506803
H59   H     H_    0.018000 0.792536 0.362827 0.212955
H60   H     H_    0.055376 0.868653 0.293478 0.234012
N2    N     N_3   0.194819 0.034338 0.626664 -0.516212
H61   H     H_    0.208657 0.069629 0.691544 0.213864
H62   H     H_    0.311276 0.027534 0.610783 0.208218
O28   O     O_3   0.122062 0.378051 0.966595 -0.671159
C49   C     C_3   0.143000 0.284735 0.952515 0.255042
H63   H     H_    0.199763 0.265240 0.893427 0.014093
H64   H     H_    0.019285 0.242178 0.939903 0.095520
C50   C     C_3   0.242359 0.258711 0.036441 -0.375461
H65   H     H_    0.178404 0.272047 0.093991 0.133793
H66   H     H_    0.252975 0.184793 0.025433 0.096792
H67   H     H_    0.368768 0.298655 0.052439 0.136590
N3    N     N_3   0.577895 0.611253 0.930750 -0.522966
H68   H     H_    0.541572 0.672101 0.912905 0.181942
H69   H     H_    0.681333 0.598728 0.902805 0.192297
N4    N     N_3   0.554193 0.170919 0.249648 -0.516303
H70   H     H_    0.521626 0.110412 0.203865 0.138584
H71   H     H_    0.463912 0.211104 0.230803 0.215816
O29   O     O_3   0.684802 0.246145 0.149974 -0.682709
C51   C     C_3   0.799666 0.322698 0.141926 0.277457
H72   H     H_    0.778609 0.385116 0.183292 0.077844
H73   H     H_    0.930062 0.311796 0.162168 0.058290
C52   C     C_3   0.775476 0.340072 0.045230 -0.349202
H74   H     H_    0.864075 0.400373 0.038882 0.140800
H75   H     H_    0.796880 0.279320 0.001882 0.116141
H76   H     H_    0.647885 0.354221 0.023506 0.098020

loop_
_geom_bond_atom_site_label_1
_geom_bond_atom_site_label_2
_ccdc_geom_bond_type
C38   H3    S    
C11   H35   S    
C51   H72   S    
C5    O11   S    
O20   P1    S    
C33   C37   A    
C17   C18   A    
C16   C24   A    
C7    H28   S    
O26   C45   S    
Ba1   O12   S    
N4    H70   S    
C5    C6    S    
C38   H2    S    
C47   H55   S    
C10   C21   A    
C6    H25   S    
C41   O2    S    
Ba1   P2    S    
C14   N2    S    
O14   P7    D    
C26   C27   A    
N2    H62   S    
C35   C36   A    
C8    O27   S    
C37   H40   S    
C46   H53   S    
Ba1   P1    S    
C28   C29   A    
Ba2   P4    S    
C14   C15   A    
C13   C14   A    
O4    P4    D    
C9    C22   A    
C23   H43   S    
C28   C36   S    
Ba1   Ba2   S    
C39   C40   S    
C49   C50   S    
C4    H20   S    
C25   H41   S    
C24   P4    S    
C12   O3    S    
C43   C44   S    
C26   P5    S    
Ba1   O22   S    
C27   O28   S    
C52   H76   S    
N2    H61   S    
C42   H14   S    
C46   H51   S    
C49   H63   S    
C48   H58   S    
C7    C8    S    
O23   P3    S    
C50   H66   S    
O15   P7    S    
O22   P2    D    
C40   H7    S    
O17   P8    S    
C1    H16   S    
Ba1   O1    S    
C52   H75   S    
C5    H24   S    
Ba2   O13   S    
C51   H73   S    
C19   C20   A    
C49   H64   S    
N3    H69   S    
O18   P6    S    
C1    H21   S    
C7    H29   S    
C12   H39   S    
Ba1   O13   S    
C39   H5    S    
N4    H71   S    
Ba1   O18   S    
C15   C16   A    
O2    P2    S    
C2    H1    S    
O8    P7    S    
C47   C48   S    
C12   N1    S    
C9    C18   A    
O13   P2    S    
C32   C37   A    
C34   C38   S    
C48   H56   S    
C50   H67   S    
N1    H60   S    
C22   H32   S    
Ba2   O14   S    
C5    H23   S    
C4    H19   S    
C17   C21   A    
C41   C42   S    
C27   C28   A    
Ba1   O23   S    
C2    O21   S    
C8    H31   S    
C42   H12   S    
C41   H10   S    
O11   P5    S    
C29   C30   A    
C42   H13   S    
Ba1   O8    S    
C31   C32   A    
C50   H65   S    
C3    H17   S    
O10   P5    D    
Ba2   O5    S    
C43   H44   S    
C44   H48   S    
C41   H11   S    
C52   H74   S    
Ba2   O12   S    
Ba1   O5    S    
C11   C13   A    
O19   P6    D    
C34   N4    S    
C35   H38   S    
C32   P3    S    
C1    C2    S    
C9    P6    S    
C39   H6    S    
C10   P1    S    
O25   C43   S    
C44   H47   S    
C45   H49   S    
C38   H4    S    
C3    O15   S    
O29   C51   S    
C6    H27   S    
C39   O20   S    
C33   C35   A    
C25   C30   A    
C16   C20   A    
O21   P6    S    
Ba2   O6    S    
O16   P8    D    
C23   H22   S    
C30   P7    S    
N1    H59   S    
Ba2   O8    S    
O7    P4    S    
C48   H57   S    
C51   C52   S    
C47   H54   S    
C10   C22   A    
C6    H26   S    
C31   C36   A    
C45   C46   S    
Ba2   O9    S    
C20   H36   S    
C40   H9    S    
C12   C23   S    
C8    H30   S    
C3    C4    S    
C7    O17   S    
O12   P1    S    
C2    H15   S    
C23   H42   S    
C15   C17   A    
C13   P8    S    
C3    H18   S    
C33   P2    S    
O24   P3    D    
N3    H68   S    
O3    P3    S    
C21   H34   S    
Ba2   O4    S    
C11   C24   A    
O5    P4    S    
C43   H45   S    
C29   N3    S    
C1    O25   S    
C4    O26   S    
O1    P1    D    
C34   O7    S    
C18   C19   A    
C46   H52   S    
C19   H33   S    
C25   C26   A    
C34   O29   S    
O28   C49   S    
O9    P5    S    
O6    P8    S    
C31   H37   S    
O27   C47   S    
C40   H8    S    
C44   H46   S    
C45   H50   S    
