data_mof_unit_46786.cif
_audit_creation_date              2012-12-10T18:03:58-0500
_audit_creation_method            fapswitch 2.2
_symmetry_space_group_name_H-M    P1
_symmetry_Int_Tables_number       1
_space_group_crystal_system       triclinic
_cell_length_a                    10.832564
_cell_length_b                    9.534633
_cell_length_c                    10.925904
_cell_angle_alpha                 89.998807
_cell_angle_beta                  91.207408
_cell_angle_gamma                 89.999937
_cell_volume                      1128.22621523

loop_
_atom_site_label
_atom_site_type_symbol
_atom_type_description
_atom_site_fract_x
_atom_site_fract_y
_atom_site_fract_z
_atom_type_partial_charge
C1    C     C_R   0.262112 0.499975 0.499948 0.804339
C2    C     C_R   0.737888 0.499975 0.500051 0.804352
C3    C     C_R   0.418346 0.072828 0.427042 0.461219
C4    C     C_R   0.581659 0.072824 0.572952 0.461247
C5    C     C_R   0.419134 0.924640 0.427178 -0.077554
C6    C     C_R   0.580869 0.924636 0.572819 -0.077553
C7    C     C_R   0.504002 0.499096 0.262752 0.870967
C8    C     C_R   0.496008 0.499092 0.737250 0.870945
C9    C     C_R   0.501659 0.616334 0.061657 0.015739
C10   C     C_R   0.498354 0.616332 0.938340 0.015743
C11   C     C_R   0.506652 0.493948 0.130086 -0.241775
C12   C     C_R   0.493404 0.493940 0.869918 -0.241788
C13   C     C_R   0.508728 0.364773 0.064109 0.354938
C14   C     C_R   0.491412 0.364764 0.935906 0.354963
C15   C     C_3   0.498194 0.772322 0.929498 -0.321500
C16   C     C_3   0.501607 0.772324 0.070486 -0.321526
C17   C     C_R   0.063838 0.372626 0.500199 -0.129580
C18   C     C_R   0.936162 0.372625 0.499778 -0.129552
C19   C     C_R   0.871757 0.500036 0.499953 -0.029949
C20   C     C_R   0.128243 0.500036 0.500045 -0.029954
C21   C     C_R   0.936135 0.627503 0.500067 -0.167654
C22   C     C_R   0.063864 0.627503 0.499951 -0.167666
Cu1   Cu    Cu3+1 0.500000 0.640660 0.500000 0.963973
Cu2   Cu    Cu3+1 0.500000 0.359340 0.500000 1.097085
H1    H     H_    0.583908 0.813643 0.888458 0.216110
H2    H     H_    0.415835 0.813489 0.111516 0.216008
H3    H     H_    0.410445 0.813689 0.889164 0.219539
H4    H     H_    0.589293 0.813848 0.110821 0.219653
H5    H     H_    0.111747 0.272950 0.500657 0.192448
H6    H     H_    0.888253 0.272950 0.499302 0.192456
H7    H     H_    0.888107 0.727159 0.500181 0.165858
H8    H     H_    0.111892 0.727159 0.499854 0.165853
H9    H     H_    0.354623 0.867550 0.368910 0.165574
H10   H     H_    0.645384 0.867543 0.631082 0.165584
N1    N     N_R   0.500000 0.852070 0.500000 -0.216605
N2    N     N_R   0.500000 0.147940 0.500000 -0.224189
O1    O     O_R   0.319640 0.618740 0.499990 -0.601647
O2    O     O_R   0.680360 0.618740 0.500010 -0.601645
O3    O     O_R   0.319620 0.381170 0.499990 -0.545987
O4    O     O_R   0.680380 0.381170 0.500010 -0.545965
O5    O     O_R   0.499990 0.618810 0.319660 -0.594918
O6    O     O_R   0.500010 0.618810 0.680340 -0.594916
O7    O     O_R   0.499960 0.381240 0.319650 -0.496909
O8    O     O_R   0.500040 0.381240 0.680350 -0.496930
Cl1   Cl    Cl    0.542820 0.200939 0.134468 -0.501962
Cl2   Cl    Cl    0.457386 0.200903 0.865570 -0.501937
Cl3   Cl    Cl    0.309066 0.155049 0.330250 -0.567484
Cl4   Cl    Cl    0.690965 0.155037 0.669719 -0.567451

loop_
_geom_bond_atom_site_label_1
_geom_bond_atom_site_label_2
_ccdc_geom_bond_type
C16   H4    S    
C7    C11   S    
Cu1   Cu2   S    
C4    N2    A    
C18   H6    S    
C7    O7    A    
Cu1   O2    S    
C21   H7    S    
C9    C10   A    
C5    N1    A    
C15   H3    S    
Cu1   O5    S    
C1    O1    A    
C8    C12   S    
C17   C20   A    
C17   C18   A    
C20   C22   A    
C14   Cl2   S    
Cu1   O1    S    
C21   C22   A    
C13   Cl1   S    
C9    C11   A    
C8    O8    A    
Cu2   N2    S    
Cu1   O6    S    
C22   H8    S    
C3    N2    A    
C10   C12   A    
C3    Cl3   S    
Cu2   O4    S    
C9    C16   S    
C12   C14   A    
Cu1   N1    S    
C10   C15   S    
C7    O5    A    
C16   H2    S    
Cu2   O8    S    
C15   H1    S    
C1    O3    A    
C15   C16   S    
C2    O4    A    
C11   C13   A    
Cu2   O3    S    
C17   H5    S    
C6    N1    A    
C4    C6    A    
C18   C19   A    
C4    Cl4   S    
Cu2   O7    S    
C2    O2    A    
C1    C20   S    
C19   C21   A    
C2    C19   S    
C13   C14   A    
C6    H10   S    
C8    O6    A    
C3    C5    A    
C5    H9    S    
