data_mof_unit_60081.cif
_audit_creation_date              2012-12-10T16:38:38-0500
_audit_creation_method            fapswitch 2.2
_symmetry_space_group_name_H-M    P1
_symmetry_Int_Tables_number       1
_space_group_crystal_system       triclinic
_cell_length_a                    19.012151
_cell_length_b                    18.790056
_cell_length_c                    19.105394
_cell_angle_alpha                 109.13111
_cell_angle_beta                  109.635521
_cell_angle_gamma                 108.928905
_cell_volume                      5299.93293334

loop_
_atom_site_label
_atom_site_type_symbol
_atom_type_description
_atom_site_fract_x
_atom_site_fract_y
_atom_site_fract_z
_atom_type_partial_charge
C1    C     C_R   0.386487 0.882439 0.003394 0.838346
C2    C     C_R   0.613299 0.117264 0.996084 0.834719
C3    C     C_2   0.332046 0.814833 0.012058 -0.325636
C4    C     C_2   0.667560 0.180874 0.983218 -0.316544
C5    C     C_R   0.996240 0.117675 0.613157 0.841387
C6    C     C_R   0.003832 0.882347 0.386894 0.864212
C7    C     C_R   0.882838 0.003941 0.386502 0.846798
C8    C     C_R   0.116987 0.004242 0.621398 0.845739
C9    C     C_R   0.999964 0.618460 0.116622 0.749009
C10   C     C_R   0.999913 0.381387 0.883364 0.750662
C11   C     C_R   0.116769 0.618738 0.000620 0.833732
C12   C     C_R   0.883242 0.384111 0.002229 0.795604
C13   C     C_2   0.927777 0.250295 0.746830 -0.310844
C14   C     C_2   0.072095 0.750254 0.252339 -0.298653
C15   C     C_2   0.999967 0.310364 0.821199 0.223851
C16   C     C_2   0.999509 0.689025 0.178792 0.229943
C17   C     C_2   0.924070 0.174711 0.684699 0.461663
C18   C     C_2   0.075607 0.825761 0.314344 0.459016
C19   C     C_2   0.990226 0.186522 0.669979 -0.247661
C20   C     C_2   0.010135 0.813596 0.330251 -0.252926
C21   C     C_R   0.619063 0.000776 0.116553 0.797718
C22   C     C_R   0.381259 0.998790 0.882678 0.796933
C23   C     C_2   0.831394 0.069828 0.303498 -0.173423
C24   C     C_2   0.168402 0.974429 0.739345 -0.174831
C25   C     C_2   0.815855 0.013385 0.331919 -0.298601
C26   C     C_2   0.183537 0.018423 0.698614 -0.297753
C27   C     C_2   0.759866 0.074138 0.245103 0.228977
C28   C     C_2   0.240007 0.988185 0.815098 0.225787
C29   C     C_2   0.688837 0.999634 0.178669 0.036831
C30   C     C_2   0.312813 0.994425 0.813704 0.039298
C31   C     C_2   0.245607 0.759193 0.071759 0.214683
C32   C     C_2   0.752800 0.327758 0.012522 0.227773
C33   C     C_2   0.179507 0.687006 0.998541 0.041587
C34   C     C_2   0.820716 0.320598 0.009249 0.034665
C35   C     C_2   0.303383 0.830971 0.067415 -0.166582
C36   C     C_2   0.694553 0.265334 0.025909 -0.173512
Cu1   Cu    Cu3+1 0.500010 0.938980 0.938990 0.941911
Cu2   Cu    Cu3+1 0.499990 0.061020 0.061010 0.961752
Cu3   Cu    Cu3+1 0.061010 0.061020 0.499990 0.989904
Cu4   Cu    Cu3+1 0.938990 0.938980 0.500010 0.988906
Cu5   Cu    Cu3+1 0.061030 0.500010 0.061020 0.944748
Cu6   Cu    Cu3+1 0.938970 0.499990 0.938980 0.960626
H1    H     H_    0.896721 0.113750 0.323523 0.168243
H2    H     H_    0.103351 0.927764 0.717162 0.168558
H3    H     H_    0.041549 0.251615 0.697788 0.143860
H4    H     H_    0.959611 0.748368 0.303479 0.143629
H5    H     H_    0.751054 0.973954 0.316821 0.185217
H6    H     H_    0.247729 0.069519 0.724505 0.185862
H7    H     H_    0.323143 0.897037 0.110377 0.173900
H8    H     H_    0.673534 0.289139 0.070443 0.168273
H9    H     H_    0.317438 0.749461 0.973284 0.182904
H10   H     H_    0.683485 0.156554 0.934157 0.184215
H11   H     H_    0.868943 0.253528 0.733175 0.125939
H12   H     H_    0.131366 0.748113 0.265180 0.130042
O1    O     O_R   0.410990 0.859440 0.948490 -0.589524
O2    O     O_R   0.589010 0.140560 0.051510 -0.586202
O3    O     O_R   0.948450 0.589020 0.037490 -0.583918
O4    O     O_R   0.051550 0.410980 0.962510 -0.583737
O5    O     O_R   0.140550 0.589040 0.051520 -0.597124
O6    O     O_R   0.859450 0.410960 0.948480 -0.574292
O7    O     O_R   0.037480 0.589020 0.948460 -0.582269
O8    O     O_R   0.962520 0.410980 0.051540 -0.585534
O9    O     O_R   0.410980 0.962500 0.051530 -0.585572
O10   O     O_R   0.589020 0.037500 0.948470 -0.588864
O11   O     O_R   0.589050 0.948480 0.037510 -0.587886
O12   O     O_R   0.410950 0.051520 0.962490 -0.576007
O13   O     O_R   0.589030 0.051540 0.140550 -0.575288
O14   O     O_R   0.410970 0.948460 0.859450 -0.588649
O15   O     O_R   0.051510 0.140560 0.589010 -0.613979
O16   O     O_R   0.948490 0.859440 0.410990 -0.606885
O17   O     O_R   0.948470 0.037500 0.589020 -0.524739
O18   O     O_R   0.051530 0.962500 0.410980 -0.517437
O19   O     O_R   0.962480 0.051520 0.410960 -0.592267
O20   O     O_R   0.037520 0.948480 0.589040 -0.593733
O21   O     O_R   0.859440 0.948460 0.410980 -0.580869
O22   O     O_R   0.140560 0.051540 0.589020 -0.581410
O23   O     O_R   0.051520 0.589040 0.140540 -0.594567
O24   O     O_R   0.948480 0.410960 0.859460 -0.596068
O25   O     O_3   0.071034 0.298669 0.843706 -0.738282
H13   H     H_    0.120484 0.351730 0.895847 0.333767
O26   O     O_3   0.927440 0.699073 0.156838 -0.736786
H14   H     H_    0.878154 0.645313 0.105275 0.330749
O27   O     O_3   0.852462 0.094137 0.640004 -0.713850
H15   H     H_    0.811539 0.098709 0.660130 0.317086
O28   O     O_3   0.146397 0.906738 0.357617 -0.711344
H16   H     H_    0.186835 0.902388 0.336689 0.316708
N1    N     N_2   0.768197 0.156138 0.255290 -0.418906
H17   H     H_    0.750677 0.160540 0.200214 0.246759
C37   C     C_3   0.840960 0.234202 0.330424 -0.676948
H18   H     H_    0.831778 0.290364 0.333564 0.228078
H19   H     H_    0.900501 0.244178 0.327389 0.213421
H20   H     H_    0.846874 0.230815 0.388968 0.240769
N2    N     N_2   0.229619 0.987722 0.886011 -0.423249
H21   H     H_    0.247931 0.949529 0.907519 0.245480
C38   C     C_3   0.154965 0.988666 0.889313 -0.658408
H22   H     H_    0.162599 0.999702 0.952804 0.229107
H23   H     H_    0.096709 0.925680 0.839855 0.212850
H24   H     H_    0.147779 0.041830 0.880135 0.246833
N3    N     N_2   0.687683 0.918788 0.158285 -0.435770
H25   H     H_    0.704242 0.899854 0.111934 0.270622
C39   C     C_3   0.612445 0.850054 0.144017 -0.690387
H26   H     H_    0.623174 0.794484 0.139767 0.235416
H27   H     H_    0.555580 0.828097 0.083497 0.231551
H28   H     H_    0.599910 0.872188 0.197812 0.225994
N4    N     N_2   0.316873 0.978250 0.737001 -0.439209
H29   H     H_    0.302161 0.915501 0.701402 0.268067
C40   C     C_3   0.392708 0.041483 0.746413 -0.687830
H30   H     H_    0.384361 0.028677 0.682364 0.237090
H31   H     H_    0.449981 0.037710 0.781758 0.231197
H32   H     H_    0.402960 0.107607 0.780772 0.225504
N5    N     N_2   0.257153 0.767307 0.152591 -0.434067
H33   H     H_    0.278473 0.727715 0.167974 0.267124
C41   C     C_3   0.297235 0.852858 0.223896 -0.709796
H34   H     H_    0.292757 0.847501 0.278600 0.225997
H35   H     H_    0.263722 0.888272 0.206698 0.237826
H36   H     H_    0.365916 0.889156 0.243695 0.230128
N6    N     N_2   0.741059 0.398580 0.009370 -0.421513
H37   H     H_    0.795467 0.458299 0.047204 0.237558
C42   C     C_3   0.663959 0.399952 0.004647 -0.670884
H38   H     H_    0.659925 0.452232 0.991448 0.229452
H39   H     H_    0.665256 0.412778 0.066222 0.214529
H40   H     H_    0.606484 0.337692 0.952033 0.239588
N7    N     N_2   0.158609 0.684534 0.918263 -0.437982
H41   H     H_    0.111762 0.701161 0.898756 0.268993
C43   C     C_3   0.144513 0.607805 0.851333 -0.709062
H42   H     H_    0.139317 0.617251 0.795776 0.234523
H43   H     H_    0.084312 0.550785 0.830407 0.233831
H44   H     H_    0.199073 0.595529 0.873879 0.225070
N8    N     N_2   0.842172 0.260907 0.029308 -0.441383
H45   H     H_    0.888358 0.288668 0.091973 0.265423
C44   C     C_3   0.857914 0.206754 0.969471 -0.681558
H46   H     H_    0.862960 0.156026 0.985040 0.233427
H47   H     H_    0.918684 0.245397 0.973195 0.239416
H48   H     H_    0.804254 0.174687 0.903386 0.223646

loop_
_geom_bond_atom_site_label_1
_geom_bond_atom_site_label_2
_ccdc_geom_bond_type
N1    H17   S    
C4    C36   D    
N2    H21   S    
Cu4   O17   S    
C27   C29   D    
C8    C26   S    
Cu5   Cu6   S    
C14   C18   S    
C38   H22   S    
C32   N6    S    
C44   H48   S    
O26   H14   S    
C10   O24   A    
C38   H24   S    
N7    H41   S    
C7    O19   A    
O28   H16   S    
C6    O18   A    
N4    C40   S    
C39   H26   S    
Cu4   O16   S    
C4    H10   S    
C32   C36   S    
C10   O4    A    
C9    C16   S    
C24   C26   D    
Cu5   O4    S    
N8    H45   S    
C10   C15   S    
N6    C42   S    
Cu5   O23   S    
N7    C43   S    
Cu1   O14   S    
C8    O22   A    
C23   H1    S    
C22   O12   A    
C5    O15   A    
Cu2   O9    S    
C15   O25   S    
O27   H15   S    
C34   N8    S    
Cu1   O11   S    
C35   H7    S    
C43   H44   S    
Cu3   O18   S    
C31   C33   D    
C23   C27   S    
C37   H19   S    
C25   H5    S    
C18   C20   D    
C26   H6    S    
C41   H36   S    
C21   O11   A    
C23   C25   D    
C39   H27   S    
C21   O13   A    
C40   H31   S    
Cu5   O8    S    
C11   O5    A    
C1    O9    A    
Cu6   O3    S    
C2    O10   A    
C13   H11   S    
C42   H39   S    
C18   O28   S    
C29   N3    S    
Cu2   O12   S    
C11   C33   S    
Cu5   O5    S    
Cu6   O6    S    
Cu3   Cu4   S    
C3    H9    S    
C7    O21   A    
C44   H47   S    
C21   C29   S    
C41   H35   S    
C28   N2    S    
C1    C3    S    
C32   C34   D    
C2    C4    S    
Cu1   Cu2   S    
C12   O8    A    
N3    H25   S    
C3    C35   D    
C40   H30   S    
C8    O20   A    
Cu3   O15   S    
N5    C41   S    
C9    O23   A    
Cu3   O22   S    
C37   H20   S    
C27   N1    S    
Cu6   O7    S    
C22   O14   A    
C14   H12   S    
Cu6   O24   S    
C39   H28   S    
C13   C15   D    
C30   N4    S    
C43   H42   S    
C24   H2    S    
C40   H32   S    
C14   C16   D    
C12   C34   S    
C44   H46   S    
Cu1   O10   S    
C36   H8    S    
C43   H43   S    
C41   H34   S    
C42   H40   S    
C6    O16   A    
C38   H23   S    
C22   C30   S    
N5    H33   S    
N3    C39   S    
C24   C28   S    
C11   O7    A    
C42   H38   S    
C19   H3    S    
Cu1   O1    S    
C5    C19   S    
C6    C20   S    
N4    H29   S    
C7    C25   S    
Cu4   O21   S    
C13   C17   S    
C28   C30   D    
C1    O1    A    
C5    O17   A    
C2    O2    A    
N6    H37   S    
C31   C35   S    
C16   O26   S    
C17   C19   D    
Cu4   O20   S    
C9    O3    A    
Cu3   O19   S    
O25   H13   S    
C12   O6    A    
Cu2   O2    S    
Cu2   O13   S    
N2    C38   S    
C33   N7    S    
N1    C37   S    
C31   N5    S    
C17   O27   S    
C37   H18   S    
C20   H4    S    
N8    C44   S    
