data_mof_unit_56503.cif
_audit_creation_date              2012-12-10T17:40:58-0500
_audit_creation_method            fapswitch 2.2
_symmetry_space_group_name_H-M    P1
_symmetry_Int_Tables_number       1
_space_group_crystal_system       triclinic
_cell_length_a                    14.583604
_cell_length_b                    15.733687
_cell_length_c                    9.915072
_cell_angle_alpha                 90.702166
_cell_angle_beta                  88.373572
_cell_angle_gamma                 89.947223
_cell_volume                      2273.9623945

loop_
_atom_site_label
_atom_site_type_symbol
_atom_type_description
_atom_site_fract_x
_atom_site_fract_y
_atom_site_fract_z
_atom_type_partial_charge
C1    C     C_R   0.385065 0.875522 0.501523 0.873023
C2    C     C_R   0.383329 0.123333 0.503222 0.882487
C3    C     C_R   0.885066 0.375521 0.501522 0.873026
C4    C     C_R   0.883323 0.623328 0.503224 0.882487
C5    C     C_R   0.303813 0.235554 0.391412 -0.216815
C6    C     C_R   0.288670 0.776173 0.383254 -0.208775
C7    C     C_R   0.803833 0.735572 0.391442 -0.216832
C8    C     C_R   0.788655 0.276188 0.383253 -0.208782
C9    C     C_R   0.733733 0.793137 0.385083 -0.209410
C10   C     C_R   0.716589 0.220628 0.381429 -0.216144
C11   C     C_R   0.233705 0.293111 0.385053 -0.209336
C12   C     C_R   0.216605 0.720613 0.381424 -0.216128
C13   C     C_R   0.672529 0.802619 0.494691 -0.125741
C14   C     C_R   0.672099 0.198472 0.502331 -0.132958
C15   C     C_R   0.172522 0.302610 0.494689 -0.125711
C16   C     C_R   0.172095 0.698474 0.502322 -0.132984
C17   C     C_R   0.322322 0.986180 0.133972 -0.024572
C18   C     C_R   0.822331 0.486118 0.133971 -0.024565
C19   C     C_R   0.245712 0.972719 0.053774 -0.308552
C20   C     C_R   0.745730 0.472607 0.053776 -0.308562
C21   C     C_R   0.252437 0.976661 0.916264 0.010875
C22   C     C_R   0.752449 0.476562 0.916265 0.010884
C23   C     C_R   0.336716 0.990493 0.855757 -0.192913
C24   C     C_R   0.836719 0.490442 0.855759 -0.192950
C25   C     C_R   0.417861 0.994493 0.928255 0.050520
C26   C     C_R   0.917864 0.494458 0.928254 0.050530
C27   C     C_R   0.415104 0.993788 0.073733 0.110448
C28   C     C_R   0.915107 0.493754 0.073731 0.110470
C29   C     C_R   0.578514 0.006691 0.068886 -0.193047
C30   C     C_R   0.078507 0.506745 0.068895 -0.193201
C31   C     C_R   0.613448 0.125092 0.500305 0.880641
C32   C     C_R   0.614444 0.875880 0.498204 0.877915
C33   C     C_R   0.113447 0.625092 0.500303 0.880686
C34   C     C_R   0.114440 0.375876 0.498204 0.877928
C35   C     C_R   0.579016 0.005678 0.925496 0.253611
C36   C     C_R   0.079013 0.505736 0.925508 0.253725
C37   C     C_R   0.278751 0.180573 0.760339 -0.189570
C38   C     C_R   0.322306 0.787260 0.758543 -0.161842
C39   C     C_R   0.778671 0.680494 0.760310 -0.189574
C40   C     C_R   0.822360 0.287213 0.758521 -0.161820
C41   C     C_R   0.210852 0.183485 0.862479 -0.155685
C42   C     C_R   0.271776 0.772506 0.877497 -0.144902
C43   C     C_R   0.710746 0.683377 0.862408 -0.155747
C44   C     C_R   0.771860 0.272424 0.877490 -0.144839
C45   C     C_R   0.623310 0.711983 0.834330 -0.146010
C46   C     C_R   0.680197 0.249324 0.871450 -0.178667
C47   C     C_R   0.123400 0.212062 0.834423 -0.145734
C48   C     C_R   0.180114 0.749404 0.871426 -0.178651
C49   C     C_R   0.607155 0.746678 0.708782 -0.165042
C50   C     C_R   0.642576 0.231300 0.746764 -0.143088
C51   C     C_R   0.107200 0.246699 0.708842 -0.165361
C52   C     C_R   0.142524 0.731344 0.746730 -0.142955
C53   C     C_R   0.678406 0.751375 0.609383 0.100290
C54   C     C_R   0.697135 0.235986 0.626400 0.112053
C55   C     C_R   0.178429 0.251386 0.609405 0.100048
C56   C     C_R   0.197108 0.736008 0.626387 0.112050
C57   C     C_R   0.259862 0.206684 0.627384 0.115114
C58   C     C_R   0.281883 0.776991 0.630732 0.104695
C59   C     C_R   0.759824 0.706651 0.627369 0.115065
C60   C     C_R   0.781911 0.276967 0.630727 0.104694
C61   C     C_R   0.317782 0.191911 0.511073 -0.115601
C62   C     C_R   0.321500 0.805455 0.506499 -0.122686
C63   C     C_R   0.817770 0.691901 0.511081 -0.115616
C64   C     C_R   0.821504 0.305452 0.506493 -0.122687
H1    H     H_    0.348504 0.226593 0.303127 0.164768
H2    H     H_    0.319105 0.795517 0.287482 0.165510
H3    H     H_    0.848543 0.726627 0.303179 0.164780
H4    H     H_    0.819074 0.295545 0.287480 0.165524
H5    H     H_    0.335874 0.999438 0.750452 0.229423
H6    H     H_    0.835870 0.499424 0.750462 0.229400
H7    H     H_    0.346153 0.162401 0.790786 0.169399
H8    H     H_    0.393178 0.804448 0.769542 0.156665
H9    H     H_    0.846061 0.662310 0.790785 0.169412
H10   H     H_    0.893230 0.304412 0.769495 0.156650
H11   H     H_    0.225945 0.162596 0.963093 0.149752
H12   H     H_    0.302884 0.782180 0.974354 0.140162
H13   H     H_    0.725807 0.662450 0.963009 0.149791
H14   H     H_    0.802989 0.282078 0.974337 0.140153
H15   H     H_    0.569411 0.711273 0.911647 0.138564
H16   H     H_    0.639127 0.242602 0.963362 0.134926
H17   H     H_    0.069521 0.211370 0.911775 0.138554
H18   H     H_    0.139023 0.742703 0.963323 0.134917
H19   H     H_    0.539536 0.771180 0.690411 0.137344
H20   H     H_    0.570954 0.213537 0.745722 0.153413
H21   H     H_    0.039572 0.271181 0.690483 0.137405
H22   H     H_    0.070904 0.713571 0.745663 0.153377
H23   H     H_    0.728730 0.831470 0.295487 0.166744
H24   H     H_    0.696778 0.194160 0.285133 0.165261
H25   H     H_    0.228681 0.331425 0.295437 0.166717
H26   H     H_    0.196811 0.694130 0.285127 0.165250
H27   H     H_    0.642377 0.012622 0.121126 0.149981
H28   H     H_    0.142361 0.512731 0.121142 0.149923
H29   H     H_    0.177393 0.963926 0.098788 0.155852
H30   H     H_    0.677417 0.463786 0.098793 0.155855
N1    N     N_R   0.498810 1.000000 0.142780 -0.126944
N2    N     N_R   0.998810 0.500000 0.142780 -0.126917
N3    N     N_R   0.498740 1.000000 0.857170 -0.137758
N4    N     N_R   0.998740 0.500000 0.857170 -0.137730
O1    O     O_R   0.408390 0.908380 0.614690 -0.661090
O2    O     O_R   0.408390 0.091620 0.614690 -0.669629
O3    O     O_R   0.908390 0.408380 0.614690 -0.661068
O4    O     O_R   0.908390 0.591620 0.614690 -0.669645
O5    O     O_R   0.408370 0.908380 0.385360 -0.620899
O6    O     O_R   0.408370 0.091620 0.385360 -0.618232
O7    O     O_R   0.908370 0.408380 0.385360 -0.620911
O8    O     O_R   0.908370 0.591620 0.385360 -0.618220
O9    O     O_R   0.591620 0.091610 0.614640 -0.607665
O10   O     O_R   0.591620 0.908390 0.614640 -0.596985
O11   O     O_R   0.091620 0.591610 0.614640 -0.607502
O12   O     O_R   0.091620 0.408390 0.614640 -0.597251
O13   O     O_R   0.591610 0.091610 0.385310 -0.623816
O14   O     O_R   0.591610 0.908390 0.385310 -0.619933
O15   O     O_R   0.091610 0.591610 0.385310 -0.623834
O16   O     O_R   0.091610 0.408390 0.385310 -0.619895
Zn1   Zn    Zn3+2 0.500010 1.000000 0.653130 0.932263
Zn2   Zn    Zn3+2 0.000010 0.500000 0.653130 0.932272
Zn3   Zn    Zn3+2 0.499980 1.000000 0.346870 0.944465
Zn4   Zn    Zn3+2 0.999980 0.500000 0.346870 0.944481
C65   C     C_1   0.171542 0.969815 0.836330 0.200883
N5    N     N_1   0.106774 0.964345 0.772025 -0.205236
C66   C     C_1   0.671554 0.469700 0.836334 0.200880
N6    N     N_1   0.606786 0.464215 0.772032 -0.205257
N7    N     N_2   0.663292 0.013583 0.851683 -0.253000
H31   H     H_    0.695940 0.070194 0.871716 0.220898
C67   C     C_3   0.724988 0.942155 0.862638 -0.751139
H32   H     H_    0.782921 0.948926 0.788485 0.243311
H33   H     H_    0.688937 0.881907 0.840609 0.269779
H34   H     H_    0.752949 0.939562 0.965592 0.206175
N8    N     N_2   0.163292 0.513773 0.851739 -0.253025
H35   H     H_    0.195940 0.570339 0.872108 0.220767
C68   C     C_3   0.224990 0.442326 0.862434 -0.750938
H36   H     H_    0.283226 0.449474 0.788881 0.243050
H37   H     H_    0.189077 0.382157 0.839367 0.270116
H38   H     H_    0.252521 0.439261 0.965632 0.206174
C69   C     C_1   0.288127 0.997535 0.270039 0.296659
N9    N     N_1   0.252998 0.005154 0.375874 -0.219486
C70   C     C_1   0.788128 0.497525 0.270025 0.296639
N10   N     N_1   0.752993 0.505180 0.375850 -0.219490

loop_
_geom_bond_atom_site_label_1
_geom_bond_atom_site_label_2
_ccdc_geom_bond_type
C58   C62   A    
C40   C60   A    
C23   H5    S    
C13   C32   S    
C27   N1    A    
C14   C31   S    
C68   H38   S    
C1    C62   S    
C51   H21   S    
C53   C59   A    
C24   H6    S    
C69   N9    T    
C54   C60   A    
C3    C64   S    
N1    Zn3   S    
C4    C63   S    
C10   H24   S    
C50   C54   A    
C6    H2    S    
O10   Zn1   S    
N2    Zn4   S    
C19   C21   A    
C24   C26   A    
C5    C11   A    
O1    Zn1   S    
O14   Zn3   S    
N7    C67   S    
C9    C13   A    
C30   N2    A    
O11   Zn2   S    
C38   C58   A    
C11   C15   A    
C12   C16   A    
C40   H10   S    
C4    O4    A    
C17   C69   S    
C67   H34   S    
C42   H12   S    
C45   C49   A    
N3    Zn1   S    
C1    O5    A    
C15   C34   S    
C18   C20   A    
C19   H29   S    
C2    C61   S    
C3    O3    A    
C39   H9    S    
C2    O2    A    
O8    Zn4   S    
C1    O1    A    
O5    Zn3   S    
O2    Zn1   S    
C6    C12   A    
C26   C28   A    
C44   C46   A    
C46   C50   A    
C13   C53   A    
C56   C58   A    
C21   C23   A    
C34   O16   A    
C38   H8    S    
C59   C63   A    
C50   H20   S    
C17   C27   A    
N7    H31   S    
C18   C28   A    
C5    H1    S    
C10   C14   A    
C29   N1    A    
C39   C43   A    
C4    O8    A    
C3    O7    A    
C60   C64   A    
C15   C55   A    
C18   C70   S    
C44   H14   S    
C16   C56   A    
C16   C33   S    
C41   H11   S    
C11   H25   S    
N4    Zn2   S    
C2    O6    A    
C39   C59   A    
C41   C47   A    
C5    C61   A    
C45   H15   S    
C55   C57   A    
C42   C48   A    
C43   C45   A    
C7    C63   A    
C66   N6    T    
O16   Zn4   S    
C8    C64   A    
C30   H28   S    
C14   C54   A    
C26   N4    A    
C8    H4    S    
C37   H7    S    
C67   H32   S    
C34   O12   A    
C22   C24   A    
O7    Zn4   S    
C43   H13   S    
C40   C44   A    
C68   H36   S    
O12   Zn2   S    
C29   H27   S    
C22   C66   S    
O6    Zn3   S    
C25   N3    A    
C7    C9    A    
C20   H30   S    
C32   O14   A    
C31   O9    A    
C20   C22   A    
C68   H37   S    
C12   H26   S    
C47   C51   A    
C65   N5    T    
C57   C61   A    
C30   C36   A    
C25   C27   A    
C70   N10   T    
C29   C35   A    
C33   O15   A    
O13   Zn3   S    
C28   N2    A    
C6    C62   A    
C35   N7    S    
N8    H35   S    
C21   C65   S    
C36   N8    S    
C9    H23   S    
C46   H16   S    
C49   H19   S    
C49   C53   A    
C52   H22   S    
C17   C19   A    
C48   H18   S    
O9    Zn1   S    
C51   C55   A    
C47   H17   S    
C37   C41   A    
O4    Zn2   S    
C7    H3    S    
O15   Zn4   S    
C38   C42   A    
C48   C52   A    
C23   C25   A    
C33   O11   A    
C8    C10   A    
C32   O10   A    
C67   H33   S    
O3    Zn2   S    
C31   O13   A    
C36   N4    A    
C35   N3    A    
C37   C57   A    
C52   C56   A    
N8    C68   S    
