data_mof_unit_24432.cif
_audit_creation_date              2012-12-10T16:53:52-0500
_audit_creation_method            fapswitch 2.2
_symmetry_space_group_name_H-M    P1
_symmetry_Int_Tables_number       1
_space_group_crystal_system       triclinic
_cell_length_a                    7.769072
_cell_length_b                    8.560234
_cell_length_c                    10.623925
_cell_angle_alpha                 91.009407
_cell_angle_beta                  85.028729
_cell_angle_gamma                 93.896721
_cell_volume                      702.21093968

loop_
_atom_site_label
_atom_site_type_symbol
_atom_type_description
_atom_site_fract_x
_atom_site_fract_y
_atom_site_fract_z
_atom_type_partial_charge
C1    C     C_R   0.545987 0.794808 0.496105 0.955600
C2    C     C_3   0.453268 0.656316 0.931727 -0.449871
C3    C     C_3   0.442836 0.655127 0.076622 -0.378105
C4    C     C_3   0.361429 0.367012 0.937262 0.345433
C5    C     C_3   0.684081 0.463223 0.916681 -0.367509
C6    C     C_3   0.500499 0.492960 0.878398 -0.013007
C7    C     C_3   0.500137 0.497058 0.121347 0.086174
C8    C     C_3   0.375539 0.360512 0.080720 -0.471592
C9    C     C_3   0.685160 0.470791 0.059349 -0.393919
C10   C     C_2   0.570180 0.958427 0.493212 -0.342130
C11   C     C_2   0.429945 0.041445 0.500845 -0.330499
C12   C     C_R   0.500325 0.496639 0.742106 0.941359
C13   C     C_R   0.454020 0.205169 0.501494 1.040941
C14   C     C_R   0.499590 0.499679 0.257754 0.845015
H1    H     H_    0.326625 0.687749 0.901162 0.203484
H2    H     H_    0.307613 0.672628 0.115349 0.192995
H3    H     H_    0.231412 0.408569 0.924129 0.105726
H4    H     H_    0.244196 0.367324 0.130774 0.157730
H5    H     H_    0.725890 0.347885 0.881344 0.242213
H6    H     H_    0.781534 0.553703 0.875171 0.178387
H7    H     H_    0.778230 0.568210 0.085751 0.190345
H8    H     H_    0.187380 0.049922 0.742213 0.371526
H9    H     H_    0.731612 0.359587 0.092588 0.191480
H10   H     H_    0.425944 0.248668 0.108265 0.213124
H11   H     H_    0.702480 0.010025 0.486004 0.180042
H12   H     H_    0.297681 0.989803 0.507701 0.167508
H13   H     H_    0.014211 0.382577 0.404582 0.186650
H14   H     H_    0.985788 0.617365 0.595468 0.188170
H15   H     H_    0.552554 0.748383 0.895490 0.220460
H16   H     H_    0.527462 0.754043 0.111252 0.186484
N1    N     N_2   0.950330 0.457950 0.465890 -0.169980
N2    N     N_2   0.049670 0.542050 0.534110 -0.165961
O1    O     O_R   0.389250 0.738570 0.508370 -0.618725
O2    O     O_2   0.312082 0.049785 0.961986 -0.342958
O3    O     O_3   0.209436 0.163239 0.759655 -0.556530
O4    O     O_R   0.678390 0.711620 0.486510 -0.633342
O5    O     O_R   0.355430 0.513500 0.696140 -0.612465
O6    O     O_R   0.644580 0.486550 0.674270 -0.622168
O7    O     O_R   0.321610 0.288380 0.513490 -0.598997
O8    O     O_R   0.610750 0.261430 0.491630 -0.612976
O9    O     O_R   0.355420 0.513450 0.325730 -0.640959
O10   O     O_R   0.644570 0.486500 0.303860 -0.636056
O11   O     O_2   0.532997 0.142977 0.797131 -0.334077
S1    S     S_3+6 0.360250 0.173915 0.864320 -0.023999
Zn1   Zn    Zn3+2 0.306940 0.517990 0.514600 0.968975
Zn2   Zn    Zn3+2 0.693060 0.482010 0.485400 0.956000

loop_
_geom_bond_atom_site_label_1
_geom_bond_atom_site_label_2
_ccdc_geom_bond_type
C3    H16   S    
O11   S1    D    
O4    Zn2   S    
O7    Zn1   S    
C5    H5    S    
O1    Zn1   S    
N2    Zn1   S    
N1    N2    D    
C4    C8    S    
C14   O10   A    
H8    O3    S    
C2    C3    S    
C1    O1    A    
C7    C8    S    
C5    H6    S    
O3    S1    S    
O8    Zn2   S    
C2    H1    S    
C11   C13   S    
C9    H7    S    
C5    C9    S    
C2    C6    S    
C2    H15   S    
C4    H3    S    
C10   H11   S    
C8    H10   S    
C3    C7    S    
C14   O9    A    
C12   O6    A    
C5    C6    S    
O6    Zn2   S    
C13   O7    A    
C10   C11   D    
C1    C10   S    
O5    Zn1   S    
C6    C12   S    
H14   N2    S    
O2    S1    D    
C4    C6    S    
O10   Zn2   S    
C12   O5    A    
C7    C9    S    
O9    Zn1   S    
C9    H9    S    
C13   O8    A    
C4    S1    S    
C11   H12   S    
H13   N1    S    
C7    C14   S    
C8    H4    S    
C3    H2    S    
C1    O4    A    
N1    Zn2   S    
