data_mof_unit_19782.cif
_audit_creation_date              2013-03-05T15:55:34-0500
_audit_creation_method            fapswitch 2.2
_symmetry_space_group_name_H-M    P1
_symmetry_Int_Tables_number       1
_space_group_crystal_system       triclinic
_cell_length_a                    13.988163
_cell_length_b                    14.004925
_cell_length_c                    31.568464
_cell_angle_alpha                 90.311295
_cell_angle_beta                  89.747126
_cell_angle_gamma                 120.042377
_cell_volume                      5353.4370896

loop_
_atom_site_label
_atom_site_type_symbol
_atom_site_description
_atom_site_fract_x
_atom_site_fract_y
_atom_site_fract_z
_atom_type_partial_charge
O1    O     O_R   0.480350 0.140770 0.796330 -0.532795
O2    O     O_R   0.660420 0.519650 0.703670 -0.523431
O3    O     O_R   0.859230 0.339580 0.796330 -0.532401
O4    O     O_R   0.480350 0.140770 0.703670 -0.534089
O5    O     O_R   0.660420 0.519650 0.796330 -0.530185
O6    O     O_R   0.859230 0.339580 0.703670 -0.536491
O7    O     O_R   0.140770 0.480350 0.296330 -0.535326
O8    O     O_R   0.519650 0.660420 0.203670 -0.523782
O9    O     O_R   0.339580 0.859230 0.296330 -0.533262
O10   O     O_R   0.140770 0.480350 0.203670 -0.529543
O11   O     O_R   0.519650 0.660420 0.296330 -0.526399
O12   O     O_R   0.339580 0.859230 0.203670 -0.526813
O13   O     O_R   0.514930 0.348530 0.793250 -0.516407
O14   O     O_R   0.833600 0.485070 0.706750 -0.518614
O15   O     O_R   0.651470 0.166400 0.793250 -0.514979
O16   O     O_R   0.514930 0.348530 0.706750 -0.527021
O17   O     O_R   0.833600 0.485070 0.793250 -0.513607
O18   O     O_R   0.651470 0.166400 0.706750 -0.518138
O19   O     O_R   0.348530 0.514930 0.293250 -0.523597
O20   O     O_R   0.485070 0.833600 0.206750 -0.511996
O21   O     O_R   0.166400 0.651470 0.293250 -0.515764
O22   O     O_R   0.348530 0.514930 0.206750 -0.514818
O23   O     O_R   0.485070 0.833600 0.293250 -0.515931
O24   O     O_R   0.166400 0.651470 0.206750 -0.513901
C1    C     C_R   0.565126 0.445574 0.809801 0.828900
C2    C     C_R   0.883781 0.436026 0.691281 0.827576
C3    C     C_R   0.554513 0.120182 0.809906 0.827479
C4    C     C_R   0.566661 0.444332 0.689510 0.836714
C5    C     C_R   0.879769 0.434612 0.809931 0.821623
C6    C     C_R   0.554017 0.119212 0.690119 0.825040
C7    C     C_R   0.444902 0.566415 0.310402 0.821021
C8    C     C_R   0.434772 0.879728 0.190032 0.818641
C9    C     C_R   0.118934 0.553886 0.309784 0.825985
C10   C     C_R   0.445479 0.565157 0.190174 0.814137
C11   C     C_R   0.436069 0.883260 0.308958 0.827167
C12   C     C_R   0.120189 0.554533 0.190120 0.821869
C13   C     C_1   0.985644 0.466774 0.020185 -0.035850
C14   C     C_1   0.536408 0.023782 0.477641 -0.029104
C15   C     C_1   0.523853 0.515817 0.019628 -0.029794
C16   C     C_1   0.020613 0.527060 0.483827 -0.036500
C17   C     C_1   0.486161 0.018253 0.020578 -0.029358
C18   C     C_1   0.433838 0.428117 0.480378 -0.057575
C19   C     C_1   0.535201 0.024888 0.515894 -0.034571
C20   C     C_1   0.980728 0.463594 0.982257 -0.040455
C21   C     C_1   0.438412 0.413246 0.517601 -0.052972
C22   C     C_1   0.486387 0.022047 0.982604 -0.043637
C23   C     C_1   0.018708 0.526379 0.522065 -0.035027
C24   C     C_1   0.526133 0.515829 0.981643 -0.042014
H1    H     H_    0.088970 0.658165 0.055335 0.156063
H2    H     H_    0.674099 0.006719 0.423509 0.174356
H3    H     H_    0.335146 0.410863 0.057581 0.151633
H4    H     H_    0.023144 0.674386 0.431567 0.169937
H5    H     H_    0.575895 0.916520 0.055082 0.155242
H6    H     H_    0.316026 0.302703 0.416729 0.168633
H7    H     H_    0.680583 0.027301 0.569416 0.165780
H8    H     H_    0.902713 0.571555 0.944109 0.162168
H9    H     H_    0.299438 0.338009 0.583414 0.154968
H10   H     H_    0.670533 0.095071 0.942810 0.161411
H11   H     H_    0.020352 0.672857 0.576163 0.177817
H12   H     H_    0.415320 0.331531 0.942023 0.160480
Cr1   Cr    Cr6+3 0.504240 0.249200 0.750000 1.039853
Cr2   Cr    Cr6+3 0.744960 0.495760 0.750000 1.052031
Cr3   Cr    Cr6+3 0.750800 0.255040 0.750000 1.046918
Cr4   Cr    Cr6+3 0.249200 0.504240 0.250000 1.045554
Cr5   Cr    Cr6+3 0.495760 0.744960 0.250000 1.060809
Cr6   Cr    Cr6+3 0.255040 0.750800 0.250000 1.056823
O25   O     O_3   0.666667 0.333333 0.750000 -0.364729
O26   O     O_3   0.333333 0.666667 0.250000 -0.364685
C25   C     C_R   0.943322 0.477037 0.850116 -0.163294
C26   C     C_R   0.531387 0.054041 0.649867 -0.177247
C27   C     C_R   0.520936 0.467840 0.849449 -0.164899
C28   C     C_R   0.960055 0.482662 0.653978 -0.197299
C29   C     C_R   0.532807 0.056533 0.850035 -0.165925
C30   C     C_R   0.528120 0.457020 0.647125 -0.172319
C31   C     C_R   0.484983 0.959199 0.346317 -0.199915
C32   C     C_R   0.053802 0.532146 0.150655 -0.158277
C33   C     C_R   0.462867 0.522666 0.350994 -0.196109
C34   C     C_R   0.480557 0.947094 0.150777 -0.154923
C35   C     C_R   0.052814 0.530153 0.349849 -0.180498
C36   C     C_R   0.467769 0.520088 0.150781 -0.162405
C37   C     C_R   0.917763 0.539597 0.878545 -0.070147
C38   C     C_R   0.614919 0.040583 0.629839 -0.064493
C39   C     C_R   0.453704 0.379739 0.876967 -0.066060
C40   C     C_R   0.986044 0.584809 0.635466 -0.017964
C41   C     C_R   0.621389 0.080088 0.877694 -0.070436
C42   C     C_R   0.414786 0.393339 0.635663 -0.037677
C43   C     C_R   0.586944 0.981108 0.364281 -0.012251
C44   C     C_R   0.082134 0.618304 0.121189 -0.059798
C45   C     C_R   0.387247 0.412553 0.363609 -0.037838
C46   C     C_R   0.539994 0.920175 0.121092 -0.063968
C47   C     C_R   0.038929 0.612600 0.370583 -0.063942
C48   C     C_R   0.380140 0.453917 0.122707 -0.057205
C49   C     C_R   0.928678 0.529651 0.921807 -0.228450
C50   C     C_R   0.613995 0.031093 0.585561 -0.225569
C51   C     C_R   0.460111 0.399715 0.920303 -0.229674
C52   C     C_R   0.008280 0.598865 0.591784 -0.166646
C53   C     C_R   0.602002 0.070197 0.921101 -0.229716
C54   C     C_R   0.385629 0.379054 0.592642 -0.206267
C55   C     C_R   0.602686 0.001648 0.408017 -0.187249
C56   C     C_R   0.060005 0.592403 0.078527 -0.211203
C57   C     C_R   0.377249 0.384901 0.406558 -0.240454
C58   C     C_R   0.538128 0.944343 0.078546 -0.207021
C59   C     C_R   0.027841 0.609022 0.414843 -0.211967
C60   C     C_R   0.402646 0.454444 0.079778 -0.215386
C61   C     C_R   0.975764 0.469669 0.937068 0.082120
C62   C     C_R   0.527383 0.025035 0.561637 0.071195
C63   C     C_R   0.520754 0.506260 0.936352 0.081504
C64   C     C_R   0.013428 0.517375 0.567750 0.045544
C65   C     C_R   0.495556 0.025514 0.937257 0.078087
C66   C     C_R   0.466953 0.414962 0.561351 0.063800
C67   C     C_R   0.528334 0.018836 0.431894 0.063665
C68   C     C_R   0.998208 0.483616 0.065090 0.084926
C69   C     C_R   0.447362 0.460375 0.436603 0.071055
C70   C     C_R   0.491302 0.006241 0.065480 0.093740
C71   C     C_R   0.022071 0.521712 0.438056 0.068460
C72   C     C_R   0.510494 0.509779 0.064772 0.103502
C73   C     C_R   0.025655 0.428440 0.908964 0.122412
C74   C     C_R   0.432354 0.014245 0.582260 0.087096
C75   C     C_R   0.565881 0.598090 0.908818 0.120965
C76   C     C_R   0.013703 0.427987 0.588314 0.082015
C77   C     C_R   0.403216 0.976658 0.909833 0.122189
C78   C     C_R   0.579482 0.470050 0.572577 0.095450
C79   C     C_R   0.446255 0.031604 0.411089 0.107701
C80   C     C_R   0.946452 0.397465 0.094789 0.108940
C81   C     C_R   0.536083 0.563733 0.423819 0.111049
C82   C     C_R   0.455539 0.056578 0.095524 0.094428
C83   C     C_R   0.013160 0.428469 0.416697 0.084646
C84   C     C_R   0.600411 0.555120 0.093176 0.103733
C85   C     C_R   0.009901 0.433455 0.864572 -0.049272
C86   C     C_R   0.432880 0.024040 0.627026 -0.056701
C87   C     C_R   0.565086 0.578127 0.864344 -0.057347
C88   C     C_R   0.994525 0.415569 0.632579 -0.060694
C89   C     C_R   0.422600 0.991686 0.865217 -0.053155
C90   C     C_R   0.608232 0.507669 0.614740 -0.078377
C91   C     C_R   0.423210 0.999873 0.367977 -0.060594
C92   C     C_R   0.976634 0.421752 0.138285 -0.067116
C93   C     C_R   0.542893 0.595215 0.380802 -0.048186
C94   C     C_R   0.448063 0.024810 0.138821 -0.074038
C95   C     C_R   0.022212 0.430672 0.371934 -0.054363
C96   C     C_R   0.578434 0.560326 0.137005 -0.067146
C97   C     C_2   0.885492 0.620607 0.864835 0.834247
O27   O     O_2   0.924601 0.674187 0.832509 -0.501745
O28   O     O_R   0.817702 0.642575 0.890864 -0.681761
H13   H     H_    0.810016 0.706292 0.880067 0.315223
C98   C     C_2   0.697497 0.025797 0.654204 0.841135
O29   O     O_2   0.680627 0.997978 0.691392 -0.523297
O30   O     O_R   0.790719 0.035159 0.633814 -0.657095
H14   H     H_    0.838413 0.019286 0.653343 0.331334
C99   C     C_2   0.371992 0.267330 0.862156 0.834045
O31   O     O_2   0.321093 0.254700 0.829243 -0.506468
O32   O     O_R   0.346488 0.176388 0.887670 -0.681739
H15   H     H_    0.282985 0.105755 0.875936 0.317851
C100  C     C_2   0.000861 0.680838 0.661178 0.841296
O33   O     O_2   0.012024 0.681877 0.699608 -0.537080
O34   O     O_R   0.010006 0.773938 0.641136 -0.650715
H16   H     H_    0.022455 0.834643 0.661864 0.308783
C101  C     C_2   0.733612 0.109434 0.862950 0.837626
O35   O     O_2   0.745567 0.068944 0.830342 -0.502840
O36   O     O_R   0.825145 0.176332 0.888191 -0.681487
H17   H     H_    0.895652 0.182931 0.876455 0.317293
C102  C     C_2   0.324730 0.343655 0.667577 0.820272
O37   O     O_2   0.336510 0.385776 0.702622 -0.538567
O38   O     O_R   0.225295 0.248765 0.657212 -0.638739
H18   H     H_    0.171367 0.220404 0.681786 0.320185
C103  C     C_2   0.682102 0.995610 0.337980 0.848053
O39   O     O_2   0.682356 0.007944 0.299650 -0.540022
O40   O     O_R   0.775900 0.004426 0.357444 -0.648258
H19   H     H_    0.836117 0.017271 0.336393 0.308855
C104  C     C_2   0.131628 0.736004 0.133033 0.818047
O41   O     O_2   0.097239 0.762812 0.163926 -0.503806
O42   O     O_R   0.210842 0.816861 0.106666 -0.676507
H20   H     H_    0.230992 0.893654 0.116272 0.311265
C105  C     C_2   0.320756 0.322822 0.332812 0.833749
O43   O     O_2   0.354717 0.326598 0.296731 -0.535377
O44   O     O_R   0.221696 0.230970 0.345701 -0.642817
H21   H     H_    0.184870 0.174834 0.322146 0.318745
C106  C     C_2   0.609021 0.871291 0.132398 0.825912
O45   O     O_2   0.665882 0.901509 0.164362 -0.495162
O46   O     O_R   0.618034 0.799287 0.104005 -0.680799
H22   H     H_    0.678445 0.783331 0.112239 0.314229
C107  C     C_2   0.024738 0.696550 0.347096 0.856549
O47   O     O_2   0.000144 0.683316 0.309539 -0.527013
O48   O     O_R   0.030538 0.786665 0.368770 -0.646182
H23   H     H_    0.014365 0.835137 0.349843 0.326614
C108  C     C_2   0.264347 0.381904 0.136340 0.827788
O49   O     O_2   0.243721 0.324665 0.167952 -0.503306
O50   O     O_R   0.178447 0.373543 0.111288 -0.676578
H24   H     H_    0.103561 0.317628 0.122867 0.314371
C109  C     C_2   0.925858 0.334955 0.171347 0.794747
O51   O     O_2   0.912804 0.242927 0.165159 -0.542061
O52   O     O_R   0.894195 0.359747 0.210058 -0.640851
H25   H     H_    0.859179 0.294046 0.229788 0.335504
C110  C     C_2   0.340987 0.016361 0.344603 0.819697
O53   O     O_2   0.243889 0.966750 0.355147 -0.549639
O54   O     O_R   0.374750 0.086207 0.309538 -0.643546
H26   H     H_    0.311322 0.089904 0.295799 0.313909
C111  C     C_2   0.667359 0.601224 0.169349 0.812644
O55   O     O_2   0.748272 0.693500 0.166667 -0.539215
O56   O     O_R   0.654581 0.535233 0.204398 -0.640876
H27   H     H_    0.718793 0.572052 0.224868 0.333813
C112  C     C_2   0.990753 0.327916 0.347448 0.819904
O57   O     O_2   0.031768 0.270878 0.355396 -0.541681
O58   O     O_R   0.915771 0.298782 0.314078 -0.647586
H28   H     H_    0.900936 0.228012 0.299470 0.314521
C113  C     C_2   0.410455 0.074238 0.172047 0.803176
O59   O     O_2   0.329230 0.083756 0.166361 -0.536568
O60   O     O_R   0.468232 0.109008 0.210254 -0.640790
H29   H     H_    0.437417 0.144629 0.229828 0.341650
C114  C     C_2   0.632955 0.704955 0.367609 0.811018
O61   O     O_2   0.637819 0.788006 0.382323 -0.568996
O62   O     O_R   0.711886 0.712868 0.338331 -0.635689
H30   H     H_    0.769317 0.792147 0.331862 0.313625
C115  C     C_2   0.329603 0.994970 0.650760 0.818920
O63   O     O_2   0.274727 0.038021 0.642154 -0.543324
O64   O     O_R   0.297924 0.920480 0.684362 -0.643537
H31   H     H_    0.227621 0.908037 0.698708 0.316443
C116  C     C_2   0.067955 0.402473 0.832385 0.803923
O65   O     O_2   0.075065 0.319533 0.836365 -0.547107
O66   O     O_R   0.113802 0.469293 0.796775 -0.640339
H32   H     H_    0.154001 0.442537 0.777645 0.338129
C117  C     C_2   0.715474 0.608528 0.624160 0.805486
O67   O     O_2   0.800957 0.623305 0.607886 -0.572045
O68   O     O_R   0.717293 0.689387 0.650917 -0.630519
H33   H     H_    0.794295 0.754971 0.654760 0.318746
C118  C     C_2   0.332147 0.935514 0.833446 0.806916
O69   O     O_2   0.240770 0.924240 0.839536 -0.547842
O70   O     O_R   0.353277 0.896435 0.795714 -0.641636
H34   H     H_    0.286516 0.860180 0.776415 0.335256
C119  C     C_2   0.021406 0.342606 0.657945 0.826836
O71   O     O_2   0.989953 0.247632 0.647085 -0.550378
O72   O     O_R   0.080585 0.383250 0.695632 -0.640722
H35   H     H_    0.090850 0.325931 0.711198 0.310258
C120  C     C_2   0.602674 0.668255 0.832431 0.812699
O73   O     O_2   0.683789 0.758748 0.838694 -0.544534
O74   O     O_R   0.544735 0.647719 0.794335 -0.641007
H36   H     H_    0.577736 0.714048 0.774867 0.334424
C121  C     C_3   0.854256 0.285207 0.080025 -0.356248
C122  C     C_3   0.898625 0.213629 0.061890 -0.648382
H37   H     H_    0.958166 0.256848 0.035814 0.218652
H38   H     H_    0.939827 0.192012 0.086891 0.255305
H39   H     H_    0.828937 0.135920 0.049124 0.207826
H40   H     H_    0.794686 0.240160 0.105859 0.202604
H41   H     H_    0.804441 0.296540 0.055310 0.173167
C123  C     C_3   0.388578 0.083332 0.434719 -0.355863
C124  C     C_3   0.468040 0.205593 0.442866 -0.754695
H42   H     H_    0.540810 0.218913 0.461518 0.232686
H43   H     H_    0.496528 0.250624 0.412381 0.247191
H44   H     H_    0.424069 0.239303 0.461173 0.223356
H45   H     H_    0.316587 0.076858 0.417789 0.218418
H46   H     H_    0.355154 0.039440 0.464845 0.191230
C125  C     C_3   0.716013 0.593350 0.076184 -0.353945
C126  C     C_3   0.732000 0.495061 0.066991 -0.750382
H47   H     H_    0.724065 0.449388 0.096683 0.234052
H48   H     H_    0.670207 0.438059 0.043709 0.227819
H49   H     H_    0.815637 0.524997 0.053566 0.225366
H50   H     H_    0.730218 0.641841 0.046741 0.189216
H51   H     H_    0.781857 0.649209 0.098130 0.222038
C127  C     C_3   0.996051 0.328547 0.441514 -0.347007
C128  C     C_3   0.106536 0.335145 0.450524 -0.678450
H52   H     H_    0.147352 0.332774 0.420710 0.269633
H53   H     H_    0.163040 0.413065 0.467397 0.208661
H54   H     H_    0.092856 0.264325 0.470471 0.216404
H55   H     H_    0.953416 0.322590 0.471662 0.179220
H56   H     H_    0.939668 0.250385 0.424835 0.206436
C129  C     C_3   0.434711 0.148377 0.081365 -0.350966
C130  C     C_3   0.318779 0.103689 0.063377 -0.658146
H57   H     H_    0.303269 0.044942 0.037012 0.218619
H58   H     H_    0.255526 0.061600 0.088352 0.256375
H59   H     H_    0.310345 0.173232 0.051047 0.209264
H60   H     H_    0.448213 0.206981 0.107547 0.205059
H61   H     H_    0.496161 0.199066 0.056737 0.171187
C131  C     C_3   0.624041 0.640146 0.455622 -0.370848
C132  C     C_3   0.734419 0.644567 0.448081 -0.719301
H62   H     H_    0.792036 0.690489 0.474366 0.220459
H63   H     H_    0.722447 0.560029 0.446627 0.223776
H64   H     H_    0.773835 0.687785 0.418205 0.254095
H65   H     H_    0.635845 0.724455 0.454258 0.217696
H66   H     H_    0.599247 0.614739 0.488833 0.184041
C133  C     C_3   0.332479 0.994745 0.556618 -0.338928
C134  C     C_3   0.339124 0.104435 0.546236 -0.688030
H67   H     H_    0.333799 0.146075 0.575350 0.269403
H68   H     H_    0.418705 0.160550 0.530410 0.220657
H69   H     H_    0.270076 0.089958 0.524980 0.218528
H70   H     H_    0.326472 0.949317 0.526984 0.168201
H71   H     H_    0.254133 0.939920 0.573480 0.206422
C135  C     C_3   0.097655 0.384589 0.926467 -0.338707
C136  C     C_3   0.220268 0.469388 0.921846 -0.713362
H72   H     H_    0.244050 0.487877 0.888031 0.244468
H73   H     H_    0.239377 0.546924 0.938566 0.217877
H74   H     H_    0.270267 0.436566 0.936173 0.223549
H75   H     H_    0.081019 0.363796 0.960559 0.181028
H76   H     H_    0.078546 0.305709 0.911175 0.221042
C137  C     C_3   0.666937 0.482425 0.540547 -0.344210
C138  C     C_3   0.714671 0.408866 0.552332 -0.708974
H77   H     H_    0.754367 0.430531 0.583962 0.246699
H78   H     H_    0.648046 0.320952 0.552644 0.215902
H79   H     H_    0.777311 0.418449 0.528450 0.217647
H80   H     H_    0.632568 0.456250 0.508340 0.187528
H81   H     H_    0.733061 0.569649 0.537511 0.215253
C139  C     C_3   0.287590 0.906973 0.928315 -0.332526
C140  C     C_3   0.245909 0.783759 0.923001 -0.706364
H82   H     H_    0.240446 0.760576 0.889076 0.245845
H83   H     H_    0.302299 0.761728 0.939366 0.215532
H84   H     H_    0.162404 0.735472 0.937298 0.222591
H85   H     H_    0.285514 0.923178 0.962641 0.179395
H86   H     H_    0.228865 0.928905 0.914214 0.221715
C141  C     C_3   0.030210 0.344868 0.563032 -0.337332
C142  C     C_3   0.918814 0.243350 0.552650 -0.683011
H87   H     H_    0.874948 0.200294 0.581883 0.279244
H88   H     H_    0.865095 0.267646 0.535562 0.199930
H89   H     H_    0.931568 0.185276 0.532605 0.221694
H90   H     H_    0.075157 0.381661 0.533289 0.179517
H91   H     H_    0.084188 0.320800 0.579962 0.207376
C143  C     C_3   0.609973 0.713759 0.926982 -0.338975
C144  C     C_3   0.528779 0.755085 0.920009 -0.706453
H92   H     H_    0.515379 0.761418 0.885778 0.246149
H93   H     H_    0.448323 0.698121 0.935186 0.216103
H94   H     H_    0.561943 0.838041 0.934566 0.222876
H95   H     H_    0.624818 0.716235 0.961559 0.183102
H96   H     H_    0.691984 0.772408 0.913615 0.220311

loop_
_geom_bond_atom_site_label_1
_geom_bond_atom_site_label_2
_geom_bond_distance
_ccdc_geom_bond_type
C35   C95   1.421678 A    
C101  O35   1.223199 D    
C38   C50   1.402865 A    
C57   C69   1.392141 A    
C64   C76   1.415018 A    
O68   H33   1.013848 S    
C98   O29   1.223161 D    
C140  H82   1.109194 S    
C33   C45   1.423121 A    
C121  H40   1.109365 S    
C89   C118  1.493883 S    
C68   C80   1.410858 A    
O21   C9    1.295057 A    
O28   H13   1.011782 S    
C132  H64   1.107849 S    
O17   C5    1.287540 A    
C123  C124  1.524981 S    
C111  O56   1.397952 S    
C60   C72   1.388497 A    
C131  C132  1.531521 S    
C136  H73   1.110678 S    
C82   C129  1.523151 S    
C142  H89   1.110153 S    
C105  O44   1.398691 S    
C52   C64   1.398475 A    
C46   C106  1.481876 S    
O19   C7    1.288141 A    
O56   H27   1.013909 S    
C124  H42   1.109786 S    
C62   C74   1.416328 A    
O7    C9    1.281952 A    
C102  O38   1.398659 S    
C94   C113  1.485923 S    
C28   C88   1.419718 A    
C5    C25   1.491815 S    
C107  O48   1.398608 S    
H8    C49   1.085701 S    
C122  H38   1.108173 S    
O52   H25   1.013300 S    
C143  C144  1.528113 S    
C115  O63   1.222124 D    
O12   Cr6   2.013540 S    
O4    Cr1   2.007199 S    
C18   C21   1.202062 T    
O6    Cr3   2.010608 S    
C36   C48   1.417762 A    
C129  H60   1.109609 S    
C119  O71   1.220935 D    
C58   C70   1.387609 A    
O15   C3    1.285792 A    
O70   H34   1.013884 S    
H5    C58   1.085881 S    
Cr5   O26   1.967239 S    
C83   C127  1.517990 S    
C78   C137  1.525685 S    
O14   C2    1.295765 A    
C28   C40   1.416559 A    
O5    C1    1.284180 A    
C135  H75   1.109299 S    
C38   C98   1.489257 S    
C139  C140  1.528438 S    
C140  H84   1.110474 S    
C113  O59   1.222549 D    
C131  H66   1.106058 S    
C44   C104  1.479588 S    
C45   C57   1.399159 A    
C127  H56   1.109263 S    
C47   C59   1.403506 A    
C128  H53   1.110442 S    
C13   C20   1.198902 T    
C14   C19   1.207762 T    
O44   H21   1.013862 S    
C65   C77   1.415842 A    
C125  H50   1.111180 S    
C43   C103  1.491257 S    
C30   C90   1.416328 A    
C129  H61   1.111926 S    
C26   C38   1.418897 A    
C41   C53   1.389853 A    
C48   C60   1.389151 A    
O54   H26   1.013708 S    
H12   C51   1.085737 S    
C74   C133  1.518948 S    
C25   C85   1.422713 A    
C110  O53   1.221452 D    
C124  H44   1.104459 S    
O34   H16   1.013910 S    
C3    C29   1.493143 S    
C125  H51   1.103895 S    
C126  H47   1.111102 S    
C139  H85   1.109162 S    
H4    C59   1.084298 S    
O21   Cr6   1.901405 S    
H6    C57   1.084514 S    
O30   H14   1.014004 S    
C88   C119  1.490986 S    
C20   C61   1.433586 S    
C87   C120  1.493076 S    
C117  O67   1.218429 D    
Cr4   O26   1.969537 S    
C99   O32   1.397068 S    
C70   C82   1.410120 A    
C108  O50   1.396238 S    
C24   C63   1.434089 S    
O14   Cr2   1.895429 S    
C77   C139  1.525194 S    
C141  H90   1.103650 S    
C137  H80   1.105900 S    
C109  O52   1.398103 S    
C46   C58   1.390429 A    
C106  O46   1.397368 S    
C75   C87   1.429048 A    
C1    C27   1.492571 S    
C73   C85   1.427121 A    
C120  O73   1.221521 D    
C35   C47   1.419393 A    
O8    Cr5   2.006393 S    
C103  O40   1.399419 S    
C121  C122  1.526886 S    
C112  O58   1.397458 S    
C142  H88   1.110408 S    
C118  O69   1.221376 D    
C27   C39   1.415636 A    
C113  O60   1.397577 S    
O22   C10   1.284649 A    
C84   C125  1.522455 S    
C123  H45   1.104876 S    
C134  H67   1.107884 S    
C116  O65   1.221593 D    
C79   C91   1.416900 A    
C19   C62   1.447754 S    
C137  C138  1.529920 S    
C53   C65   1.390172 A    
Cr1   O25   1.967237 S    
O32   H15   1.011864 S    
C55   C67   1.396261 A    
C114  O61   1.220009 D    
C75   C143  1.525132 S    
C42   C102  1.484868 S    
O8    C10   1.284387 A    
C29   C41   1.415521 A    
C130  H58   1.108417 S    
C126  H49   1.109306 S    
C31   C43   1.420210 A    
C15   C72   1.433944 S    
O16   Cr1   1.905845 S    
O20   C8    1.285672 A    
C143  H95   1.109137 S    
C144  H94   1.110214 S    
O10   Cr4   2.014368 S    
C130  H59   1.110670 S    
C135  H76   1.106617 S    
C92   C109  1.488036 S    
O23   Cr5   1.895577 S    
C127  C128  1.529225 S    
C84   C96   1.425416 A    
C73   C135  1.524690 S    
O6    C2    1.278846 A    
C132  H63   1.110342 S    
C76   C141  1.517493 S    
C111  O55   1.222330 D    
C27   C87   1.423995 A    
C23   C64   1.446719 S    
H11   C52   1.084023 S    
C54   C66   1.394773 A    
C2    C28   1.500405 S    
C134  H69   1.110139 S    
C45   C105  1.487908 S    
O42   H20   1.010811 S    
C4    C30   1.489097 S    
C102  O37   1.223214 D    
C125  C126  1.527201 S    
C107  O47   1.223001 D    
C34   C46   1.419384 A    
C122  H39   1.110645 S    
C131  H65   1.108407 S    
C133  H71   1.109362 S    
C33   C93   1.425125 A    
C118  O70   1.399102 S    
C97   O28   1.396969 S    
C138  H77   1.109219 S    
C31   C91   1.421979 A    
C16   C71   1.447055 S    
C26   C86   1.421599 A    
C104  O41   1.223180 D    
C85   C116  1.490266 S    
C98   O30   1.397956 S    
C50   C62   1.396384 A    
O38   H18   1.013306 S    
O74   H36   1.013937 S    
C7    C33   1.498732 S    
C141  H91   1.108934 S    
C100  O34   1.399262 S    
O24   Cr6   1.898410 S    
C115  O64   1.398183 S    
C144  H92   1.109158 S    
C101  O36   1.397081 S    
C61   C73   1.414229 A    
C41   C101  1.483042 S    
H7    C50   1.084082 S    
C63   C75   1.415065 A    
C6    C26   1.499854 S    
C140  H83   1.110531 S    
C121  H41   1.111911 S    
C81   C131  1.532268 S    
C67   C79   1.412453 A    
O60   H29   1.012968 S    
O20   Cr5   1.906216 S    
C138  H79   1.109810 S    
O40   H19   1.013958 S    
C80   C92   1.426750 A    
C21   C66   1.436082 S    
C9    C35   1.500653 S    
C81   C93   1.418067 A    
C36   C96   1.423468 A    
C141  C142  1.529069 S    
C93   C114  1.478600 S    
C59   C71   1.396084 A    
C96   C111  1.486386 S    
C74   C86   1.418781 A    
O17   Cr2   1.904460 S    
C40   C100  1.490307 S    
O62   H30   1.013776 S    
O19   Cr4   1.903511 S    
C136  H74   1.109933 S    
O24   C12   1.285718 A    
C133  H70   1.107984 S    
C44   C56   1.388222 A    
C51   C63   1.389586 A    
C56   C68   1.387761 A    
O23   C11   1.292274 A    
C124  H43   1.110988 S    
O66   H32   1.013313 S    
C126  H48   1.110371 S    
C139  H86   1.106641 S    
C122  H37   1.110070 S    
O1    Cr1   2.017047 S    
O3    Cr3   2.010986 S    
H3    C60   1.085920 S    
C133  C134  1.529119 S    
O50   H24   1.011188 S    
C119  O72   1.397953 S    
C99   O31   1.223205 D    
C66   C78   1.408725 A    
C108  O49   1.223224 D    
H9    C54   1.084557 S    
O64   H31   1.013860 S    
C109  O51   1.222514 D    
C42   C54   1.403948 A    
C25   C37   1.415331 A    
O22   Cr4   1.895868 S    
O46   H22   1.011544 S    
C106  O45   1.222850 D    
C22   C65   1.435606 S    
O9    C11   1.281548 A    
O10   C12   1.284758 A    
C15   C24   1.199407 T    
C39   C99   1.482712 S    
O16   C4    1.285430 A    
C16   C23   1.207260 T    
Cr6   O26   1.969733 S    
O58   H28   1.013908 S    
C103  O39   1.222960 D    
C112  O57   1.221703 D    
C127  H55   1.102020 S    
C17   C70   1.434710 S    
O48   H23   1.014095 S    
C128  H54   1.110218 S    
C32   C92   1.426233 A    
C105  O43   1.223339 D    
C11   C31   1.501685 S    
H2    C55   1.083986 S    
C123  H46   1.102539 S    
Cr2   O25   1.969654 S    
C134  H68   1.108963 S    
C135  C136  1.527585 S    
O18   Cr3   1.899221 S    
C69   C81   1.414761 A    
C71   C83   1.415495 A    
C86   C115  1.489639 S    
O3    C5    1.284622 A    
C40   C52   1.405337 A    
O9    Cr6   2.009130 S    
C13   C68   1.432899 S    
C12   C32   1.492401 S    
C49   C61   1.390241 A    
C78   C90   1.412745 A    
O36   H17   1.012105 S    
C110  O54   1.396379 S    
C17   C22   1.200163 T    
O18   C6    1.292745 A    
C129  C130  1.527085 S    
C32   C44   1.417188 A    
C10   C36   1.492377 S    
C37   C97   1.482625 S    
O11   C7    1.283662 A    
O12   C8    1.286224 A    
O13   C1    1.285763 A    
H10   C53   1.085713 S    
C83   C95   1.417318 A    
C34   C94   1.426536 A    
C79   C123  1.518619 S    
C43   C55   1.404422 A    
C143  H96   1.106703 S    
Cr3   O25   1.969619 S    
C144  H93   1.110402 S    
C95   C112  1.489625 S    
C48   C108  1.479457 S    
C137  H81   1.107299 S    
C91   C110  1.481842 S    
C37   C49   1.390346 A    
C18   C69   1.438213 S    
C90   C117  1.487182 S    
C39   C51   1.389157 A    
C132  H62   1.110335 S    
C30   C42   1.423185 A    
C120  O74   1.399038 S    
C29   C89   1.423860 A    
C136  H72   1.109426 S    
C128  H52   1.107603 S    
C142  H87   1.105601 S    
C82   C94   1.426817 A    
C76   C88   1.416883 A    
C116  O66   1.398182 S    
C47   C107  1.488597 S    
C14   C67   1.447652 S    
C117  O68   1.399076 S    
C97   O27   1.223130 D    
H1    C56   1.086052 S    
C138  H78   1.111622 S    
C80   C121  1.522942 S    
C114  O62   1.398280 S    
O5    Cr2   2.006255 S    
O7    Cr4   2.007272 S    
C130  H57   1.110010 S    
C8    C34   1.495556 S    
O2    Cr2   2.016491 S    
O13   Cr1   1.895933 S    
C72   C84   1.411847 A    
O72   H35   1.013333 S    
O1    C3    1.283659 A    
O15   Cr3   1.900099 S    
O2    C4    1.283518 A    
C77   C89   1.429772 A    
C100  O33   1.222947 D    
O4    C6    1.281501 A    
O11   Cr5   2.017887 S    
C104  O42   1.395955 S    
