data_mof_unit_41559.cif
_audit_creation_date              2012-12-11T15:50:39-0500
_audit_creation_method            fapswitch 2.2
_symmetry_space_group_name_H-M    P1
_symmetry_Int_Tables_number       1
_space_group_crystal_system       orthorhombic
_cell_length_a                    6.912474
_cell_length_b                    14.558821
_cell_length_c                    16.141101
_cell_angle_alpha                 90.0
_cell_angle_beta                  90.0
_cell_angle_gamma                 90.0
_cell_volume                      1624.39959402

loop_
_atom_site_label
_atom_site_type_symbol
_atom_type_description
_atom_site_fract_x
_atom_site_fract_y
_atom_site_fract_z
_atom_type_partial_charge
O1    O     O_R   0.638140 0.833910 0.163320 -0.518576
O2    O     O_R   0.361860 0.166090 0.836680 -0.518575
O3    O     O_R   0.361860 0.166090 0.663320 -0.518576
O4    O     O_R   0.638140 0.833910 0.336680 -0.518576
O5    O     O_R   0.138140 0.666090 0.336680 -0.518575
O6    O     O_R   0.861860 0.333910 0.663320 -0.518575
O7    O     O_R   0.861860 0.333910 0.836680 -0.518576
O8    O     O_R   0.138140 0.666090 0.163320 -0.518576
O9    O     O_R   0.308390 0.844930 0.336080 -0.547292
O10   O     O_R   0.691610 0.155070 0.663920 -0.547292
O11   O     O_R   0.691610 0.155070 0.836080 -0.547292
O12   O     O_R   0.308390 0.844930 0.163920 -0.547292
O13   O     O_R   0.808390 0.655070 0.163920 -0.547292
O14   O     O_R   0.191610 0.344930 0.836080 -0.547292
O15   O     O_R   0.191610 0.344930 0.663920 -0.547292
O16   O     O_R   0.808390 0.655070 0.336080 -0.547292
C1    C     C_R   0.477871 0.865938 0.366020 0.717951
C2    C     C_R   0.522129 0.134062 0.633980 0.717951
C3    C     C_R   0.522129 0.134062 0.866020 0.717952
C4    C     C_R   0.477871 0.865938 0.133980 0.717952
C5    C     C_R   0.977871 0.634062 0.133980 0.717951
C6    C     C_R   0.022129 0.365938 0.866020 0.717952
C7    C     C_R   0.022129 0.365938 0.633980 0.717951
C8    C     C_R   0.977871 0.634062 0.366020 0.717951
O17   O     O_3   0.471620 0.691320 0.250000 -0.361961
O18   O     O_3   0.528380 0.308680 0.750000 -0.361961
O19   O     O_3   0.971620 0.808680 0.250000 -0.361961
O20   O     O_3   0.028380 0.191320 0.750000 -0.361961
V1    V     V_3+5 0.196770 0.760880 0.250000 1.479423
V2    V     V_3+5 0.803230 0.239120 0.750000 1.479423
V3    V     V_3+5 0.696770 0.739120 0.250000 1.479423
V4    V     V_3+5 0.303230 0.260880 0.750000 1.479423
C9    C     C_R   0.834209 0.507622 0.451033 -0.260922
C10   C     C_R   0.165791 0.492378 0.548966 -0.260922
C11   C     C_R   0.165791 0.492378 0.951033 -0.260922
C12   C     C_R   0.834209 0.507622 0.048966 -0.260922
C13   C     C_R   0.334209 0.992378 0.048966 -0.260922
C14   C     C_R   0.665791 0.007622 0.951033 -0.260922
C15   C     C_R   0.665791 0.007622 0.548966 -0.260921
C16   C     C_R   0.334209 0.992378 0.451033 -0.260921
H1    H     H_    0.706088 0.512107 0.412584 0.147819
H2    H     H_    0.293912 0.487893 0.587416 0.147819
H3    H     H_    0.293912 0.487893 0.912584 0.147819
H4    H     H_    0.706088 0.512107 0.087416 0.147819
H5    H     H_    0.206088 0.987893 0.087416 0.147819
H6    H     H_    0.793912 0.012106 0.912584 0.147819
H7    H     H_    0.793912 0.012107 0.587416 0.147819
H8    H     H_    0.206088 0.987893 0.412584 0.147819
C17   C     C_R   0.841390 0.441132 0.514247 0.219749
C18   C     C_R   0.158610 0.558867 0.485753 0.219749
C19   C     C_R   0.158610 0.558868 0.014247 0.219749
C20   C     C_R   0.841390 0.441132 0.985753 0.219749
C21   C     C_R   0.341390 0.058867 0.985753 0.219749
C22   C     C_R   0.658610 0.941132 0.014247 0.219749
C23   C     C_R   0.658610 0.941132 0.485753 0.219749
C24   C     C_R   0.341390 0.058868 0.514247 0.219749
C25   C     C_R   0.009110 0.433544 0.564577 -0.097002
C26   C     C_R   0.990890 0.566456 0.435423 -0.097002
C27   C     C_R   0.990890 0.566456 0.064577 -0.097002
C28   C     C_R   0.009110 0.433544 0.935423 -0.097002
C29   C     C_R   0.509110 0.066456 0.935423 -0.097002
C30   C     C_R   0.490890 0.933544 0.064577 -0.097002
C31   C     C_R   0.490890 0.933544 0.435423 -0.097002
C32   C     C_R   0.509110 0.066456 0.564577 -0.097002
N1    N     N_3   0.679998 0.380122 0.525925 -0.649254
H9    H     H_    0.563093 0.399588 0.488742 0.218311
H10   H     H_    0.722849 0.314967 0.505764 0.210483
N2    N     N_3   0.320002 0.619878 0.474075 -0.649254
H11   H     H_    0.436907 0.600411 0.511258 0.218311
H12   H     H_    0.277151 0.685033 0.494236 0.210483
N3    N     N_3   0.320002 0.619878 0.025925 -0.649254
H13   H     H_    0.436906 0.600412 0.988742 0.218311
H14   H     H_    0.277151 0.685033 0.005765 0.210483
N4    N     N_3   0.679998 0.380122 0.974074 -0.649254
H15   H     H_    0.563093 0.399589 0.011258 0.218311
H16   H     H_    0.722849 0.314967 0.994236 0.210482
N5    N     N_3   0.179998 0.119878 0.974074 -0.649254
H17   H     H_    0.063093 0.100411 0.011258 0.218311
H18   H     H_    0.222849 0.185033 0.994236 0.210482
N6    N     N_3   0.820002 0.880122 0.025925 -0.649254
H19   H     H_    0.936907 0.899589 0.988742 0.218311
H20   H     H_    0.777151 0.814967 0.005764 0.210482
N7    N     N_3   0.820002 0.880122 0.474075 -0.649254
H21   H     H_    0.936907 0.899588 0.511258 0.218311
H22   H     H_    0.777151 0.814967 0.494235 0.210482
N8    N     N_3   0.179998 0.119878 0.525925 -0.649254
H23   H     H_    0.063093 0.100412 0.488742 0.218311
H24   H     H_    0.222849 0.185033 0.505765 0.210483

loop_
_geom_bond_atom_site_label_1
_geom_bond_atom_site_label_2
_ccdc_geom_bond_type
O17   V3    S    
O18   V4    S    
C9    C26   A    
O12   V1    S    
O19   V1    S    
C10   H2    S    
C12   C27   A    
C13   C30   A    
O15   V4    S    
N5    H17   S    
O16   V3    S    
C15   C32   A    
O11   C3    A    
C16   C31   A    
N4    H16   S    
O8    V1    S    
C3    C29   S    
C5    C27   S    
C20   N4    S    
C6    C28   S    
N8    H24   S    
C9    C17   A    
O1    V3    S    
C17   C25   A    
O3    C2    A    
O2    V4    S    
C16   H8    S    
C20   C28   A    
C21   C29   A    
C15   C23   A    
O11   V2    S    
N2    H11   S    
C16   C24   A    
C23   C31   A    
C10   C25   A    
C24   C32   A    
C11   H3    S    
C22   N6    S    
C12   C20   A    
O9    V1    S    
C14   C29   A    
C13   C21   A    
O15   C7    A    
O16   C8    A    
O7    V2    S    
C19   N3    S    
O5    V1    S    
N5    H18   S    
O17   V1    S    
C10   C18   A    
N4    H15   S    
O19   V3    S    
C18   C26   A    
O20   V4    S    
N6    H20   S    
N3    H14   S    
N8    H23   S    
C22   C30   A    
N1    H10   S    
C11   C28   A    
C21   N5    S    
C23   N7    S    
O10   V2    S    
C24   N8    S    
N7    H21   S    
C14   C22   A    
O12   C4    A    
O8    C5    A    
O13   C5    A    
C17   N1    S    
O4    C1    A    
O9    C1    A    
N7    H22   S    
O18   V2    S    
C11   C19   A    
C12   H4    S    
C19   C27   A    
C13   H5    S    
C15   H7    S    
C7    C25   S    
O1    C4    A    
O6    V2    S    
O2    C3    A    
O13   V3    S    
O14   V4    S    
N6    H19   S    
O7    C6    A    
C9    H1    S    
O14   C6    A    
O20   V2    S    
N3    H13   S    
C1    C31   S    
C2    C32   S    
O5    C8    A    
O10   C2    A    
O6    C7    A    
C4    C30   S    
O3    V4    S    
C14   H6    S    
O4    V3    S    
C8    C26   S    
N1    H9    S    
N2    H12   S    
C18   N2    S    
