data_mof_unit_57709.cif
_audit_creation_date              2012-12-10T17:08:47-0500
_audit_creation_method            fapswitch 2.2
_symmetry_space_group_name_H-M    P1
_symmetry_Int_Tables_number       1
_space_group_crystal_system       triclinic
_cell_length_a                    27.816157
_cell_length_b                    11.028556
_cell_length_c                    9.809974
_cell_angle_alpha                 111.048236
_cell_angle_beta                  98.243464
_cell_angle_gamma                 91.014989
_cell_volume                      2771.79821515

loop_
_atom_site_label
_atom_site_type_symbol
_atom_type_description
_atom_site_fract_x
_atom_site_fract_y
_atom_site_fract_z
_atom_type_partial_charge
C1    C     C_R   0.496485 0.254082 0.440659 0.865482
C2    C     C_R   0.503516 0.745918 0.559341 0.856876
C3    C     C_R   0.102717 0.508214 0.522901 -0.053447
C4    C     C_R   0.900210 0.517312 0.536399 -0.050744
C5    C     C_R   0.127293 0.398253 0.524532 -0.033790
C6    C     C_R   0.875517 0.626422 0.532353 -0.037866
C7    C     C_R   0.100415 0.285088 0.509877 -0.211529
C8    C     C_R   0.902392 0.740656 0.550441 -0.216231
C9    C     C_R   0.128859 0.614492 0.513543 -0.062837
C10   C     C_R   0.873918 0.410056 0.542975 -0.060990
C11   C     C_R   0.354206 0.499313 0.503984 -0.172565
C12   C     C_R   0.645913 0.502729 0.498767 -0.170711
C13   C     C_R   0.975788 0.407521 0.547539 0.027242
C14   C     C_R   0.027320 0.619800 0.516628 0.025239
C15   C     C_R   0.977410 0.627445 0.534612 0.086030
C16   C     C_R   0.025714 0.399728 0.529670 0.085094
C17   C     C_R   0.951246 0.516669 0.537388 -0.068855
C18   C     C_R   0.051856 0.510169 0.525663 -0.069072
C19   C     C_R   0.950179 0.315954 0.587819 0.448962
C20   C     C_R   0.052683 0.711369 0.475705 0.449329
C21   C     C_R   0.899203 0.311953 0.572870 -0.253570
C22   C     C_R   0.103534 0.713826 0.486803 -0.249454
C23   C     C_R   0.407330 0.499592 0.500979 0.869836
C24   C     C_R   0.592648 0.500370 0.498868 0.871374
C25   C     C_R   0.049834 0.282139 0.501573 0.210705
C26   C     C_R   0.953107 0.744695 0.562376 0.212277
C27   C     C_2   0.494566 0.114798 0.407131 -0.329008
C28   C     C_2   0.505438 0.885201 0.592866 -0.330952
C29   C     C_2   0.500909 0.069553 0.516684 -0.144285
C30   C     C_2   0.499099 0.930445 0.483313 -0.142003
C31   C     C_2   0.504234 0.510413 0.081329 -0.037079
C32   C     C_2   0.495821 0.489442 0.918641 -0.067829
C33   C     C_R   0.177918 0.400337 0.527547 0.588121
C34   C     C_R   0.824621 0.621828 0.522085 0.594234
C35   C     C_R   0.179495 0.613163 0.517737 0.613552
C36   C     C_R   0.823022 0.408792 0.531494 0.595582
C37   C     C_R   0.269340 0.462560 0.380669 0.343840
C38   C     C_R   0.717413 0.466905 0.373631 0.347832
C39   C     C_R   0.319830 0.464839 0.372306 0.284225
C40   C     C_R   0.665976 0.467339 0.366317 0.274962
C41   C     C_R   0.337798 0.536874 0.641235 -0.261571
C42   C     C_R   0.677128 0.544250 0.635525 -0.251383
C43   C     C_R   0.288279 0.541608 0.649834 0.122306
C44   C     C_R   0.727410 0.550627 0.643095 0.117691
C45   C     C_R   0.254059 0.504639 0.519364 0.244577
C46   C     C_R   0.747615 0.511461 0.512078 0.245992
Cu1   Cu    Cu3+1 0.508480 0.521810 0.644910 0.951387
Cu2   Cu    Cu3+1 0.491520 0.478190 0.355090 1.007375
H1    H     H_    0.363564 0.565010 0.743201 0.204525
H2    H     H_    0.662520 0.573931 0.738306 0.207563
H3    H     H_    0.512039 0.951238 0.707893 0.156435
H4    H     H_    0.487963 0.048762 0.292104 0.155674
H5    H     H_    0.467461 0.417129 0.845530 0.161956
H6    H     H_    0.532636 0.582607 0.154415 0.168098
H7    H     H_    0.547945 0.622528 0.934575 0.199611
H8    H     H_    0.452010 0.377599 0.065462 0.208849
H9    H     H_    0.118077 0.195332 0.494421 0.187345
H10   H     H_    0.884517 0.829974 0.564866 0.186385
H11   H     H_    0.879711 0.236521 0.594448 0.184036
H12   H     H_    0.122800 0.788824 0.463889 0.184911
H13   H     H_    0.492512 0.864692 0.368089 0.182317
H14   H     H_    0.507497 0.135306 0.631907 0.184311
N1    N     N_R   0.202918 0.507602 0.526218 -0.440890
N2    N     N_R   0.799505 0.513206 0.519579 -0.435993
N3    N     N_2   0.478780 0.445430 0.137360 -0.275732
N4    N     N_2   0.521220 0.554570 0.862640 -0.283216
O1    O     O_R   0.504520 0.332330 0.577400 -0.582549
O2    O     O_R   0.495480 0.667670 0.422600 -0.588017
O3    O     O_R   0.490210 0.295500 0.332650 -0.569079
O4    O     O_R   0.509790 0.704500 0.667350 -0.575059
O5    O     O_R   0.437420 0.518430 0.622370 -0.602209
O6    O     O_R   0.562580 0.481570 0.377630 -0.519769
O7    O     O_R   0.423110 0.481600 0.377610 -0.506983
O8    O     O_R   0.576890 0.518400 0.622390 -0.593606
O9    O     O_2   0.201920 0.295630 0.529860 -0.528908
O10   O     O_2   0.800423 0.725119 0.515654 -0.523239
O11   O     O_2   0.797230 0.304743 0.533365 -0.524034
O12   O     O_2   0.205088 0.715636 0.511464 -0.523579
N5    N     N_3   0.273301 0.583968 0.792322 -0.558996
H15   H     H_    0.250971 0.508828 0.797082 0.246340
H16   H     H_    0.252585 0.664089 0.802841 0.240413
N6    N     N_3   0.757574 0.596388 0.785462 -0.550634
H17   H     H_    0.780062 0.676481 0.793684 0.238848
H18   H     H_    0.779683 0.522612 0.792743 0.246583
O13   O     O_3   0.635043 0.434791 0.233081 -0.713090
H19   H     H_    0.652062 0.458345 0.163059 0.331379
O14   O     O_3   0.336172 0.435166 0.238362 -0.705720
H20   H     H_    0.312083 0.460413 0.170538 0.337713
O15   O     O_3   0.739431 0.421687 0.248977 -0.700855
H21   H     H_    0.716613 0.356368 0.168142 0.338428
O16   O     O_3   0.233898 0.418468 0.256364 -0.707381
H22   H     H_    0.247512 0.353859 0.174634 0.339161
O17   O     O_3   0.975509 0.242620 0.658328 -0.718209
H23   H     H_    0.952265 0.186546 0.681758 0.317704
O18   O     O_3   0.027082 0.785990 0.407517 -0.718326
H24   H     H_    0.050129 0.841924 0.383210 0.317585
N7    N     N_3   0.023084 0.157036 0.442895 -0.538523
H25   H     H_    0.030024 0.108725 0.335288 0.213791
H26   H     H_    0.036550 0.102595 0.506153 0.253660
N8    N     N_3   0.979654 0.870108 0.623677 -0.540119
H27   H     H_    0.966547 0.925296 0.560933 0.255062
H28   H     H_    0.972039 0.917240 0.730728 0.211676

loop_
_geom_bond_atom_site_label_1
_geom_bond_atom_site_label_2
_ccdc_geom_bond_type
O14   H20   S    
O17   H23   S    
C27   C29   D    
C8    C26   A    
C14   C18   A    
O18   H24   S    
C39   O14   S    
Cu2   O3    S    
N7    H25   S    
O13   H19   S    
C38   O15   S    
C32   N4    D    
C19   C21   A    
C23   O7    A    
C21   H11   S    
C44   N6    S    
C36   O11   S    
C22   H12   S    
C28   H3    S    
C9    C22   A    
C43   N5    S    
H8    N3    S    
C3    C18   A    
C31   N3    D    
Cu1   O1    S    
C12   C42   A    
C8    H10   S    
C33   O9    S    
Cu1   Cu2   S    
C5    C33   A    
Cu2   N3    S    
Cu1   N4    S    
C19   O17   S    
C1    C27   S    
C41   C43   A    
C42   C44   A    
Cu2   O6    S    
C41   H1    S    
N7    H26   S    
C44   C46   A    
C10   C21   A    
C37   O16   S    
C14   C20   A    
C4    C6    A    
O16   H22   S    
C5    C7    A    
C13   C19   A    
C15   C26   A    
C6    C8    A    
C45   N1    S    
C1    O3    A    
C6    C34   A    
C46   N2    S    
C40   O13   S    
C12   C40   A    
Cu1   O4    S    
C29   C30   S    
C3    C9    A    
C23   O5    A    
C31   C32   S    
C33   N1    A    
C34   N2    A    
Cu2   O2    S    
C11   C39   A    
C43   C45   A    
Cu1   O5    S    
C42   H2    S    
C4    C17   A    
C25   N7    S    
C20   O18   S    
C20   C22   A    
N6    H18   S    
C13   C16   A    
C37   C45   A    
C32   H5    S    
H7    N4    S    
C27   H4    S    
C24   O6    A    
N5    H16   S    
N8    H28   S    
C16   C25   A    
C15   C17   A    
C29   H14   S    
Cu2   O7    S    
Cu1   O8    S    
C3    C5    A    
C35   N1    A    
C12   C24   S    
C35   O12   S    
C2    O2    A    
C7    C25   A    
C13   C17   A    
C28   C30   D    
C37   C39   A    
C36   N2    A    
C38   C40   A    
C24   O8    A    
C11   C23   S    
N8    H27   S    
C1    O1    A    
C10   C36   A    
C11   C41   A    
C31   H6    S    
C38   C46   A    
N5    H15   S    
C16   C18   A    
N6    H17   S    
C30   H13   S    
C34   O10   S    
C9    C35   A    
C14   C15   A    
C2    C28   S    
O15   H21   S    
C2    O4    A    
C4    C10   A    
C7    H9    S    
C26   N8    S    
