data_mof_unit_6206.cif
_audit_creation_date              2013-03-05T16:47:20-0500
_audit_creation_method            fapswitch 2.2
_symmetry_space_group_name_H-M    P1
_symmetry_Int_Tables_number       1
_space_group_crystal_system       triclinic
_cell_length_a                    10.961347
_cell_length_b                    10.908762
_cell_length_c                    9.783126
_cell_angle_alpha                 90.210317
_cell_angle_beta                  90.103191
_cell_angle_gamma                 90.441706
_cell_volume                      1169.77000672

loop_
_atom_site_label
_atom_site_type_symbol
_atom_site_description
_atom_site_fract_x
_atom_site_fract_y
_atom_site_fract_z
_atom_type_partial_charge
O1    O     O_R   0.500020 0.321960 0.617040 -0.481216
O2    O     O_R   0.499980 0.321920 0.382900 -0.620011
C1    C     C_R   0.495925 0.265726 0.499664 0.856914
O3    O     O_R   0.319660 0.500030 0.617070 -0.582344
O4    O     O_R   0.319620 0.499990 0.382930 -0.576494
C2    C     C_R   0.262913 0.503139 0.499162 0.800497
Cu1   Cu    Cu3+1 0.500020 0.500020 0.638630 1.064739
Cu2   Cu    Cu3+1 0.499980 0.499980 0.361370 1.089294
O5    O     O_R   0.500020 0.678080 0.617100 -0.551836
O6    O     O_R   0.499980 0.678040 0.382960 -0.533089
O7    O     O_R   0.680380 0.500010 0.617070 -0.585949
O8    O     O_R   0.680340 0.499970 0.382930 -0.513504
C3    C     C_R   0.505255 0.734510 0.500391 0.729251
C4    C     C_R   0.737988 0.505810 0.500198 0.829421
H1    H     H_    0.250429 0.620783 0.879129 0.173381
C5    C     C_R   0.203872 0.689634 0.078345 0.752623
C6    C     C_R   0.158208 0.660718 0.207609 -0.171143
H2    H     H_    0.148897 0.732449 0.283659 0.149859
C7    C     C_R   0.122808 0.539847 0.237985 0.071407
C8    C     C_R   0.133611 0.448283 0.137646 -0.037909
H3    H     H_    0.105456 0.354977 0.159181 0.186206
C9    C     C_R   0.178615 0.477774 0.008146 -0.241407
H4    H     H_    0.186117 0.407226 0.930628 0.217901
C10   C     C_R   0.214034 0.598253 0.978701 -0.184825
C11   C     C_R   0.937062 0.509663 0.374530 0.325431
C12   C     C_R   0.873346 0.514017 0.499580 -0.183072
C13   C     C_R   0.941159 0.532592 0.621059 0.073159
C14   C     C_R   0.067239 0.522036 0.619074 -0.159818
H5    H     H_    0.116860 0.532422 0.714016 0.167346
C15   C     C_R   0.129795 0.509845 0.495837 -0.144274
C16   C     C_R   0.064180 0.513065 0.371485 -0.084474
C17   C     C_R   0.891543 0.720979 0.746829 -0.275911
H6    H     H_    0.939885 0.770879 0.667833 0.203451
C18   C     C_R   0.831472 0.785377 0.850660 0.387171
C19   C     C_R   0.762892 0.719011 0.945970 -0.134541
H7    H     H_    0.711475 0.765864 0.024474 0.234172
C20   C     C_R   0.762481 0.590949 0.943604 -0.187549
H8    H     H_    0.709958 0.542571 0.019573 0.230846
C21   C     C_R   0.828723 0.525489 0.845779 0.374756
C22   C     C_R   0.887955 0.592163 0.741856 -0.074109
C23   C     C_2   0.496534 0.932905 0.391624 -0.221767
C24   C     C_2   0.527719 0.866086 0.501780 0.172068
H9    H     H_    0.459281 0.888608 0.300867 0.207891
C25   C     C_2   0.505340 0.066750 0.388243 -0.108089
C26   C     C_2   0.483181 0.133896 0.500074 -0.203685
H10   H     H_    0.525741 0.109992 0.290998 0.196363
H11   H     H_    0.454620 0.091524 0.595097 0.212018
C27   C     C_2   0.467272 0.406602 0.922896 0.708406
N1    N     N_2   0.498640 0.498660 0.846910 -0.331295
H12   H     H_    0.534378 0.575769 0.891382 0.228235
C28   C     C_2   0.484286 0.403307 0.075514 0.037147
N2    N     N_2   0.498610 0.498630 0.153040 0.047330
H13   H     H_    0.483243 0.313643 0.122760 0.130064
N3    N     N_R   0.829469 0.393288 0.848806 0.163272
O9    O     O_R   0.919715 0.332227 0.796581 -0.299036
O10   O     O_R   0.744489 0.333163 0.913385 -0.294436
N4    N     N_R   0.595151 0.918146 0.614810 0.120872
O11   O     O_R   0.566539 0.890199 0.739952 -0.299845
O12   O     O_R   0.691709 0.985186 0.592260 -0.280102
F1    F     F_    0.422626 0.303222 0.863085 -0.624061
F2    F     F_    0.238186 0.806369 0.049560 -0.620247
F3    F     F_    0.470676 0.607702 0.100499 -0.593503
N5    N     N_R   0.873869 0.524202 0.248943 0.116567
O13   O     O_R   0.836693 0.632772 0.215146 -0.386951
O14   O     O_R   0.855920 0.430469 0.168757 -0.341932
N6    N     N_R   0.839211 0.917030 0.858452 0.188476
O15   O     O_R   0.911546 0.977759 0.777407 -0.259833
O16   O     O_R   0.777340 0.977120 0.949875 -0.258274

loop_
_geom_bond_atom_site_label_1
_geom_bond_atom_site_label_2
_geom_bond_distance
_ccdc_geom_bond_type
C5    C10   1.396923 A    
C11   C16   1.393973 A    
O4    Cu2   1.988587 S    
N6    O16   1.301666 A    
N5    O14   1.300039 A    
C20   H8    1.077995 S    
C23   C24   1.348267 D    
Cu2   N2    2.038145 S    
C7    C8    1.403693 A    
O8    C4    1.309877 A    
C13   C22   1.470260 S    
Cu2   O8    1.987830 S    
C7    C16   1.485607 S    
C17   H6    1.083735 S    
C18   N6    1.439750 S    
C9    C10   1.398695 A    
C14   C15   1.394502 A    
C6    H2    1.083281 S    
N4    O11   1.301091 A    
C1    C26   1.443824 S    
Cu1   Cu2   2.712468 S    
C20   C21   1.399469 A    
O7    C4    1.308648 A    
N2    F3    1.335371 S    
C4    C12   1.485736 S    
Cu1   O7    1.988586 S    
C23   H9    1.086776 S    
C12   C13   1.413758 A    
O4    C2    1.297372 A    
O3    Cu1   1.987832 S    
C27   N1    1.296313 D    
C24   N4    1.441382 S    
O3    C2    1.310218 A    
C3    C24   1.454443 S    
C19   C20   1.397084 A    
C8    C9    1.398112 A    
C27   F1    1.356203 S    
O2    C1    1.299057 A    
C26   H11   1.085280 S    
C15   C16   1.412819 A    
C18   C19   1.399190 A    
C23   C25   1.463022 S    
N3    O10   1.301063 A    
N4    O12   1.301466 A    
C21   N3    1.442653 S    
C5    C6    1.397152 A    
C5    F2    1.355742 S    
C28   H13   1.083360 S    
C28   N2    1.293233 D    
C21   C22   1.408809 A    
C17   C22   1.406138 A    
N6    O15   1.301627 A    
C8    H3    1.082871 S    
Cu1   N1    2.037819 S    
Cu2   O6    1.953093 S    
N1    H12   1.020751 S    
C11   N5    1.419347 S    
C13   C14   1.387851 A    
Cu1   O5    1.954569 S    
O5    C3    1.300285 A    
C9    H4    1.082162 S    
C14   H5    1.080675 S    
O1    Cu1   1.953093 S    
C6    C7    1.404591 A    
C11   C12   1.410630 A    
N3    O9    1.301064 A    
H1    C10   1.081718 S    
C2    C15   1.461860 S    
C27   C28   1.504942 S    
O2    Cu2   1.954568 S    
C25   C26   1.338018 D    
C19   H7    1.082520 S    
C25   H10   1.086300 S    
N5    O13   1.299201 A    
O1    C1    1.300439 A    
O6    C3    1.302564 A    
C17   C18   1.401145 A    
