data_mof_unit_23123.cif
_audit_creation_date              2013-03-05T15:55:21-0500
_audit_creation_method            fapswitch 2.2
_symmetry_space_group_name_H-M    P1
_symmetry_Int_Tables_number       1
_space_group_crystal_system       triclinic
_cell_length_a                    14.714956
_cell_length_b                    14.729346
_cell_length_c                    33.050151
_cell_angle_alpha                 96.058827
_cell_angle_beta                  96.247964
_cell_angle_gamma                 61.167199
_cell_volume                      6226.44415846

loop_
_atom_site_label
_atom_site_type_symbol
_atom_site_description
_atom_site_fract_x
_atom_site_fract_y
_atom_site_fract_z
_atom_type_partial_charge
O1    O     O_R   0.679450 0.499830 0.463150 -0.501307
O2    O     O_R   0.480650 0.664000 0.464630 -0.530683
C1    C     C_R   0.390584 0.700373 0.446149 0.780744
O3    O     O_R   0.323930 0.675950 0.455370 -0.541883
O4    O     O_R   0.354700 0.475360 0.451930 -0.561180
C2    C     C_R   0.403020 0.384429 0.434744 0.810541
O5    O     O_R   0.494470 0.320860 0.448390 -0.497169
O6    O     O_R   0.662580 0.357570 0.460050 -0.505877
C3    C     C_R   0.702881 0.408713 0.447674 0.893860
O7    O     O_R   0.680900 0.502040 0.551870 -0.546134
O8    O     O_R   0.481990 0.666040 0.546870 -0.535557
C4    C     C_R   0.392423 0.703885 0.560608 0.752612
O9    O     O_R   0.325370 0.678160 0.544080 -0.517105
O10   O     O_R   0.356040 0.477400 0.534170 -0.509349
C5    C     C_R   0.405537 0.387902 0.548596 0.888790
O11   O     O_R   0.495910 0.323070 0.537100 -0.488654
O12   O     O_R   0.663920 0.359620 0.542290 -0.495981
C6    C     C_R   0.702913 0.412940 0.562572 0.841654
Cr1   Cr    Cr6+3 0.576280 0.580550 0.506370 1.037859
Cr2   Cr    Cr6+3 0.346780 0.572400 0.496520 1.039527
Cr3   Cr    Cr6+3 0.576960 0.347070 0.497150 1.166782
O13   O     O_3   0.500010 0.500010 0.500010 -0.377190
H1    H     H_    0.446430 0.161592 0.107690 0.231393
C7    C     C_R   0.359572 0.359312 0.394604 -0.170235
C8    C     C_R   0.272550 0.439228 0.373769 -0.208025
C9    C     C_R   0.260410 0.429374 0.330921 0.390025
C10   C     C_R   0.329006 0.338120 0.309672 -0.039843
C11   C     C_R   0.402026 0.250658 0.330789 -0.131691
C12   C     C_R   0.415231 0.260460 0.373815 -0.102594
C13   C     C_R   0.401972 0.245495 0.165247 -0.100088
C14   C     C_R   0.388109 0.230505 0.123071 -0.098206
C15   C     C_R   0.225721 0.393127 0.120784 -0.211991
C16   C     C_R   0.236718 0.406732 0.163687 0.351650
C17   C     C_R   0.322697 0.330936 0.185756 -0.073436
C18   C     C_1   0.324398 0.336022 0.229508 0.090731
C19   C     C_1   0.326077 0.337083 0.265948 0.148312
C20   C     C_R   0.297545 0.298938 0.100917 -0.130157
N1    N     N_R   0.744089 0.375130 0.220028 -0.188199
N2    N     N_R   0.738638 0.380875 0.260151 -0.211442
C21   C     C_R   0.762842 0.368500 0.410297 -0.341326
C22   C     C_R   0.781669 0.435866 0.389139 0.252997
C23   C     C_R   0.803466 0.412594 0.347925 0.309385
C24   C     C_R   0.811044 0.320049 0.328040 -0.255886
C25   C     C_R   0.809586 0.244411 0.350479 -0.204342
C26   C     C_R   0.786036 0.268629 0.391909 0.346031
N3    N     N_R   0.896305 0.226858 0.265179 -0.241817
N4    N     N_R   0.901738 0.221050 0.224953 -0.247062
C27   C     C_R   0.825961 0.295479 0.201798 0.662185
C28   C     C_R   0.814855 0.307349 0.283423 0.573897
C29   C     C_R   0.841999 0.381729 0.144707 0.154189
C30   C     C_R   0.863179 0.380472 0.104365 0.382870
C31   C     C_R   0.866024 0.213190 0.089444 -0.192370
C32   C     C_R   0.844827 0.213811 0.130356 -0.143247
C33   C     C_R   0.838047 0.296273 0.158311 -0.132887
C34   C     C_R   0.890111 0.289422 0.078389 -0.155491
N5    N     N_R   0.424342 0.758081 0.226151 -0.199349
N6    N     N_R   0.424484 0.754843 0.266226 -0.209999
C35   C     C_R   0.368895 0.759493 0.409779 -0.045755
C36   C     C_R   0.280574 0.779297 0.383763 -0.175419
C37   C     C_R   0.270327 0.812513 0.344613 -0.089608
C38   C     C_R   0.350183 0.829006 0.331775 -0.015292
C39   C     C_R   0.433795 0.820466 0.359793 -0.046529
C40   C     C_R   0.442333 0.784933 0.398369 -0.161621
N7    N     N_R   0.287716 0.925312 0.269593 -0.197821
N8    N     N_R   0.287236 0.928366 0.229476 -0.236008
C41   C     C_R   0.354976 0.844619 0.207143 0.554602
C42   C     C_R   0.355451 0.837865 0.288457 0.636985
C43   C     C_R   0.259971 0.841728 0.140423 -0.143549
C44   C     C_R   0.238595 0.866167 0.099229 0.289062
C45   C     C_R   0.398911 0.878042 0.100638 0.350868
C46   C     C_R   0.420491 0.854552 0.142116 -0.212003
C47   C     C_R   0.346230 0.845257 0.162522 -0.139474
C48   C     C_R   0.302312 0.894865 0.080456 -0.266652
H2    H     H_    0.222489 0.761693 0.392895 0.177072
H3    H     H_    0.508877 0.773369 0.419089 0.174603
N9    N     N_R   0.293954 0.419580 0.768754 -0.179068
N10   N     N_R   0.296533 0.419569 0.728664 -0.203475
C49   C     C_R   0.362352 0.364687 0.582705 -0.323794
C50   C     C_R   0.275316 0.444887 0.602321 0.249631
C51   C     C_R   0.251409 0.430577 0.640343 0.302933
C52   C     C_R   0.314428 0.336831 0.659401 -0.204030
C53   C     C_R   0.390773 0.251340 0.637226 -0.205968
C54   C     C_R   0.413596 0.264946 0.598568 0.300548
N11   N     N_R   0.316888 0.251448 0.720680 -0.200871
N12   N     N_R   0.314956 0.251065 0.760826 -0.211634
C55   C     C_R   0.303427 0.335142 0.785491 0.642518
C56   C     C_R   0.308109 0.335583 0.703800 0.586961
C57   C     C_R   0.221682 0.409183 0.851802 0.279450
C58   C     C_R   0.218893 0.399334 0.893604 -0.211083
C59   C     C_R   0.390673 0.246696 0.892492 -0.180695
C60   C     C_R   0.392154 0.255119 0.850576 0.276910
C61   C     C_R   0.305053 0.332832 0.829887 -0.179084
C62   C     C_R   0.296956 0.308943 0.912274 -0.116772
C63   C     C_R   0.758297 0.380380 0.603077 -0.167380
C64   C     C_R   0.760326 0.457109 0.631539 -0.165878
C65   C     C_R   0.787613 0.438534 0.672821 -0.067137
C66   C     C_R   0.813324 0.340517 0.686118 -0.022123
C67   C     C_R   0.825054 0.257643 0.657178 -0.106135
C68   C     C_R   0.796658 0.278528 0.615415 0.298294
C69   C     C_R   0.847572 0.225079 0.826101 -0.158209
C70   C     C_R   0.881290 0.212209 0.867794 0.262827
C71   C     C_R   0.847558 0.392124 0.876675 0.264146
C72   C     C_R   0.812233 0.405951 0.835194 -0.155652
C73   C     C_R   0.822716 0.319232 0.809329 0.004829
C74   C     C_1   0.818781 0.324077 0.765601 0.160792
C75   C     C_1   0.817581 0.329487 0.729386 0.075726
C76   C     C_R   0.891996 0.292264 0.892125 -0.242066
H4    H     H_    0.735187 0.534183 0.621882 0.199579
H5    H     H_    0.517456 0.717081 0.692318 0.176397
H6    H     H_    0.538414 0.662107 0.620955 0.142286
C77   C     C_R   0.376356 0.757994 0.601417 -0.092023
C78   C     C_R   0.277642 0.836098 0.613803 -0.085322
C79   C     C_R   0.264794 0.864125 0.656252 -0.004530
C80   C     C_R   0.352410 0.818727 0.684331 0.058905
C81   C     C_R   0.450451 0.751379 0.670789 -0.083201
C82   C     C_R   0.462235 0.720627 0.629915 -0.114877
C83   C     C_R   0.404848 0.861570 0.833046 0.321962
C84   C     C_R   0.390863 0.885202 0.875208 -0.182593
C85   C     C_R   0.229295 0.875766 0.864849 -0.180867
C86   C     C_R   0.242941 0.850496 0.823300 -0.086036
C87   C     C_R   0.328240 0.849542 0.807012 -0.026854
C88   C     C_1   0.336944 0.838823 0.763730 0.185772
C89   C     C_1   0.343470 0.831033 0.727542 0.129132
C90   C     C_R   0.296921 0.901853 0.890408 -0.100490
H7    H     H_    0.161826 0.880086 0.876976 0.207355
O14   O     O_R   0.170070 0.978950 0.027680 -0.498771
O15   O     O_R   0.001760 0.175230 0.026640 -0.540129
C91   C     C_R   0.958629 0.266488 0.044344 0.911006
O16   O     O_R   0.984760 0.333570 0.037150 -0.461881
O17   O     O_R   0.183410 0.309240 0.041890 -0.523622
C92   C     C_R   0.274087 0.261185 0.059653 0.829329
O18   O     O_R   0.340240 0.172500 0.045430 -0.523182
O19   O     O_R   0.309670 0.000990 0.032050 -0.511068
C93   C     C_R   0.260698 0.957282 0.043568 0.857875
O20   O     O_R   0.168330 0.982130 0.939200 -0.513399
O21   O     O_R   0.000140 0.178170 0.944610 -0.502670
C94   C     C_R   0.958453 0.269226 0.931345 0.891293
O22   O     O_R   0.983010 0.336750 0.948660 -0.493081
O23   O     O_R   0.181800 0.312190 0.959860 -0.524497
C95   C     C_R   0.272961 0.266346 0.946405 0.841821
O24   O     O_R   0.338500 0.175680 0.956950 -0.539319
O25   O     O_R   0.308050 0.003930 0.950020 -0.531499
C96   C     C_R   0.258336 0.961418 0.929641 0.832190
Cr4   Cr    Cr6+3 0.087320 0.083240 0.984860 1.117957
Cr5   Cr    Cr6+3 0.087720 0.316210 0.996740 1.163897
Cr6   Cr    Cr6+3 0.317350 0.090340 0.995890 1.082695
O26   O     O_3   0.164130 0.163270 0.992500 -0.397680
N13   N     N_R   0.781419 0.193461 0.414769 0.163875
O27   O     O_R   0.714223 0.160589 0.403577 -0.361994
O28   O     O_R   0.839608 0.163150 0.448347 -0.294350
N14   N     N_R   0.860530 0.471558 0.091186 0.586097
O29   O     O_R   0.808189 0.512528 0.057646 -0.675618
O30   O     O_R   0.808189 0.512528 0.057646 -0.675618
N15   N     N_R   0.820334 0.482247 0.326284 0.178429
O31   O     O_R   0.745663 0.575856 0.320632 -0.287495
O32   O     O_R   0.906052 0.448350 0.308157 -0.276666
C97   C     C_2   0.828948 0.142112 0.330093 0.573563
H8    H     H_    0.806833 0.135970 0.297940 0.047069
O33   O     O_2   0.872522 0.062974 0.348655 -0.457079
N16   N     N_R   0.828941 0.468808 0.172333 0.151708
O34   O     O_R   0.760163 0.562617 0.163401 -0.245009
O35   O     O_R   0.890003 0.455109 0.205297 -0.275002
C98   C     C_2   0.852153 0.140346 0.057604 0.605737
H9    H     H_    0.861894 0.066317 0.065106 0.077212
O36   O     O_2   0.824001 0.165063 0.022464 -0.453178
C99   C     C_2   0.828307 0.129535 0.143604 0.477806
H10   H     H_    0.872761 0.050270 0.131448 0.086005
O37   O     O_2   0.763964 0.148009 0.167988 -0.489632
N17   N     N_R   0.152570 0.860717 0.076360 0.106037
O38   O     O_R   0.057784 0.929107 0.083963 -0.415346
O39   O     O_R   0.169048 0.793819 0.045318 -0.290394
C100  C     C_2   0.497473 0.168936 0.187680 0.545214
H11   H     H_    0.512057 0.182097 0.220067 0.045230
O40   O     O_2   0.561714 0.090262 0.170182 -0.460862
C101  C     C_2   0.177751 0.821764 0.318201 0.573899
H12   H     H_    0.116872 0.815276 0.331428 0.119645
O41   O     O_2   0.167863 0.834896 0.281837 -0.462365
C102  C     C_2   0.515878 0.844635 0.349984 0.486766
H13   H     H_    0.585103 0.823151 0.370422 0.124231
O42   O     O_2   0.506604 0.891009 0.320009 -0.501933
C103  C     C_2   0.192052 0.811163 0.159626 0.571402
H14   H     H_    0.114273 0.831724 0.146637 0.112660
O43   O     O_2   0.223199 0.759285 0.189479 -0.449800
N18   N     N_R   0.473152 0.888621 0.079460 0.184023
O44   O     O_R   0.499742 0.959934 0.091710 -0.329781
O45   O     O_R   0.508840 0.831516 0.046241 -0.239958
C104  C     C_2   0.519182 0.841304 0.164701 0.689376
H15   H     H_    0.521996 0.858666 0.197390 0.041980
O46   O     O_2   0.599490 0.807392 0.147402 -0.382766
N19   N     N_R   0.208450 0.540243 0.583329 0.163503
O47   O     O_R   0.213002 0.624650 0.596109 -0.332941
O48   O     O_R   0.147102 0.541310 0.551701 -0.319896
N20   N     N_R   0.484389 0.176553 0.574437 0.147444
O49   O     O_R   0.577462 0.114625 0.589267 -0.322029
O50   O     O_R   0.454813 0.156868 0.537520 -0.304518
C105  C     C_2   0.134920 0.484420 0.917059 0.621792
H16   H     H_    0.060258 0.533770 0.901895 0.136614
O51   O     O_2   0.150223 0.503750 0.953220 -0.454700
N21   N     N_R   0.161026 0.510768 0.659371 0.168807
O52   O     O_R   0.150168 0.603748 0.667260 -0.281167
O53   O     O_R   0.094539 0.488164 0.672507 -0.315609
C106  C     C_2   0.448317 0.147738 0.654101 0.619982
H17   H     H_    0.531321 0.113941 0.661732 0.096674
O54   O     O_2   0.403506 0.098307 0.658390 -0.467615
C107  C     C_2   0.464246 0.149525 0.307995 0.418399
H18   H     H_    0.544260 0.098656 0.317979 0.073497
O55   O     O_2   0.425984 0.121307 0.277973 -0.495507
N22   N     N_R   0.138379 0.494868 0.831294 0.100106
O56   O     O_R   0.121750 0.589186 0.841362 -0.333339
O57   O     O_R   0.081380 0.478417 0.801581 -0.343125
C108  C     C_2   0.489219 0.178043 0.915638 0.569853
H19   H     H_    0.549950 0.109730 0.900845 0.110564
O58   O     O_2   0.505578 0.200113 0.951391 -0.467664
N23   N     N_R   0.483166 0.186783 0.829122 0.103527
O59   O     O_R   0.528591 0.224612 0.809783 -0.327142
O60   O     O_R   0.515050 0.087347 0.825831 -0.324305
N24   N     N_R   0.900131 0.119768 0.885804 0.107014
O61   O     O_R   0.978615 0.030950 0.875813 -0.405746
O62   O     O_R   0.842719 0.125634 0.914287 -0.293432
C109  C     C_2   0.836225 0.140664 0.800745 0.599047
H20   H     H_    0.878480 0.061111 0.809443 0.104141
O63   O     O_2   0.776358 0.159540 0.770378 -0.475547
C110  C     C_2   0.868586 0.148989 0.669590 0.525302
H21   H     H_    0.864553 0.089363 0.648519 0.123941
O64   O     O_2   0.912986 0.123159 0.703089 -0.493866
N25   N     N_R   0.808494 0.196382 0.585418 0.102839
O65   O     O_R   0.866565 0.176003 0.555200 -0.297316
O66   O     O_R   0.750922 0.151574 0.585223 -0.316731
C111  C     C_2   0.761649 0.511832 0.819532 0.507411
H22   H     H_    0.779696 0.571255 0.833925 0.164537
O67   O     O_2   0.695646 0.535264 0.791116 -0.514105
N26   N     N_R   0.833464 0.480387 0.903593 0.135182
O68   O     O_R   0.884284 0.530159 0.899295 -0.364653
O69   O     O_R   0.777653 0.504660 0.934851 -0.224230
C112  C     C_2   0.480724 0.166292 0.397135 0.554690
H23   H     H_    0.549821 0.102022 0.384981 0.061942
O70   O     O_2   0.455628 0.158296 0.430073 -0.469411
C113  C     C_2   0.786948 0.523199 0.701890 0.546976
H24   H     H_    0.820079 0.507178 0.732889 0.079562
O71   O     O_2   0.750544 0.611848 0.691424 -0.485666
C114  C     C_2   0.474170 0.894120 0.902112 0.597565
H25   H     H_    0.516696 0.929129 0.891482 0.078791
O72   O     O_2   0.499418 0.857842 0.935585 -0.440730
N27   N     N_R   0.497233 0.849043 0.816668 0.100159
O73   O     O_R   0.588511 0.780414 0.830637 -0.330295
O74   O     O_R   0.490404 0.904394 0.787164 -0.310592
C115  C     C_2   0.192504 0.891236 0.582140 0.467918
H26   H     H_    0.195304 0.858205 0.551175 0.097603
O75   O     O_2   0.120559 0.977654 0.589435 -0.492250
C116  C     C_2   0.163439 0.829805 0.798392 0.532932
H27   H     H_    0.093776 0.843524 0.812114 0.100523
O76   O     O_2   0.174665 0.795717 0.762948 -0.486428
C117  C     C_2   0.159906 0.934024 0.671345 0.558353
H28   H     H_    0.091459 0.934342 0.655265 0.102729
O77   O     O_2   0.148720 0.992481 0.701684 -0.492257
C118  C     C_2   0.191111 0.528582 0.396993 0.566111
H29   H     H_    0.176591 0.518512 0.427272 0.079976
O78   O     O_2   0.139483 0.613647 0.382988 -0.473506
N28   N     N_R   0.160636 0.497265 0.185022 0.119231
O79   O     O_R   0.065621 0.513128 0.184780 -0.298805
O80   O     O_R   0.188901 0.557356 0.208357 -0.274739
C119  C     C_2   0.142658 0.479744 0.097548 0.574202
H30   H     H_    0.068676 0.530991 0.110332 0.130947
O81   O     O_2   0.158113 0.498056 0.064522 -0.452304
N29   N     N_R   0.179122 0.512354 0.308584 0.170389
O82   O     O_R   0.189062 0.593047 0.302827 -0.313501
O83   O     O_R   0.105097 0.499193 0.288258 -0.251553
N30   N     N_R   0.781562 0.526751 0.409573 0.165725
O84   O     O_R   0.850751 0.517251 0.439250 -0.310557
O85   O     O_R   0.707159 0.618640 0.401209 -0.349954

loop_
_geom_bond_atom_site_label_1
_geom_bond_atom_site_label_2
_geom_bond_distance
_ccdc_geom_bond_type
C72   C111  1.490345 S    
C78   C115  1.495621 S    
C71   N26   1.435469 S    
C7    C8    1.422966 A    
C70   C76   1.418919 A    
C97   H8    1.084506 S    
C25   C97   1.489603 S    
H6    C82   1.083363 S    
C26   N13   1.435821 S    
N17   O39   1.300993 A    
N17   O38   1.300377 A    
O25   Cr6   1.911139 S    
C64   C65   1.396864 A    
N11   C56   1.356297 A    
C16   C17   1.409882 A    
C57   N22   1.436114 S    
C91   O16   1.271468 A    
C109  O63   1.221021 D    
C66   C67   1.421572 A    
C13   C100  1.489107 S    
C101  O41   1.219377 D    
O4    Cr2   1.913231 S    
C107  H18   1.083194 S    
C31   C32   1.418502 A    
C27   C33   1.469229 S    
C4    O9    1.270878 A    
C98   O36   1.221496 D    
N3    C28   1.357038 A    
O8    Cr1   1.914594 S    
C9    C10   1.401841 A    
C29   C33   1.409130 A    
C106  O54   1.220728 D    
C11   C12   1.415739 A    
C23   N15   1.436973 S    
C31   C34   1.420755 A    
N13   O28   1.301198 A    
C17   C18   1.438133 S    
C60   N23   1.437112 S    
N12   C55   1.356936 A    
O4    C2    1.277053 A    
C51   C52   1.408824 A    
N23   O60   1.300696 A    
C5    C49   1.496162 S    
O23   Cr5   1.917993 S    
O22   Cr5   2.027222 S    
C116  O76   1.220504 D    
C81   C82   1.380660 A    
C67   C68   1.419353 A    
C44   N17   1.434240 S    
C69   C73   1.411813 A    
N27   O73   1.301176 A    
C114  H25   1.085489 S    
C22   C23   1.402257 A    
O14   Cr4   2.030991 S    
C115  H26   1.081890 S    
C83   C87   1.411318 A    
C7    C12   1.422670 A    
C73   C74   1.447963 S    
C111  O67   1.221069 D    
C113  H24   1.083667 S    
C49   C54   1.417683 A    
O25   C96   1.275312 A    
C41   C47   1.466933 S    
C57   C61   1.408955 A    
N18   O45   1.301214 A    
N22   O56   1.301091 A    
N20   O50   1.301409 A    
C50   N19   1.433045 S    
C118  O78   1.220280 D    
C112  H23   1.082393 S    
C90   C96   1.487621 S    
C44   C48   1.416683 A    
C77   C82   1.402322 A    
N29   O82   1.300677 A    
O16   Cr5   2.034492 S    
C38   C39   1.419287 A    
O9    Cr2   2.028350 S    
C84   C114  1.484598 S    
C43   C47   1.414617 A    
N28   O79   1.300897 A    
O15   Cr4   1.914630 S    
C9    N29   1.434497 S    
C59   C108  1.489317 S    
C57   C58   1.411323 A    
C107  O55   1.221182 D    
C86   C87   1.412045 A    
C30   N14   1.435438 S    
C36   C37   1.398691 A    
C97   O33   1.220930 D    
C85   C90   1.403136 A    
Cr3   O13   1.970750 S    
C118  H29   1.085160 S    
O17   Cr5   1.911934 S    
C99   O37   1.221179 D    
C11   C107  1.490817 S    
C112  O70   1.221432 D    
C71   C72   1.411707 A    
C65   C113  1.488492 S    
N6    C42   1.357126 A    
Cr4   O26   1.972531 S    
O14   C93   1.276123 A    
C109  H20   1.082482 S    
Cr5   O26   1.970584 S    
C8    C118  1.491018 S    
C100  O40   1.221430 D    
C52   C53   1.415914 A    
C2    O5    1.277788 A    
N9    N10   1.329626 A    
C115  O75   1.220727 D    
C95   O24   1.271946 A    
C21   C26   1.421950 A    
O23   C95   1.282942 A    
C113  O71   1.221440 D    
C43   C103  1.495559 S    
O1    Cr1   2.032568 S    
C79   C117  1.489120 S    
C106  H17   1.084557 S    
C13   C17   1.407162 A    
C68   N25   1.434679 S    
N7    C42   1.355440 A    
O10   Cr2   1.916169 S    
Cr1   O13   1.972622 S    
O1    C3    1.276265 A    
N11   N12   1.330884 A    
C110  H21   1.082583 S    
C105  O51   1.221294 D    
C103  O43   1.220801 D    
C46   C104  1.491877 S    
C60   C61   1.407106 A    
C53   C106  1.478949 S    
C65   C66   1.411216 A    
N23   O59   1.301226 A    
C43   C44   1.408232 A    
C119  O81   1.221159 D    
C29   N16   1.438391 S    
C116  H27   1.085990 S    
C103  H14   1.082637 S    
C51   N21   1.438590 S    
C53   C54   1.413399 A    
C3    C21   1.494673 S    
O12   Cr3   1.910942 S    
C14   C20   1.405668 A    
C37   C38   1.423193 A    
C114  O72   1.221184 D    
C18   C19   1.200529 T    
N16   O35   1.301332 A    
N15   O32   1.301179 A    
C54   N20   1.438679 S    
C24   C25   1.411595 A    
C83   N27   1.439544 S    
N19   O47   1.300745 A    
C39   C40   1.399222 A    
C117  H28   1.084608 S    
C70   N24   1.433941 S    
C76   C94   1.499487 S    
O19   C93   1.279684 A    
C38   C42   1.464929 S    
N4    C27   1.357651 A    
O7    Cr1   2.028480 S    
N14   O29   1.301228 A    
C2    C7    1.498491 S    
C67   C110  1.494154 S    
C16   N28   1.436029 S    
C45   C48   1.419728 A    
N26   O69   1.301174 A    
O12   C6    1.278736 A    
O6    C3    1.278734 A    
C71   C76   1.417741 A    
C29   C30   1.398149 A    
C8    C9    1.408898 A    
C84   C90   1.421830 A    
C15   C20   1.420345 A    
C48   C93   1.495866 S    
C15   C119  1.486543 S    
N29   O83   1.300884 A    
C36   H2    1.084110 S    
N10   C56   1.359143 A    
C87   C88   1.435379 S    
C52   C56   1.482983 S    
Cr6   O26   1.970849 S    
O24   Cr6   2.034504 S    
C80   C89   1.432813 S    
C85   H7    1.081941 S    
C45   N18   1.435714 S    
C21   C22   1.415657 A    
C108  O58   1.221623 D    
Cr2   O13   1.970967 S    
N8    C41   1.357208 A    
N25   O66   1.300210 A    
C99   H10   1.083498 S    
C6    C63   1.485718 S    
C50   C51   1.403890 A    
N5    N6    1.330120 A    
C66   C75   1.447420 S    
C1    O3    1.269958 A    
N9    C55   1.354056 A    
C72   C73   1.412193 A    
C45   C46   1.413928 A    
C100  H11   1.084295 S    
C59   C62   1.421279 A    
C117  O77   1.221010 D    
C79   C80   1.417605 A    
C74   C75   1.205600 T    
C78   C79   1.426409 A    
N18   O44   1.300947 A    
C35   C40   1.399801 A    
C12   C112  1.490414 S    
N3    N4    1.331798 A    
O20   Cr4   2.030040 S    
N19   O48   1.300843 A    
C77   C78   1.421002 A    
N2    C28   1.356041 A    
O2    Cr1   1.913431 S    
C49   C50   1.419816 A    
N1    C27   1.355129 A    
C24   C28   1.470445 S    
C25   C26   1.415353 A    
N25   O65   1.301070 A    
N30   O85   1.300314 A    
C105  H16   1.083218 S    
N28   O80   1.300896 A    
O6    Cr3   1.918060 S    
C39   C102  1.488307 S    
C102  O42   1.220738 D    
C85   C86   1.394488 A    
C110  O64   1.220283 D    
O11   Cr3   2.034361 S    
C32   C33   1.416011 A    
C119  H30   1.083344 S    
C10   C19   1.439692 S    
N24   O62   1.301107 A    
C94   O22   1.276225 A    
C111  H22   1.082441 S    
O18   Cr6   2.028190 S    
C15   C16   1.413627 A    
N30   O84   1.300921 A    
O17   C92   1.277629 A    
C35   C36   1.399120 A    
C104  H15   1.084675 S    
O21   Cr4   1.913519 S    
C101  H12   1.086006 S    
C55   C61   1.468599 S    
C92   O18   1.272184 A    
N16   O34   1.301120 A    
O5    Cr3   2.028380 S    
C58   C105  1.485995 S    
C13   C14   1.396406 A    
C59   C60   1.407307 A    
N1    N2    1.328522 A    
C40   H3    1.083778 S    
C63   C68   1.413427 A    
O7    C6    1.270995 A    
N5    C41   1.354932 A    
N7    N8    1.330490 A    
O20   C96   1.275950 A    
N26   O68   1.300277 A    
N27   O74   1.301174 A    
O2    C1    1.274611 A    
C30   C34   1.418120 A    
C80   C81   1.390022 A    
N14   O30   1.301228 A    
C58   C62   1.420182 A    
C63   C64   1.401792 A    
N21   O53   1.301398 A    
C104  O46   1.220763 D    
C98   H9    1.081461 S    
N24   O61   1.299543 A    
C64   H4    1.083171 S    
H5    C81   1.084603 S    
C31   C98   1.492100 S    
C108  H19   1.083542 S    
O3    Cr2   2.032912 S    
C1    C35   1.474589 S    
C20   C92   1.486864 S    
N15   O31   1.300673 A    
N21   O52   1.300684 A    
C32   C99   1.490182 S    
C34   C91   1.494962 S    
C69   C109  1.491962 S    
N22   O57   1.301173 A    
N20   O49   1.300505 A    
C23   C24   1.408074 A    
C10   C11   1.411629 A    
O15   C91   1.282162 A    
C37   C101  1.491157 S    
C62   C95   1.496859 S    
O10   C5    1.275377 A    
C86   C116  1.490119 S    
C22   N30   1.433690 S    
C69   C70   1.412952 A    
O19   Cr6   1.917794 S    
C46   C47   1.411348 A    
C88   C89   1.199268 T    
C83   C84   1.412851 A    
N13   O27   1.301254 A    
C4    C77   1.473396 S    
O21   C94   1.280382 A    
C5    O11   1.277989 A    
O8    C4    1.273641 A    
H1    C14   1.082152 S    
C102  H13   1.085574 S    
