data_mof_unit_41196.cif
_audit_creation_date              2012-12-11T17:08:30-0500
_audit_creation_method            fapswitch 2.2
_symmetry_space_group_name_H-M    P1
_symmetry_Int_Tables_number       1
_space_group_crystal_system       triclinic
_cell_length_a                    6.958982
_cell_length_b                    14.65811
_cell_length_c                    16.026907
_cell_angle_alpha                 90.216755
_cell_angle_beta                  89.205507
_cell_angle_gamma                 90.559061
_cell_volume                      1634.58717547

loop_
_atom_site_label
_atom_site_type_symbol
_atom_type_description
_atom_site_fract_x
_atom_site_fract_y
_atom_site_fract_z
_atom_type_partial_charge
O1    O     O_R   0.505700 0.583890 0.413310 -0.521162
O2    O     O_R   0.175960 0.594920 0.586080 -0.551645
O3    O     O_R   0.005660 0.416110 0.586690 -0.546022
C1    C     C_R   0.344511 0.616827 0.614913 0.667643
O4    O     O_R   0.175980 0.594920 0.413930 -0.506749
O5    O     O_R   0.005680 0.416110 0.413310 -0.524497
C2    C     C_R   0.346499 0.616503 0.384337 0.756820
O6    O     O_R   0.505680 0.583890 0.586690 -0.543488
O7    O     O_3   0.339200 0.441330 0.500000 -0.386392
V1    V     V_3+5 0.064350 0.510880 0.500000 1.488899
O8    O     O_R   0.675960 0.405080 0.413920 -0.528430
C3    C     C_R   0.845730 0.379404 0.388154 0.812163
O9    O     O_R   0.675940 0.405080 0.586070 -0.552090
C4    C     C_R   0.843739 0.383181 0.615067 0.656477
V2    V     V_3+5 0.564340 0.489120 0.500000 1.464920
O10   O     O_3   0.839360 0.558670 0.500000 -0.351770
C5    C     C_R   0.006005 0.317733 0.741132 0.114537
C6    C     C_R   0.850999 0.317973 0.685996 -0.105862
C7    C     C_R   0.700324 0.255426 0.702290 -0.183079
H1    H     H_    0.577426 0.252833 0.661897 0.130928
C8    C     C_R   0.713063 0.191033 0.767285 -0.179366
H2    H     H_    0.598218 0.141457 0.775203 0.122291
C9    C     C_R   0.877326 0.186708 0.817945 -0.108717
C10   C     C_R   0.019013 0.253873 0.805200 0.117334
C11   C     C_3   0.229940 0.243817 0.791901 -0.416779
C12   C     C_3   0.216058 0.313809 0.722554 -0.399161
H3    H     H_    0.267629 0.174558 0.768932 0.160114
H4    H     H_    0.313490 0.268651 0.846200 0.186053
H5    H     H_    0.246827 0.285395 0.659425 0.165092
H6    H     H_    0.290726 0.379258 0.737010 0.174517
C13   C     C_R   0.725111 0.182284 0.242221 0.098232
C14   C     C_R   0.881087 0.181897 0.185984 -0.109866
C15   C     C_R   0.034477 0.242523 0.202166 -0.173687
H7    H     H_    0.157942 0.244753 0.160609 0.143384
C16   C     C_R   0.024226 0.305358 0.268775 -0.144319
H8    H     H_    0.140305 0.354100 0.276383 0.161641
C17   C     C_R   0.859927 0.309706 0.321095 -0.144918
C18   C     C_R   0.714462 0.244804 0.307921 0.071193
C19   C     C_3   0.504858 0.258650 0.296052 -0.405188
C20   C     C_3   0.516335 0.190312 0.224740 -0.397814
H9    H     H_    0.472932 0.329065 0.275244 0.199937
H10   H     H_    0.417535 0.233804 0.350099 0.162174
H11   H     H_    0.490666 0.220926 0.162570 0.179597
H12   H     H_    0.436108 0.125812 0.237633 0.156881
C21   C     C_R   0.506710 0.683451 0.740948 0.101424
C22   C     C_R   0.352240 0.682144 0.685756 -0.107741
C23   C     C_R   0.201379 0.743293 0.701956 -0.185037
H13   H     H_    0.079332 0.744977 0.661123 0.132659
C24   C     C_R   0.212983 0.807496 0.767405 -0.181940
H14   H     H_    0.098587 0.856290 0.775279 0.126521
C25   C     C_R   0.376273 0.812871 0.818416 -0.114577
C26   C     C_R   0.518861 0.747323 0.805484 0.187725
C27   C     C_3   0.729469 0.760454 0.791474 -0.387961
C28   C     C_3   0.716210 0.690403 0.721737 -0.436862
H15   H     H_    0.815337 0.736656 0.844957 0.231291
H16   H     H_    0.765107 0.830279 0.768912 0.146656
H17   H     H_    0.792550 0.626010 0.735457 0.181141
H18   H     H_    0.745261 0.719342 0.658745 0.168840
C29   C     C_R   0.498208 0.678977 0.249385 0.075377
C30   C     C_R   0.356987 0.682951 0.313519 -0.132108
C31   C     C_R   0.207670 0.746225 0.302349 -0.120204
H19   H     H_    0.090787 0.750037 0.347415 0.116110
C32   C     C_R   0.213054 0.809169 0.235811 -0.132118
H20   H     H_    0.101637 0.860007 0.232515 0.103244
C33   C     C_R   0.367671 0.810357 0.177896 -0.116661
C34   C     C_R   0.499981 0.739988 0.182719 0.022766
C35   C     C_3   0.711813 0.743824 0.172670 0.265492
C36   C     C_3   0.714235 0.682807 0.249975 0.248836
H21   H     H_    0.772568 0.812905 0.184807 -0.011648
H22   H     H_    0.766084 0.720311 0.305892 -0.023749
O11   O     O_R   0.229000 0.916070 0.913330 -0.537598
O12   O     O_R   0.558770 0.905070 0.086080 -0.527339
O13   O     O_R   0.729000 0.083900 0.086690 -0.545025
C37   C     C_R   0.387396 0.882405 0.113862 0.745036
O14   O     O_R   0.558720 0.905070 0.913930 -0.521274
O15   O     O_R   0.728960 0.083900 0.913310 -0.547021
C38   C     C_R   0.389922 0.883096 0.885095 0.734808
O16   O     O_R   0.229050 0.916070 0.086710 -0.529740
O17   O     O_3   0.395460 0.058650 0.000020 -0.388266
V3    V     V_3+5 0.670340 0.989120 0.000000 1.500089
O18   O     O_R   0.058670 0.094960 0.913900 -0.547231
C39   C     C_R   0.890577 0.116815 0.884858 0.672662
O19   O     O_R   0.058720 0.094960 0.086050 -0.550669
C40   C     C_R   0.889596 0.116916 0.114885 0.676992
V4    V     V_3+5 0.170330 0.010930 0.999970 1.446606
O20   O     O_3   0.895340 0.941350 0.999980 -0.332828
S1    S     S_3+6 0.783759 0.698484 0.072230 0.091510
O21   O     O_2   0.704846 0.757302 0.004749 -0.347226
O22   O     O_2   0.999327 0.699587 0.064963 -0.293373
O23   O     O_3   0.699251 0.591839 0.057941 -0.442638
H23   H     H_    0.751365 0.572768 0.002820 0.359260
S2    S     S_3+6 0.819666 0.573211 0.241405 0.060302
O24   O     O_2   0.000237 0.574135 0.188964 -0.276716
O25   O     O_2   0.871203 0.550313 0.328360 -0.340124
O26   O     O_3   0.662026 0.495321 0.205217 -0.482141
H24   H     H_    0.739399 0.440337 0.193342 0.354638

loop_
_geom_bond_atom_site_label_1
_geom_bond_atom_site_label_2
_ccdc_geom_bond_type
S1    O21   D    
C32   C33   A    
C9    C39   S    
C4    C6    S    
O26   H24   S    
O11   C38   A    
C1    O6    A    
O18   C39   A    
C23   C24   A    
C1    C22   S    
C21   C22   A    
C11   H4    S    
O19   C40   A    
C5    C12   S    
C16   C17   A    
C29   C34   A    
O5    C3    A    
C18   C19   S    
V2    O10   S    
C13   C20   S    
C6    C7    A    
C3    C17   S    
C31   C32   A    
V3    O20   S    
C36   S2    S    
O11   V4    S    
O8    V2    S    
C20   H11   S    
C7    H1    S    
C24   C25   A    
C9    C10   A    
O1    V2    S    
O14   V3    S    
O13   C40   A    
C34   C35   S    
C29   C30   A    
O9    C4    A    
O7    V1    S    
C15   H7    S    
C19   H10   S    
C27   H15   S    
C14   C40   S    
C5    C10   A    
C35   C36   S    
C23   H13   S    
C10   C11   S    
O12   C37   A    
O15   C39   A    
C19   C20   S    
O4    C2    A    
C21   C26   A    
C11   C12   S    
V4    O20   S    
S2    O26   S    
C33   C37   S    
C25   C26   A    
C30   C31   A    
C35   H21   S    
C16   H8    S    
O2    C1    A    
C25   C38   S    
C17   C18   A    
C29   C36   S    
C13   C14   A    
S2    O25   D    
C5    C6    A    
O14   C38   A    
O3    C4    A    
O16   V4    S    
O19   V4    S    
C21   C28   S    
C12   H6    S    
O6    V2    S    
O9    V2    S    
C24   H14   S    
O17   V3    S    
O2    V1    S    
C2    C30   S    
O17   V4    S    
C26   C27   S    
C28   H18   S    
C27   H16   S    
C22   C23   A    
C7    C8    A    
O1    C2    A    
O15   V3    S    
O5    V1    S    
O8    C3    A    
C27   C28   S    
C11   H3    S    
C35   S1    S    
C13   C18   A    
C14   C15   A    
C8    C9    A    
O7    V2    S    
O4    V1    S    
O12   V3    S    
O3    V1    S    
V1    O10   S    
O23   H23   S    
S2    O24   D    
C15   C16   A    
O13   V3    S    
C31   H19   S    
C32   H20   S    
C20   H12   S    
C19   H9    S    
C12   H5    S    
C36   H22   S    
C33   C34   A    
C37   O16   A    
S1    O23   S    
S1    O22   D    
C8    H2    S    
O18   V4    S    
C28   H17   S    
