data_mof_unit_60669.cif
_audit_creation_date              2012-10-26T18:39:07-0400
_audit_creation_method            fapswitch 2.2
_symmetry_space_group_name_H-M    P1
_symmetry_Int_Tables_number       1
_space_group_crystal_system       triclinic
_cell_length_a                    9.433146
_cell_length_b                    10.665502
_cell_length_c                    17.294407
_cell_angle_alpha                 90.08417
_cell_angle_beta                  85.968718
_cell_angle_gamma                 89.621413
_cell_volume                      1735.6309284

loop_
_atom_site_label
_atom_site_type_symbol
_atom_type_description
_atom_site_fract_x
_atom_site_fract_y
_atom_site_fract_z
_atom_type_partial_charge
C1    C     C_R   0.499443 0.740009 0.500070 0.622880
C2    C     C_3   0.572793 0.957227 0.435040 0.178028
C3    C     C_3   0.946071 0.396891 0.530113 -0.021755
C4    C     C_3   0.053928 0.603109 0.469887 -0.021763
C5    C     C_3   0.041826 0.490441 0.570246 -0.030184
C6    C     C_3   0.958174 0.509559 0.429754 -0.030191
C7    C     C_3   0.054579 0.408667 0.460745 0.328190
C8    C     C_3   0.945421 0.591333 0.539255 0.328189
C9    C     C_R   0.481524 0.497064 0.649838 0.564252
C10   C     C_R   0.518476 0.502935 0.350162 0.564251
C11   C     C_R   0.472860 0.486201 0.734302 0.012687
C12   C     C_R   0.500557 0.259991 0.499930 0.622880
C13   C     C_R   0.527140 0.513799 0.265698 0.012687
C14   C     C_R   0.595343 0.454643 0.771779 -0.090573
C15   C     C_R   0.404657 0.545357 0.228221 -0.090574
C16   C     C_R   0.590172 0.443928 0.852546 0.261009
C17   C     C_R   0.409827 0.556071 0.147454 0.261009
C18   C     C_R   0.460721 0.468036 0.895749 0.067952
C19   C     C_R   0.539278 0.531964 0.104251 0.067952
C20   C     C_R   0.337326 0.494221 0.858123 -0.132546
C21   C     C_R   0.662674 0.505779 0.141877 -0.132546
C22   C     C_R   0.343221 0.503584 0.777770 -0.109727
C23   C     C_3   0.366045 0.961495 0.501734 0.192459
C24   C     C_R   0.656779 0.496416 0.222230 -0.109728
C25   C     C_2   0.451920 0.469436 0.980531 -0.039153
C26   C     C_2   0.548080 0.530564 0.019469 -0.039153
C27   C     C_3   0.633955 0.038505 0.498266 0.192458
C28   C     C_3   0.439770 0.042307 0.437901 0.188552
C29   C     C_3   0.560230 0.957693 0.562099 0.188551
C30   C     C_3   0.501626 0.124100 0.500401 0.003139
C31   C     C_3   0.498374 0.875900 0.499599 0.003138
C32   C     C_3   0.427207 0.042773 0.564960 0.178029
Cl1   Cl    Cl    0.331883 0.099984 0.650519 -0.545046
Cl2   Cl    Cl    0.668117 0.900016 0.349481 -0.545047
Cu1   Cu    Cu3+1 0.356850 0.500010 0.499980 1.072219
Cu2   Cu    Cu3+1 0.643150 0.499990 0.500020 1.072219
H1    H     H_    0.694958 0.437115 0.738301 0.125929
H2    H     H_    0.762863 0.489018 0.108768 0.141795
H3    H     H_    0.080746 0.484341 0.629209 0.120185
H4    H     H_    0.919254 0.515659 0.370790 0.120183
H5    H     H_    0.039636 0.259476 0.400099 0.332102
H6    H     H_    0.960365 0.740533 0.599891 0.332104
H7    H     H_    0.210350 0.605325 0.148840 0.329430
H8    H     H_    0.789650 0.394675 0.851160 0.329430
H9    H     H_    0.344044 0.015172 0.345310 0.358641
H10   H     H_    0.655955 0.984828 0.654690 0.358641
H11   H     H_    0.166309 0.996146 0.502574 0.365801
H12   H     H_    0.305042 0.562885 0.261699 0.125928
H13   H     H_    0.833691 0.003854 0.497426 0.365800
H14   H     H_    0.896499 0.310083 0.554436 0.160478
H15   H     H_    0.103501 0.689917 0.445564 0.160477
H16   H     H_    0.752917 0.473657 0.250123 0.141898
H17   H     H_    0.247083 0.526343 0.749877 0.141900
H18   H     H_    0.638875 0.575011 0.988876 0.165781
H19   H     H_    0.361125 0.424988 0.011124 0.165781
H20   H     H_    0.237137 0.510982 0.891232 0.141796
N1    N     N_3   0.141720 0.500030 0.499940 -0.243464
N2    N     N_3   0.858280 0.499970 0.500060 -0.243463
O1    O     O_R   0.379130 0.683150 0.499960 -0.489978
O2    O     O_3   0.880992 0.690117 0.582039 -0.618578
O3    O     O_3   0.291506 0.592141 0.109976 -0.701262
O4    O     O_3   0.708494 0.407859 0.890024 -0.701262
O5    O     O_3   0.375433 0.089771 0.373590 -0.617107
O6    O     O_3   0.624567 0.910229 0.626410 -0.617107
O7    O     O_3   0.225941 0.919266 0.502495 -0.666254
O8    O     O_3   0.774059 0.080733 0.497505 -0.666252
O9    O     O_R   0.620870 0.316850 0.500040 -0.489979
O10   O     O_R   0.620910 0.683140 0.500000 -0.423172
O11   O     O_R   0.379090 0.316860 0.500000 -0.423171
O12   O     O_R   0.365090 0.500030 0.613580 -0.517736
O13   O     O_R   0.634910 0.499970 0.386420 -0.517737
O14   O     O_R   0.606870 0.500020 0.613610 -0.486861
O15   O     O_R   0.393130 0.499980 0.386390 -0.486862
O16   O     O_3   0.119008 0.309882 0.417961 -0.618578

loop_
_geom_bond_atom_site_label_1
_geom_bond_atom_site_label_2
_ccdc_geom_bond_type
C24   H16   S    
C12   O11   A    
C27   C29   S    
C6    N2    S    
Cu1   Cu2   S    
C9    O14   A    
C20   H20   S    
Cu2   O9    S    
C19   C21   A    
C29   C32   S    
Cu2   N2    S    
C1    O1    A    
C10   O15   A    
C1    C31   S    
C1    O10   A    
Cu1   O1    S    
C19   C26   S    
C8    N2    S    
H5    O16   S    
C21   H2    S    
Cu1   O12   S    
C4    N1    S    
C2    C27   S    
C14   C16   A    
C22   H17   S    
Cu2   O13   S    
C4    C8    S    
C17   O3    S    
C10   O13   A    
C2    Cl2   S    
C29   O6    S    
C27   C30   S    
C18   C25   S    
C16   O4    S    
C15   H12   S    
C26   H18   S    
C3    H14   S    
C7    O16   S    
C12   O9    A    
H13   O8    S    
C4    H15   S    
C9    O12   A    
C4    C6    S    
H6    O2    S    
C11   C14   A    
H8    O4    S    
C25   C26   D    
H9    O5    S    
C13   C24   A    
H10   O6    S    
C2    C31   S    
C23   C31   S    
C28   O5    S    
C23   C28   S    
C9    C11   S    
C20   C22   A    
C13   C15   A    
C6    H4    S    
H7    O3    S    
C15   C17   A    
C5    H3    S    
Cu1   O15   S    
C12   C30   S    
C25   H19   S    
C3    C5    S    
C10   C13   S    
C5    C8    S    
Cu2   O10   S    
C6    C7    S    
C11   C22   A    
C3    C7    S    
C5    N1    S    
Cu1   N1    S    
C32   Cl1   S    
C23   O7    S    
C28   C30   S    
C29   C31   S    
C27   O8    S    
C23   C32   S    
C14   H1    S    
C30   C32   S    
C17   C19   A    
H11   O7    S    
C18   C20   A    
C3    N2    S    
Cu1   O11   S    
C16   C18   A    
C21   C24   A    
C2    C28   S    
C7    N1    S    
C8    O2    S    
Cu2   O14   S    
