data_mof_unit_52354.cif
_audit_creation_date              2012-12-10T17:25:31-0500
_audit_creation_method            fapswitch 2.2
_symmetry_space_group_name_H-M    P1
_symmetry_Int_Tables_number       1
_space_group_crystal_system       triclinic
_cell_length_a                    10.159005
_cell_length_b                    10.908266
_cell_length_c                    23.411293
_cell_angle_alpha                 90.203209
_cell_angle_beta                  80.40983
_cell_angle_gamma                 95.542545
_cell_volume                      2545.94715404

loop_
_atom_site_label
_atom_site_type_symbol
_atom_type_description
_atom_site_fract_x
_atom_site_fract_y
_atom_site_fract_z
_atom_type_partial_charge
C1    C     C_R   0.556555 0.732117 0.494530 0.928329
C2    C     C_R   0.443440 0.267880 0.505370 0.925164
C3    C     C_R   0.381018 0.458176 0.772020 0.500042
C4    C     C_R   0.625628 0.558777 0.231122 0.480002
C5    C     C_R   0.379324 0.461336 0.712364 0.342417
C6    C     C_R   0.617518 0.563409 0.291249 0.311028
C7    C     C_R   0.499253 0.496143 0.673330 -0.354329
C8    C     C_R   0.504325 0.503958 0.327243 -0.335935
C9    C     C_R   0.620510 0.525729 0.694617 0.480456
C10   C     C_R   0.396403 0.446352 0.303212 0.459218
C11   C     C_R   0.621907 0.516361 0.753557 -0.284775
C12   C     C_R   0.402370 0.448772 0.243399 -0.276839
C13   C     C_R   0.503583 0.485049 0.792073 0.047287
C14   C     C_R   0.516491 0.503677 0.207670 0.064237
C15   C     C_2   0.589328 0.863152 0.496606 -0.405349
C16   C     C_2   0.410701 0.136906 0.502958 -0.403682
C17   C     C_2   0.499063 0.938797 0.486786 0.321447
C18   C     C_2   0.500758 0.061119 0.512846 0.331471
C19   C     C_2   0.927430 0.512042 0.503173 0.128431
C20   C     C_2   0.072328 0.487088 0.497276 0.111641
C21   C     C_R   0.499544 0.499753 0.610758 0.940439
C22   C     C_R   0.500845 0.500673 0.389505 0.957886
C23   C     C_R   0.544990 0.395255 0.117807 0.562219
C24   C     C_R   0.488813 0.594398 0.881394 0.613851
C25   C     C_R   0.508864 0.608313 0.118557 0.625079
C26   C     C_R   0.546252 0.386949 0.877717 0.561171
C27   C     C_R   0.523245 0.611549 0.057986 -0.197772
C28   C     C_R   0.555671 0.388090 0.936807 -0.180872
C29   C     C_R   0.537129 0.500236 0.027721 -0.147032
C30   C     C_R   0.534395 0.497704 0.967822 -0.149410
C31   C     C_R   0.550540 0.390923 0.057522 -0.168273
C32   C     C_R   0.508640 0.604491 0.939187 -0.195826
C33   C     C_R   0.522666 0.722253 0.026944 0.455932
C34   C     C_R   0.584209 0.283067 0.965783 0.441084
C35   C     C_R   0.507543 0.718109 0.968554 0.438372
C36   C     C_R   0.569646 0.281284 0.026320 0.411264
H1    H     H_    0.715137 0.537799 0.769857 0.187205
H2    H     H_    0.318866 0.406669 0.224542 0.182926
H3    H     H_    0.324101 0.106195 0.483260 0.184809
H4    H     H_    0.676248 0.894147 0.516035 0.186303
H5    H     H_    0.107863 0.410738 0.471235 0.155601
H6    H     H_    0.891671 0.587587 0.529694 0.147243
N1    N     N_R   0.522500 0.502138 0.146512 -0.322067
N2    N     N_R   0.509211 0.487599 0.852358 -0.326119
N3    N     N_2   0.842710 0.448880 0.476480 0.059058
N4    N     N_2   0.157290 0.551120 0.523520 0.054350
O1    O     O_R   0.431060 0.692470 0.504730 -0.553228
O2    O     O_R   0.568940 0.307530 0.495270 -0.554042
O3    O     O_R   0.651120 0.659650 0.489640 -0.639792
O4    O     O_R   0.348880 0.340350 0.510360 -0.645426
O5    O     O_R   0.389950 0.516450 0.591390 -0.625246
O6    O     O_R   0.610050 0.483550 0.408610 -0.631064
O7    O     O_R   0.610020 0.483630 0.576300 -0.558626
O8    O     O_R   0.389980 0.516370 0.423700 -0.565139
O9    O     O_2   0.562634 0.294508 0.147889 -0.531879
O10   O     O_2   0.450055 0.689852 0.853927 -0.502715
O11   O     O_2   0.477825 0.708962 0.149744 -0.509588
O12   O     O_2   0.569891 0.285679 0.845817 -0.518064
Zn1   Zn    Zn3+2 0.353060 0.521920 0.510080 1.023863
Zn2   Zn    Zn3+2 0.646940 0.478080 0.489920 1.029183
O13   O     O_3   0.537083 0.835985 0.052681 -0.573246
C37   C     C_3   0.673125 0.863300 0.058843 -0.213085
H7    H     H_    0.744234 0.844040 0.018975 0.098208
H8    H     H_    0.697516 0.811571 0.095832 0.207755
H9    H     H_    0.690801 0.962711 0.068000 0.226115
O14   O     O_3   0.621090 0.179218 0.935696 -0.559516
C38   C     C_3   0.762618 0.187710 0.923765 -0.246689
H10   H     H_    0.806235 0.275872 0.901250 0.166180
H11   H     H_    0.794069 0.112304 0.894270 0.166029
H12   H     H_    0.804732 0.176790 0.964178 0.161328
O15   O     O_3   0.113973 0.655363 0.548036 -0.558055
C39   C     C_3   0.162170 0.670392 0.600665 -0.026160
H13   H     H_    0.268578 0.708631 0.593436 0.182735
H14   H     H_    0.146564 0.583170 0.626459 0.189614
H15   H     H_    0.104489 0.738393 0.626827 0.119180
O16   O     O_3   0.887201 0.346442 0.450482 -0.549280
C40   C     C_3   0.837133 0.332839 0.398225 -0.041921
H16   H     H_    0.848524 0.421365 0.373523 0.169018
H17   H     H_    0.731828 0.291327 0.405887 0.174975
H18   H     H_    0.896677 0.268025 0.370702 0.128740
O17   O     O_3   0.486766 0.825401 0.941418 -0.546872
C41   C     C_3   0.610712 0.880188 0.911791 -0.127217
H19   H     H_    0.672142 0.813094 0.886318 0.108696
H20   H     H_    0.668625 0.928786 0.942569 0.166396
H21   H     H_    0.590506 0.949719 0.880726 0.231700
O18   O     O_3   0.576392 0.171549 0.054465 -0.579092
C42   C     C_3   0.446541 0.108229 0.064575 -0.103914
H22   H     H_    0.421672 0.065729 0.023972 0.198326
H23   H     H_    0.367940 0.168478 0.083268 0.109717
H24   H     H_    0.444385 0.033722 0.096857 0.234536
O19   O     O_3   0.260314 0.440077 0.809847 -0.565248
C43   C     C_3   0.248257 0.324312 0.838091 -0.249983
H25   H     H_    0.309660 0.255275 0.813985 0.160487
H26   H     H_    0.141852 0.285436 0.843432 0.175463
H27   H     H_    0.273972 0.336361 0.882119 0.174133
O20   O     O_3   0.735994 0.616107 0.195153 -0.593893
C44   C     C_3   0.835579 0.533463 0.185097 -0.264752
H28   H     H_    0.799808 0.448508 0.163542 0.169932
H29   H     H_    0.870171 0.509324 0.225937 0.191395
H30   H     H_    0.923443 0.578753 0.155570 0.190885
O21   O     O_3   0.258404 0.435938 0.692914 -0.576285
C45   C     C_3   0.242553 0.309605 0.679760 -0.198109
H31   H     H_    0.326389 0.282833 0.646596 0.152133
H32   H     H_    0.148712 0.290776 0.661526 0.192182
H33   H     H_    0.232863 0.251320 0.719346 0.152134
O22   O     O_3   0.722812 0.622456 0.314508 -0.592577
C46   C     C_3   0.697088 0.745982 0.324964 -0.166372
H34   H     H_    0.780511 0.793151 0.344319 0.182815
H35   H     H_    0.602922 0.752375 0.356383 0.162470
H36   H     H_    0.692689 0.795571 0.283952 0.186771
O23   O     O_3   0.739469 0.561121 0.657970 -0.572663
C47   C     C_3   0.754408 0.690749 0.653229 -0.264707
H37   H     H_    0.670319 0.725673 0.635078 0.150751
H38   H     H_    0.848310 0.719402 0.622934 0.199947
H39   H     H_    0.763060 0.733960 0.695760 0.164169
O24   O     O_3   0.282634 0.391905 0.338089 -0.584151
C48   C     C_3   0.297424 0.265765 0.344521 -0.254015
H40   H     H_    0.207147 0.222410 0.373282 0.203303
H41   H     H_    0.385916 0.251975 0.365318 0.140727
H42   H     H_    0.304966 0.218017 0.302164 0.174926
Cl1   Cl    Cl    0.618211 0.106115 0.559733 -0.602710
Cl2   Cl    Cl    0.381009 0.893484 0.440215 -0.619274

loop_
_geom_bond_atom_site_label_1
_geom_bond_atom_site_label_2
_ccdc_geom_bond_type
C9    O23   S    
C21   O7    A    
C42   H22   S    
N3    Zn2   S    
O21   C45   S    
N4    Zn1   S    
C27   C29   A    
C19   C20   S    
C25   N1    A    
C47   H38   S    
C20   H5    S    
C35   O17   S    
C26   N2    A    
C22   O8    A    
C40   H16   S    
C27   C33   A    
C37   H7    S    
O3    Zn2   S    
N3    O16   S    
O4    Zn1   S    
C48   H41   S    
O22   C46   S    
C44   H28   S    
C23   N1    A    
O24   C48   S    
C45   H33   S    
C3    O19   S    
C11   H1    S    
C37   H8    S    
O6    Zn2   S    
C4    O20   S    
O23   C47   S    
C8    C22   S    
C46   H34   S    
C1    C15   S    
C2    C16   S    
C3    C13   A    
C19   H6    S    
O14   C38   S    
C28   C34   A    
C4    C14   A    
C46   H35   S    
C34   O14   S    
C45   H31   S    
C25   O11   S    
C39   H15   S    
C47   H37   S    
C44   H29   S    
O7    Zn2   S    
O2    Zn2   S    
O8    Zn1   S    
C40   H17   S    
C5    O21   S    
C38   H10   S    
C32   C35   A    
O16   C40   S    
C39   H14   S    
C48   H42   S    
O19   C43   S    
C5    C7    A    
O18   C42   S    
C1    O1    A    
C6    C8    A    
C18   Cl1   S    
C36   O18   S    
C7    C21   S    
C43   H27   S    
O17   C41   S    
C38   H11   S    
C23   C31   A    
C24   C32   A    
C29   C30   A    
C26   O12   S    
O20   C44   S    
C43   H26   S    
C17   C18   S    
C6    O22   S    
C45   H32   S    
C9    C11   A    
N4    O15   S    
C10   C12   A    
C4    C6    A    
C12   C14   A    
C41   H20   S    
C42   H23   S    
C2    O4    A    
C24   N2    A    
C46   H36   S    
C24   O10   S    
C21   O5    A    
C44   H30   S    
C10   O24   S    
C22   O6    A    
C40   H18   S    
C15   C17   D    
C37   H9    S    
C8    C10   A    
C39   H13   S    
C3    C5    A    
C19   N3    D    
C23   O9    S    
C25   C27   A    
C41   H21   S    
C26   C28   A    
C38   H12   S    
C2    O2    A    
C28   C30   A    
O15   C39   S    
C29   C31   A    
C48   H40   S    
C30   C32   A    
C11   C13   A    
C33   O13   S    
C43   H25   S    
C33   C35   A    
C34   C36   A    
C13   N2    S    
C12   H2    S    
O13   C37   S    
C15   H4    S    
C16   H3    S    
O1    Zn1   S    
C7    C9    A    
C17   Cl2   S    
O5    Zn1   S    
C16   C18   D    
C41   H19   S    
C42   H24   S    
C31   C36   A    
C1    O3    A    
C47   H39   S    
C20   N4    D    
C14   N1    S    
