data_mof_unit_62156.cif
_audit_creation_date              2012-12-10T16:43:12-0500
_audit_creation_method            fapswitch 2.2
_symmetry_space_group_name_H-M    P1
_symmetry_Int_Tables_number       1
_space_group_crystal_system       triclinic
_cell_length_a                    18.460579
_cell_length_b                    18.459001
_cell_length_c                    18.443392
_cell_angle_alpha                 119.763862
_cell_angle_beta                  90.418115
_cell_angle_gamma                 119.788131
_cell_volume                      4457.82490748

loop_
_atom_site_label
_atom_site_type_symbol
_atom_type_description
_atom_site_fract_x
_atom_site_fract_y
_atom_site_fract_z
_atom_type_partial_charge
Br1   Br    Br    0.137982 0.845785 0.202520 -0.480928
Br2   Br    Br    0.796760 0.155498 0.296438 -0.445279
Br3   Br    Br    0.793562 0.435532 0.297571 -0.459472
C1    C     C_R   0.361509 0.001283 0.138514 0.513981
C2    C     C_2   0.803280 0.998732 0.691083 -0.088694
C3    C     C_2   0.721003 0.940057 0.777265 -0.151702
C4    C     C_R   0.638816 0.000374 0.861762 0.518983
C5    C     C_2   0.696650 0.004394 0.808927 -0.086355
C6    C     C_2   0.280991 0.443869 0.723381 -0.155488
C7    C     C_2   0.192245 0.387726 0.691051 -0.087060
C8    C     C_2   0.337149 0.556215 0.777134 -0.155353
C9    C     C_2   0.304513 0.612271 0.808772 -0.089137
C10   C     C_2   0.277472 0.061005 0.333024 -0.138207
C11   C     C_2   0.192087 0.983904 0.305663 0.166321
C12   C     C_R   0.113904 0.805435 0.583946 -0.089070
C13   C     C_2   0.335381 0.054097 0.279857 -0.128970
C14   C     C_2   0.305473 0.008471 0.192538 -0.056269
C15   C     C_2   0.781856 0.945526 0.219120 -0.132994
C16   C     C_R   0.640255 0.277092 0.138657 0.534416
C17   C     C_2   0.795427 0.990000 0.305727 -0.054311
C18   C     C_2   0.718057 0.939193 0.165718 -0.144422
C19   C     C_2   0.710580 0.016900 0.194339 0.168588
C20   C     C_2   0.780808 0.555603 0.220244 -0.126577
C21   C     C_2   0.797175 0.612924 0.307517 -0.062101
C22   C     C_2   0.715999 0.444517 0.167000 -0.140591
C23   C     C_R   0.180247 0.899007 0.663992 0.027051
C24   C     C_2   0.708403 0.386488 0.194377 0.169176
C25   C     C_R   0.138411 0.277041 0.638229 0.515600
C26   C     C_R   0.860264 0.723013 0.361576 0.515527
C27   C     C_R   0.861139 0.999760 0.638280 0.512929
C28   C     C_R   0.361404 0.722962 0.861754 0.511013
C29   C     C_R   0.138373 0.998186 0.361349 0.536652
C30   C     C_R   0.858804 0.998389 0.360383 0.518216
C31   C     C_R   0.139980 0.998337 0.638436 0.494709
C32   C     C_R   0.641751 0.002178 0.139705 0.539571
C33   C     C_R   0.359877 0.998292 0.858319 0.489646
C34   C     C_R   0.234853 0.898986 0.718615 0.029857
C35   C     C_R   0.221180 0.805388 0.691259 -0.095307
C36   C     C_R   0.154158 0.714066 0.612975 -0.112252
C37   C     C_R   0.100720 0.714087 0.559524 -0.100685
C38   C     C_R   0.303714 0.993096 0.797144 0.028635
C39   C     C_R   0.320378 0.084987 0.817962 -0.142828
C40   C     C_R   0.267112 0.085005 0.764688 -0.142655
C41   C     C_R   0.195954 0.993132 0.689365 0.027373
C42   C     C_2   0.779642 0.942498 0.723582 -0.151416
H1    H     H_    0.373814 0.157219 0.877150 0.131355
H2    H     H_    0.813966 0.908650 0.186078 0.162404
H3    H     H_    0.262960 0.801544 0.728507 0.134894
H4    H     H_    0.758254 0.019952 0.337352 0.155089
H5    H     H_    0.674307 0.866935 0.101494 0.132343
H6    H     H_    0.811017 0.590722 0.186075 0.167804
H7    H     H_    0.761829 0.578547 0.340548 0.156234
H8    H     H_    0.672585 0.409315 0.102501 0.129418
H9    H     H_    0.144540 0.643102 0.593002 0.132408
H10   H     H_    0.049643 0.643141 0.498091 0.158761
H11   H     H_    0.072842 0.801626 0.538312 0.145935
H12   H     H_    0.719774 0.063530 0.798102 0.113580
H13   H     H_    0.280243 0.157248 0.783571 0.132632
H14   H     H_    0.803059 0.894904 0.709747 0.163555
H15   H     H_    0.779533 0.044913 0.701196 0.112917
H16   H     H_    0.698200 0.883567 0.791827 0.160403
H17   H     H_    0.314743 0.406597 0.709399 0.158398
H18   H     H_    0.156159 0.421585 0.701342 0.115372
H19   H     H_    0.408203 0.593569 0.791785 0.158395
H20   H     H_    0.234543 0.578345 0.797798 0.115628
H21   H     H_    0.306732 0.133027 0.397501 0.131719
H22   H     H_    0.404667 0.092539 0.314106 0.162697
H23   H     H_    0.238070 0.977035 0.159415 0.160542
O1    O     O_3   0.500000 0.000000 0.000000 -0.457032
O2    O     O_R   0.054120 0.939900 0.325040 -0.499024
O3    O     O_R   0.884120 0.060070 0.444330 -0.526437
O4    O     O_R   0.325020 0.939940 0.054210 -0.524826
O5    O     O_R   0.175860 0.060090 0.615830 -0.538373
O6    O     O_R   0.884120 0.939900 0.324160 -0.546358
O7    O     O_R   0.055710 0.939940 0.615850 -0.544578
O8    O     O_R   0.885720 0.939940 0.614980 -0.538645
O9    O     O_R   0.174930 0.060060 0.445830 -0.557703
O10   O     O_R   0.054120 0.229160 0.614300 -0.530635
O11   O     O_R   0.885050 0.770830 0.325070 -0.534300
O12   O     O_R   0.614240 0.229150 0.054160 -0.558554
O13   O     O_R   0.614240 0.060060 0.885070 -0.533839
O14   O     O_R   0.614900 0.229170 0.174980 -0.493541
O15   O     O_R   0.445840 0.770840 0.885740 -0.543801
O16   O     O_R   0.615830 0.060100 0.175880 -0.492327
O17   O     O_R   0.324090 0.939910 0.884220 -0.546389
O18   O     O_R   0.615830 0.939930 0.055710 -0.561380
O19   O     O_R   0.444240 0.060060 0.884190 -0.542596
O20   O     O_R   0.325020 0.770840 0.885120 -0.538063
O21   O     O_R   0.445840 0.060100 0.175010 -0.542570
O22   O     O_R   0.614900 0.939900 0.885710 -0.539135
O23   O     O_3   0.999960 0.000000 0.500040 -0.454212
O24   O     O_R   0.174930 0.229160 0.614920 -0.543432
O25   O     O_R   0.885720 0.770850 0.445880 -0.536237
O26   O     O_R   0.885050 0.060100 0.614330 -0.537161
Zn1   Zn    Zn3+2 0.542440 0.085830 0.956610 0.947178
Zn2   Zn    Zn3+2 0.543390 0.085850 0.129220 1.002107
Zn3   Zn    Zn3+2 0.543390 0.914160 0.957530 0.943091
Zn4   Zn    Zn3+2 0.370780 0.914160 0.956640 0.950331
Zn5   Zn    Zn3+2 0.957510 0.914170 0.543430 0.947823
Zn6   Zn    Zn3+2 0.956570 0.085840 0.542520 0.962927
Zn7   Zn    Zn3+2 0.956570 0.914150 0.370820 0.970801
Zn8   Zn    Zn3+2 0.129180 0.085840 0.543400 0.944285

loop_
_geom_bond_atom_site_label_1
_geom_bond_atom_site_label_2
_ccdc_geom_bond_type
C21   H7    S    
C3    C42   S    
C15   C18   S    
C38   C39   A    
C7    H18   S    
O1    Zn2   S    
C15   H2    S    
C33   C38   S    
O2    Zn7   S    
C23   C41   A    
C4    C5    S    
O4    Zn4   S    
O8    Zn5   S    
C19   C32   S    
C17   H4    S    
C3    H16   S    
C22   H8    S    
C2    C27   S    
C39   H1    S    
C35   C36   A    
O13   Zn1   S    
C32   O18   A    
C36   H9    S    
C28   O15   A    
O16   Zn2   S    
O18   Zn3   S    
C21   C26   S    
O17   Zn4   S    
C40   H13   S    
C29   O9    A    
C13   C14   D    
O19   Zn1   S    
Br2   C19   S    
C20   C21   D    
O23   Zn6   S    
C16   O14   A    
C25   O10   A    
C6    C7    D    
O25   Zn5   S    
O22   Zn3   S    
C35   H3    S    
O24   Zn8   S    
C31   O7    A    
O1    Zn4   S    
C10   C11   D    
O9    Zn8   S    
O23   Zn7   S    
C18   H5    S    
C10   H21   S    
C33   O19   A    
O14   Zn2   S    
C6    H17   S    
C31   C41   S    
C8    H19   S    
C36   C37   A    
C12   C23   A    
C29   O2    A    
C4    O22   A    
C2    C42   D    
C40   C41   A    
C34   C35   A    
C5    H12   S    
C27   O8    A    
C20   H6    S    
C26   O11   A    
O26   Zn6   S    
C8    C9    D    
C37   H10   S    
O7    Zn5   S    
C25   O24   A    
C13   H22   S    
O12   Zn1   S    
C6    C8    S    
O6    Zn7   S    
C1    C14   S    
O5    Zn8   S    
C4    O13   A    
C9    C28   S    
O10   Zn6   S    
C39   C40   A    
C17   C30   S    
O23   Zn8   S    
C1    O4    A    
C16   C24   S    
C1    O21   A    
C9    H20   S    
C7    C25   S    
C42   H14   S    
C14   H23   S    
C28   O20   A    
C2    H15   S    
C11   C29   S    
O1    Zn1   S    
C3    C5    D    
C32   O16   A    
C23   C34   A    
C33   O17   A    
C22   C24   D    
O3    Zn6   S    
C12   H11   S    
O21   Zn2   S    
Br3   C24   S    
C27   O26   A    
C26   O25   A    
C15   C17   D    
C20   C22   S    
C34   C38   A    
C16   O12   A    
C12   C37   A    
C30   O3    A    
C31   O5    A    
C30   O6    A    
O15   Zn3   S    
C10   C13   S    
O11   Zn7   S    
Br1   C11   S    
O23   Zn5   S    
C18   C19   D    
O20   Zn4   S    
O1    Zn3   S    
