data_mof_unit_63137.cif
_audit_creation_date              2012-12-10T20:12:02-0500
_audit_creation_method            fapswitch 2.2
_symmetry_space_group_name_H-M    P1
_symmetry_Int_Tables_number       1
_space_group_crystal_system       triclinic
_cell_length_a                    13.636547
_cell_length_b                    18.483718
_cell_length_c                    19.113662
_cell_angle_alpha                 89.63334
_cell_angle_beta                  90.193217
_cell_angle_gamma                 83.230714
_cell_volume                      4783.95259035

loop_
_atom_site_label
_atom_site_type_symbol
_atom_type_description
_atom_site_fract_x
_atom_site_fract_y
_atom_site_fract_z
_atom_type_partial_charge
C1    C     C_R   0.500076 0.499707 0.634642 0.915978
C2    C     C_R   0.426767 0.565182 0.036150 -0.174948
C3    C     C_R   0.423370 0.500444 0.927163 0.126985
C4    C     C_R   0.421484 0.499836 0.072672 0.125001
C5    C     C_R   0.437698 0.279438 0.456596 0.773998
C6    C     C_R   0.563972 0.720244 0.542359 0.774178
C7    C     C_R   0.436797 0.203595 0.455996 -0.354237
C8    C     C_R   0.565024 0.796086 0.543232 -0.353586
C9    C     C_R   0.500614 0.158547 0.500267 0.030507
C10   C     C_R   0.499756 0.841430 0.500239 0.031019
C11   C     C_R   0.564194 0.192373 0.544411 -0.262305
C12   C     C_R   0.496350 0.500547 0.365525 0.905062
C13   C     C_R   0.434302 0.808028 0.457331 -0.266371
C14   C     C_R   0.562717 0.268469 0.543403 -0.065494
C15   C     C_R   0.435465 0.731970 0.458206 -0.071838
C16   C     C_R   0.685888 0.487119 0.500069 0.908844
C17   C     C_R   0.314115 0.512884 0.499891 0.916060
C18   C     C_R   0.515985 0.036129 0.562533 -0.173181
C19   C     C_R   0.484680 0.963715 0.438034 -0.173953
C20   C     C_R   0.515657 0.960165 0.562523 -0.177887
C21   C     C_R   0.485192 0.039649 0.438011 -0.177890
C22   C     C_R   0.499937 0.922704 0.500278 0.155400
C23   C     C_R   0.526603 0.447111 0.249326 -0.225078
C24   C     C_R   0.500736 0.077184 0.500275 0.155557
C25   C     C_1   0.210490 0.522652 0.499453 -0.124933
C26   C     C_1   0.789526 0.477373 0.500220 -0.137938
C27   C     C_2   0.019034 0.531404 0.498827 -0.145457
C28   C     C_2   0.980987 0.468657 0.500338 -0.149256
C29   C     C_1   0.877210 0.470909 0.500317 0.027560
C30   C     C_1   0.122810 0.529143 0.499090 0.031294
C31   C     C_R   0.405372 0.554151 0.260911 0.389176
C32   C     C_R   0.530258 0.443292 0.752756 0.389133
C33   C     C_R   0.385639 0.551938 0.189722 -0.202799
C34   C     C_R   0.420553 0.556316 0.738438 -0.231360
C35   C     C_R   0.507654 0.443048 0.823587 -0.200390
C36   C     C_R   0.436260 0.497953 0.148204 0.038766
C37   C     C_R   0.441065 0.498746 0.851869 0.042843
C38   C     C_R   0.506244 0.445159 0.178245 -0.152100
C39   C     C_R   0.397716 0.555392 0.808985 -0.165475
C40   C     C_R   0.477689 0.502081 0.290747 -0.106212
C41   C     C_R   0.486058 0.500228 0.709843 -0.109967
C42   C     C_R   0.411034 0.435643 0.036309 -0.170501
C43   C     C_R   0.427905 0.565475 0.963679 -0.167288
C44   C     C_R   0.411622 0.435997 0.963680 -0.179981
Cl1   Cl    Cl    0.332650 0.619733 0.310882 -0.648755
Cl2   Cl    Cl    0.617392 0.373390 0.720830 -0.635235
F1    F     F_    0.375822 0.321958 0.413586 -0.650834
F2    F     F_    0.627213 0.677437 0.584208 -0.650817
H1    H     H_    0.026954 0.416424 0.501674 0.170484
H2    H     H_    0.474976 0.068812 0.388748 0.141523
H3    H     H_    0.330235 0.592035 0.166734 0.171462
H4    H     H_    0.543985 0.400293 0.856875 0.169664
H5    H     H_    0.546763 0.403587 0.146436 0.147599
H6    H     H_    0.345968 0.598702 0.830026 0.147157
H7    H     H_    0.581111 0.406129 0.271965 0.162840
H8    H     H_    0.384916 0.599906 0.705764 0.168933
H9    H     H_    0.405583 0.385032 0.064122 0.144255
H10   H     H_    0.438225 0.615558 0.936423 0.141390
H11   H     H_    0.406423 0.385587 0.936066 0.144229
H12   H     H_    0.973072 0.583639 0.497526 0.171871
H13   H     H_    0.435872 0.615044 0.063648 0.144216
H14   H     H_    0.385405 0.180571 0.421748 0.169739
H15   H     H_    0.617584 0.818920 0.576661 0.170368
H16   H     H_    0.615845 0.160330 0.578754 0.165730
H17   H     H_    0.381413 0.840419 0.424126 0.166597
H18   H     H_    0.612168 0.293973 0.577173 0.202909
H19   H     H_    0.384178 0.706925 0.425749 0.214079
H20   H     H_    0.526478 0.062841 0.611769 0.143287
H21   H     H_    0.474017 0.936943 0.388846 0.142289
H22   H     H_    0.526046 0.930891 0.611725 0.142365
N1    N     N_R   0.499990 0.310560 0.500020 -0.149737
N2    N     N_R   0.500010 0.689440 0.499980 -0.149301
O1    O     O_R   0.500000 0.439160 0.601820 -0.591577
O2    O     O_R   0.500000 0.560840 0.398180 -0.591369
O3    O     O_R   0.500040 0.560790 0.601820 -0.587469
O4    O     O_R   0.499960 0.439210 0.398180 -0.581154
O5    O     O_R   0.640320 0.430440 0.499980 -0.625349
O6    O     O_R   0.359680 0.569560 0.500020 -0.616642
O7    O     O_R   0.640370 0.552060 0.499990 -0.563890
O8    O     O_R   0.359630 0.447940 0.500010 -0.569306
Zn1   Zn    Zn3+2 0.499970 0.418790 0.500000 1.025378
Zn2   Zn    Zn3+2 0.500030 0.581210 0.500000 1.026140

loop_
_geom_bond_atom_site_label_1
_geom_bond_atom_site_label_2
_ccdc_geom_bond_type
C4    C36   S    
C34   H8    S    
C12   O2    A    
C14   N1    A    
C13   H17   S    
C10   C22   S    
C6    N2    A    
C15   N2    A    
C5    F1    S    
C3    C43   A    
C6    F2    S    
C18   C24   A    
C28   C29   S    
C35   C37   A    
C27   H12   S    
C11   C14   A    
C39   H6    S    
C44   H11   S    
C18   H20   S    
C23   C40   A    
C33   C36   A    
C31   C40   A    
C16   O5    A    
C43   H10   S    
C32   C41   A    
C31   C33   A    
C2    H13   S    
C27   C30   S    
C20   H22   S    
C34   C41   A    
C42   C44   A    
O2    Zn2   S    
C42   H9    S    
O1    Zn1   S    
C21   H2    S    
C16   C26   S    
C37   C39   A    
C3    C44   A    
C34   C39   A    
C1    O3    A    
C32   C35   A    
C19   C22   A    
C11   H16   S    
C5    C7    A    
C6    C8    A    
C17   O8    A    
C12   C40   S    
C2    C4    A    
C7    H14   S    
C28   H1    S    
O6    Zn2   S    
O5    Zn1   S    
C2    C43   A    
C15   H19   S    
C14   H18   S    
O3    Zn2   S    
C9    C11   A    
C1    C41   S    
C20   C22   A    
C13   C15   A    
C19   H21   S    
C35   H4    S    
C25   C30   T    
C7    C9    A    
C19   C21   A    
C32   Cl2   S    
O8    Zn1   S    
C10   C13   A    
O4    Zn1   S    
O7    Zn2   S    
C9    C24   S    
C23   H7    S    
C33   H3    S    
C23   C38   A    
C16   O7    A    
C1    O1    A    
C12   O4    A    
C17   C25   S    
C5    N1    A    
C38   H5    S    
C4    C42   A    
C36   C38   A    
C17   O6    A    
C18   C20   A    
C8    H15   S    
C3    C37   S    
C26   C29   T    
C8    C10   A    
C31   Cl1   S    
C21   C24   A    
C27   C28   D    
N2    Zn2   S    
N1    Zn1   S    
