data_mof_unit_48076.cif
_audit_creation_date              2013-03-05T15:56:02-0500
_audit_creation_method            fapswitch 2.2
_symmetry_space_group_name_H-M    P1
_symmetry_Int_Tables_number       1
_space_group_crystal_system       triclinic
_cell_length_a                    12.319922
_cell_length_b                    13.216278
_cell_length_c                    17.342393
_cell_angle_alpha                 105.028853
_cell_angle_beta                  74.757164
_cell_angle_gamma                 116.67374
_cell_volume                      2401.56027874

loop_
_atom_site_label
_atom_site_type_symbol
_atom_site_description
_atom_site_fract_x
_atom_site_fract_y
_atom_site_fract_z
_atom_type_partial_charge
O1    O     O_R   0.025490 0.682370 0.523640 -0.580850
O2    O     O_R   0.194150 0.640180 0.491890 -0.600706
C1    C     C_R   0.144545 0.713507 0.507311 0.792797
O3    O     O_R   0.905900 0.523560 0.631310 -0.587638
O4    O     O_R   0.074570 0.481370 0.599560 -0.601775
C2    C     C_R   0.988778 0.505240 0.652196 0.805936
Cu1   Cu    Cu3+1 0.900140 0.524980 0.518800 0.940432
Cu2   Cu    Cu3+1 0.099860 0.475020 0.481200 0.932887
O5    O     O_R   0.805850 0.359820 0.508110 -0.589937
O6    O     O_R   0.974510 0.317630 0.476360 -0.585748
O7    O     O_R   0.925430 0.518630 0.400440 -0.588815
O8    O     O_R   0.094100 0.476440 0.368690 -0.600653
C3    C     C_R   0.855934 0.286404 0.488164 0.801836
C4    C     C_R   0.011552 0.495197 0.347823 0.780273
C5    C     C_R   0.987613 0.514005 0.738054 -0.033260
C6    C     C_R   0.083337 0.505773 0.761812 -0.142625
C7    C     C_R   0.083815 0.515053 0.843171 -0.118533
C8    C     C_R   0.987347 0.530808 0.901913 0.180825
C9    C     C_R   0.893632 0.542457 0.878610 -0.162094
C10   C     C_R   0.893365 0.533695 0.796989 -0.188930
C11   C     C_R   0.920385 0.489487 0.156409 -0.148518
C12   C     C_R   0.918650 0.496081 0.237775 -0.203697
C13   C     C_R   0.110528 0.471564 0.203531 -0.200493
C14   C     C_R   0.112229 0.465088 0.121938 -0.164961
C15   C     C_R   0.018618 0.476326 0.098212 0.192311
C16   C     C_2   0.981799 0.534458 0.987846 -0.219758
C17   C     C_2   0.025397 0.473768 0.012313 -0.226068
C18   C     C_R   0.014263 0.488290 0.261997 -0.025979
H1    H     H_    0.158487 0.492870 0.717695 0.163404
H2    H     H_    0.841998 0.506629 0.281531 0.152065
H3    H     H_    0.184756 0.464217 0.220745 0.151383
H4    H     H_    0.069991 0.422788 0.968613 0.145766
H5    H     H_    0.819394 0.555957 0.923481 0.126560
H6    H     H_    0.844208 0.493546 0.139321 0.124972
H7    H     H_    0.819204 0.541596 0.780132 0.154348
H8    H     H_    0.937157 0.585342 0.031641 0.146449
H9    H     H_    0.160206 0.510716 0.859749 0.130222
H10   H     H_    0.187799 0.453548 0.077443 0.127098
C19   C     C_R   0.734279 0.975953 0.392970 -0.182379
H11   H     H_    0.915027 0.111000 0.394662 0.147538
H12   H     H_    0.557105 0.777892 0.343706 0.143167
H13   H     H_    0.768757 0.916416 0.350644 0.132908
C20   C     C_R   0.774638 0.164946 0.471855 -0.048637
C21   C     C_R   0.179253 0.915638 0.561152 -0.172260
C22   C     C_R   0.256666 0.030739 0.577577 -0.133216
C23   C     C_R   0.382595 0.067861 0.549189 -0.169877
C24   C     C_R   0.433674 0.990222 0.500581 0.095637
C25   C     C_R   0.352294 0.875394 0.476210 0.093245
C26   C     C_R   0.562649 0.023034 0.474513 0.087758
C27   C     C_R   0.607236 0.944530 0.419154 0.173701
C28   C     C_R   0.524602 0.836729 0.388763 -0.234535
C29   C     C_R   0.399036 0.803348 0.415651 -0.199376
C30   C     C_R   0.649052 0.131568 0.502122 -0.230936
C31   C     C_R   0.817739 0.086120 0.418760 -0.189195
C32   C     C_R   0.226006 0.836447 0.512395 -0.095525
H14   H     H_    0.621370 0.193109 0.546636 0.148564
H15   H     H_    0.082798 0.888201 0.588403 0.154682
H16   H     H_    0.436642 0.158353 0.564972 0.126881
H17   H     H_    0.219343 0.091231 0.614719 0.144175
H18   H     H_    0.339504 0.721393 0.386403 0.173209
C33   C     C_R   0.643647 0.675606 0.629421 -0.235803
H19   H     H_    0.817781 0.691590 0.645248 0.125784
H20   H     H_    0.641333 0.741541 0.681171 0.189016
N1    N     N_R   0.749710 0.562810 0.547300 -0.180662
C34   C     C_R   0.250315 0.352039 0.390105 0.081258
C35   C     C_R   0.349387 0.320440 0.366576 -0.258563
C36   C     C_R   0.449376 0.377023 0.407745 -0.176503
C37   C     C_R   0.451637 0.466609 0.473552 -0.005092
C38   C     C_R   0.347598 0.495441 0.495618 0.229719
C39   C     C_R   0.552289 0.527872 0.518385 -0.082236
C40   C     C_R   0.547890 0.618200 0.583322 0.041856
C41   C     C_R   0.446418 0.647533 0.602676 0.264863
C42   C     C_R   0.347758 0.584266 0.560951 -0.270622
C43   C     C_R   0.657973 0.503313 0.501825 0.047490
C44   C     C_R   0.743936 0.646805 0.610099 0.051154
N2    N     N_R   0.249640 0.437820 0.453210 -0.195582
H21   H     H_    0.669534 0.437315 0.453219 0.117143
H22   H     H_    0.173189 0.307699 0.357795 0.119956
H23   H     H_    0.523389 0.348924 0.386648 0.130935
H24   H     H_    0.348742 0.251851 0.316181 0.144171
H25   H     H_    0.273208 0.609660 0.581253 0.236984
N3    N     N_R   0.442602 0.743719 0.663707 0.117212
O9    O     O_R   0.341264 0.734757 0.714587 -0.378523
O10   O     O_R   0.531161 0.845158 0.658480 -0.358010

loop_
_geom_bond_atom_site_label_1
_geom_bond_atom_site_label_2
_geom_bond_distance
_ccdc_geom_bond_type
C25   C32   1.419343 A    
C9    C10   1.390751 A    
C8    C16   1.462892 S    
Cu1   Cu2   2.703166 S    
C24   C26   1.422162 A    
C22   C23   1.389352 A    
C33   C44   1.386425 A    
Cu1   O7    1.978716 S    
C16   C17   1.339792 D    
C34   N2    1.357677 A    
O4    C2    1.301013 A    
O7    C4    1.301420 A    
C19   C31   1.391826 A    
C5    C6    1.402244 A    
Cu2   N2    2.025377 S    
C38   N2    1.388665 A    
C8    C9    1.399006 A    
C33   H20   1.081155 S    
O5    C3    1.301178 A    
C29   H18   1.079748 S    
C2    C5    1.459972 S    
C10   H7    1.083076 S    
C1    C32   1.470776 S    
C20   C30   1.394357 A    
C6    C7    1.385596 A    
C43   H21   1.076462 S    
C39   C43   1.420398 A    
C14   H10   1.083595 S    
C13   C14   1.390412 A    
C38   C42   1.403980 A    
C39   C40   1.423057 A    
C33   C40   1.408646 A    
C35   C36   1.394612 A    
C12   C18   1.402183 A    
C11   C12   1.386085 A    
C23   H16   1.076896 S    
O3    Cu1   1.976242 S    
C42   H25   1.060931 S    
C27   C28   1.390877 A    
C19   H13   1.083964 S    
C5    C10   1.403540 A    
C28   C29   1.385573 A    
C36   H23   1.077659 S    
C14   C15   1.398727 A    
O3    C2    1.301639 A    
C9    H5    1.083584 S    
C37   C38   1.428119 A    
C11   H6    1.082199 S    
C6    H1    1.083167 S    
N3    O9    1.301349 A    
C36   C37   1.411171 A    
O1    C1    1.304226 A    
C13   H3    1.083109 S    
C20   C31   1.399004 A    
C24   C25   1.418107 A    
C21   H15   1.083343 S    
Cu2   O8    1.976243 S    
C7    C8    1.403283 A    
C7    H9    1.082099 S    
C13   C18   1.403686 A    
C16   H8    1.085877 S    
O8    C4    1.301181 A    
C34   C35   1.392145 A    
N3    O10   1.301425 A    
H19   C44   1.081950 S    
C3    C20   1.459423 S    
C21   C22   1.385766 A    
C30   H14   1.076460 S    
Cu1   O5    1.942998 S    
C11   C15   1.403284 A    
C23   C24   1.418346 A    
C22   H17   1.082934 S    
C34   H22   1.081649 S    
C12   H2    1.083326 S    
C17   H4    1.085696 S    
O1    Cu1   1.952510 S    
O2    Cu2   1.942996 S    
C41   C42   1.391540 A    
O6    C3    1.300607 A    
O4    Cu2   1.978716 S    
C15   C17   1.462298 S    
C35   H24   1.082563 S    
H11   C31   1.083245 S    
O2    C1    1.302136 A    
C40   C41   1.404551 A    
C21   C32   1.402978 A    
C26   C30   1.400299 A    
N1    C44   1.351539 A    
Cu1   N1    2.037409 S    
C25   C29   1.413130 A    
C19   C27   1.403170 A    
Cu2   O6    1.952512 S    
C26   C27   1.420466 A    
C37   C39   1.441116 A    
N1    C43   1.366305 A    
C4    C18   1.459792 S    
H12   C28   1.084218 S    
C41   N3    1.438116 S    
