data_mof_unit_30468.cif
_audit_creation_date              2013-03-05T15:47:46-0500
_audit_creation_method            fapswitch 2.2
_symmetry_space_group_name_H-M    P1
_symmetry_Int_Tables_number       1
_space_group_crystal_system       triclinic
_cell_length_a                    21.7022
_cell_length_b                    7.19623
_cell_length_c                    18.603465
_cell_angle_alpha                 90.139687
_cell_angle_beta                  96.061707
_cell_angle_gamma                 90.077087
_cell_volume                      2889.12090938

loop_
_atom_site_label
_atom_site_type_symbol
_atom_site_description
_atom_site_fract_x
_atom_site_fract_y
_atom_site_fract_z
_atom_type_partial_charge
O1    O     O_R   0.449650 0.506500 0.414480 -0.588108
O2    O     O_R   0.550350 0.006500 0.585520 -0.581853
O3    O     O_R   0.432010 0.173150 0.560250 -0.580520
O4    O     O_R   0.567990 0.673150 0.439750 -0.583490
C1    C     C_R   0.415912 0.344430 0.580521 0.907627
C2    C     C_R   0.584055 0.844281 0.419489 0.903770
O5    O     O_R   0.442320 0.176650 0.413480 -0.575149
O6    O     O_R   0.557680 0.676650 0.586520 -0.579349
O7    O     O_R   0.560730 0.008380 0.437700 -0.592650
O8    O     O_R   0.439270 0.508380 0.562300 -0.595842
C3    C     C_R   0.428990 0.344430 0.387131 0.942797
C4    C     C_R   0.571514 0.845555 0.612421 0.944242
O9    O     O_3   0.538840 0.339860 0.508120 -0.276806
O10   O     O_3   0.461160 0.839860 0.491880 -0.278013
V1    V     V_3+5 0.492800 0.064220 0.498490 1.183752
V2    V     V_3+5 0.507200 0.564220 0.501510 1.180414
C5    C     C_R   0.868613 0.978760 0.689003 -0.179349
C6    C     C_R   0.132556 0.484240 0.310151 -0.182465
H1    H     H_    0.788565 0.936582 0.572817 0.170096
H2    H     H_    0.215421 0.496132 0.423806 0.180649
H3    H     H_    0.886814 0.008622 0.638123 0.153989
H4    H     H_    0.114605 0.516423 0.361030 0.153570
C7    C     C_R   0.886053 0.942456 0.819238 -0.295522
C8    C     C_R   0.114508 0.443637 0.180185 -0.293799
C9    C     C_R   0.582289 0.859229 0.747571 0.256181
C10   C     C_R   0.414986 0.281274 0.254305 0.247233
C11   C     C_R   0.618908 0.888613 0.814000 0.291368
C12   C     C_R   0.375203 0.240208 0.191245 0.288526
C13   C     C_R   0.683285 0.906492 0.815743 -0.170373
C14   C     C_R   0.311569 0.274267 0.189271 -0.167568
C15   C     C_R   0.714096 0.887430 0.753218 0.085346
C16   C     C_R   0.285524 0.360235 0.247050 0.079625
C17   C     C_R   0.676758 0.872547 0.685351 0.025480
C18   C     C_R   0.324708 0.384274 0.313268 0.031292
C19   C     C_R   0.780611 0.901132 0.755430 -0.019142
C20   C     C_R   0.220612 0.407865 0.243222 -0.023812
C21   C     C_R   0.806000 0.932595 0.689358 0.067989
C22   C     C_R   0.195851 0.450210 0.308968 0.070451
C23   C     C_R   0.768702 0.919384 0.623456 -0.100338
C24   C     C_R   0.234466 0.462867 0.373853 -0.115526
C25   C     C_R   0.705640 0.883683 0.621324 -0.131570
C26   C     C_R   0.297881 0.436741 0.375707 -0.139625
C27   C     C_R   0.823072 0.887451 0.820020 0.236540
C28   C     C_R   0.179227 0.417431 0.177482 0.234808
C29   C     C_R   0.908091 0.992799 0.753139 0.259824
C30   C     C_R   0.091740 0.481337 0.247037 0.258408
C31   C     C_R   0.611042 0.855333 0.682616 -0.247898
C32   C     C_R   0.389398 0.345683 0.316824 -0.253598
H5    H     H_    0.708314 0.946152 0.866509 0.184900
H6    H     H_    0.282606 0.223275 0.142910 0.186635
H7    H     H_    0.679278 0.873547 0.568702 0.107599
H8    H     H_    0.325425 0.452869 0.427354 0.116966
C33   C     C_R   0.642053 0.714339 0.320941 -0.139595
C34   C     C_R   0.357697 0.215486 0.678997 -0.140142
C35   C     C_R   0.634702 0.854001 0.371892 -0.160138
C36   C     C_R   0.365228 0.354707 0.628147 -0.157999
C37   C     C_R   0.675789 0.004202 0.377506 -0.155798
C38   C     C_R   0.324365 0.505258 0.622765 -0.158250
C39   C     C_R   0.724714 0.015818 0.333739 -0.035701
C40   C     C_R   0.275366 0.517330 0.666468 -0.035449
C41   C     C_R   0.729715 0.880416 0.279215 -0.007026
C42   C     C_R   0.270005 0.381753 0.720593 -0.006597
C43   C     C_R   0.688749 0.726118 0.273317 0.130945
C44   C     C_R   0.310817 0.227353 0.726361 0.136151
C45   C     C_R   0.769548 0.157844 0.344905 0.291766
C46   C     C_R   0.230814 0.659948 0.655700 0.293144
C47   C     C_R   0.818047 0.168394 0.300338 0.109429
C48   C     C_R   0.181808 0.669246 0.699604 0.111660
C49   C     C_R   0.816533 0.054685 0.237332 0.064227
C50   C     C_R   0.182905 0.555399 0.762299 0.060827
C51   C     C_R   0.775494 0.900088 0.230816 -0.103190
C52   C     C_R   0.224056 0.401373 0.768822 -0.102674
C53   C     C_R   0.779893 0.766750 0.175507 0.072440
C54   C     C_R   0.219675 0.268529 0.824044 0.077019
C55   C     C_R   0.736688 0.617176 0.166987 0.202506
C56   C     C_R   0.262756 0.119344 0.832486 0.201215
C57   C     C_R   0.694455 0.589026 0.219419 0.232574
C58   C     C_R   0.304661 0.090164 0.779866 0.231944
C59   C     C_R   0.854843 0.089173 0.180931 0.225225
C60   C     C_R   0.144257 0.589539 0.818492 0.229919
C61   C     C_R   0.865942 0.943281 0.132141 -0.191758
C62   C     C_R   0.133597 0.443947 0.867469 -0.190145
C63   C     C_R   0.828896 0.783031 0.131556 -0.195602
C64   C     C_R   0.170862 0.284624 0.868138 -0.196599
H9    H     H_    0.609122 0.600939 0.317120 0.136786
H10   H     H_    0.390645 0.102469 0.683015 0.138034
H11   H     H_    0.669705 0.110807 0.417257 0.176234
H12   H     H_    0.330688 0.611721 0.583227 0.175276
H13   H     H_    0.838323 0.671961 0.095202 0.178068
H14   H     H_    0.161880 0.173972 0.904760 0.179939
O11   O     O_R   0.060820 0.290050 0.937800 -0.595050
O12   O     O_R   0.939180 0.790050 0.062200 -0.595466
O13   O     O_R   0.057690 0.616620 0.086540 -0.586780
O14   O     O_R   0.942310 0.116620 0.913460 -0.582452
C65   C     C_R   0.071723 0.449179 0.112437 1.036266
C66   C     C_R   0.928570 0.948594 0.887274 1.037345
O15   O     O_R   0.068010 0.619890 0.939770 -0.592559
O16   O     O_R   0.931990 0.119890 0.060230 -0.591957
O17   O     O_R   0.949640 0.787940 0.914460 -0.577928
O18   O     O_R   0.050360 0.287940 0.085540 -0.577247
C67   C     C_R   0.084099 0.452152 0.918246 1.008784
C68   C     C_R   0.915758 0.952063 0.081640 1.012524
O19   O     O_3   0.961210 0.453080 0.991940 -0.279427
O20   O     O_3   0.038790 0.953080 0.008060 -0.282844
V3    V     V_3+5 0.007200 0.728820 0.001500 1.207243
V4    V     V_3+5 0.992800 0.228820 0.998500 1.206274
C69   C     C_3   0.973858 0.055493 0.747450 -0.991991
H15   H     H_    0.002665 0.063396 0.800153 0.238159
H16   H     H_    0.996538 0.957593 0.712335 0.249865
H17   H     H_    0.973371 0.195940 0.722801 0.261451
C70   C     C_3   0.024900 0.529043 0.253821 -0.997914
H18   H     H_    0.996112 0.538433 0.201214 0.236352
H19   H     H_    0.004604 0.422410 0.287269 0.251898
H20   H     H_    0.022389 0.666222 0.280842 0.260523
N1    N     N_R   0.768458 0.285461 0.404372 0.233081
O21   O     O_R   0.769003 0.463705 0.392963 -0.405598
O22   O     O_R   0.774109 0.224142 0.470474 -0.428184
N2    N     N_R   0.232875 0.790381 0.597551 0.233661
O23   O     O_R   0.231883 0.967999 0.610498 -0.405358
O24   O     O_R   0.227765 0.732366 0.530929 -0.436315
C71   C     C_3   0.875977 0.273716 0.329439 -0.854465
H21   H     H_    0.886972 0.245945 0.388098 0.261253
H22   H     H_    0.917204 0.226436 0.304150 0.232697
H23   H     H_    0.869359 0.425611 0.321885 0.265859
C72   C     C_3   0.123984 0.773761 0.669996 -0.855544
H24   H     H_    0.113486 0.745236 0.611265 0.260934
H25   H     H_    0.082423 0.726875 0.694787 0.233575
H26   H     H_    0.130553 0.925807 0.677602 0.265677
C73   C     C_3   0.876987 0.284476 0.167319 -0.954704
H27   H     H_    0.855270 0.391234 0.199163 0.255958
H28   H     H_    0.928045 0.292082 0.178578 0.250312
H29   H     H_    0.862552 0.324787 0.110551 0.269388
C74   C     C_3   0.121342 0.784556 0.831726 -0.953885
H30   H     H_    0.143167 0.891542 0.800207 0.254260
H31   H     H_    0.070227 0.791357 0.819927 0.249046
H32   H     H_    0.135357 0.826597 0.888471 0.269529
C75   C     C_3   0.730511 0.497775 0.099071 -0.932066
H33   H     H_    0.751395 0.359064 0.110673 0.255401
H34   H     H_    0.680763 0.479914 0.079135 0.258534
H35   H     H_    0.750933 0.561692 0.052941 0.276214
C76   C     C_3   0.269091 0.001690 0.900620 -0.930470
H36   H     H_    0.318795 0.977086 0.918835 0.259197
H37   H     H_    0.251219 0.071408 0.947318 0.268969
H38   H     H_    0.245655 0.865899 0.890276 0.259859
C77   C     C_3   0.654914 0.414259 0.217828 -1.001566
H39   H     H_    0.669990 0.303547 0.182150 0.266301
H40   H     H_    0.658040 0.351401 0.272499 0.254921
H41   H     H_    0.605973 0.449602 0.199856 0.244901
C78   C     C_3   0.343040 0.913625 0.781036 -1.002285
H42   H     H_    0.324852 0.801214 0.813539 0.267043
H43   H     H_    0.342208 0.854973 0.725745 0.255704
H44   H     H_    0.391433 0.944607 0.803001 0.250709
N3    N     N_R   0.805174 0.797274 0.883468 0.219642
O25   O     O_R   0.779697 0.633317 0.878336 -0.394912
O26   O     O_R   0.814491 0.877486 0.946443 -0.464926
N4    N     N_R   0.202668 0.431853 0.108352 0.211575
O27   O     O_R   0.183282 0.319266 0.055929 -0.457778
O28   O     O_R   0.241581 0.563438 0.096782 -0.396644
C79   C     C_3   0.512532 0.841512 0.747101 -0.991334
H45   H     H_    0.487729 0.812107 0.693153 0.242988
H46   H     H_    0.501274 0.725836 0.782859 0.257473
H47   H     H_    0.493695 0.973290 0.766716 0.243704
C80   C     C_3   0.484114 0.248378 0.254658 -0.966762
H48   H     H_    0.511832 0.299408 0.304245 0.235947
H49   H     H_    0.493289 0.097529 0.249266 0.253528
H50   H     H_    0.501526 0.323474 0.208879 0.245265
C81   C     C_3   0.589809 0.905554 0.884014 -0.944318
H51   H     H_    0.624940 0.929753 0.931011 0.253504
H52   H     H_    0.556994 0.024150 0.881003 0.248040
H53   H     H_    0.564720 0.775514 0.894447 0.253375
C82   C     C_3   0.399704 0.154967 0.125635 -0.925942
H54   H     H_    0.362229 0.127594 0.081413 0.254185
H55   H     H_    0.433445 0.250606 0.104145 0.248733
H56   H     H_    0.422664 0.020573 0.140346 0.250667

loop_
_geom_bond_atom_site_label_1
_geom_bond_atom_site_label_2
_geom_bond_distance
_ccdc_geom_bond_type
C46   C48   1.409273 A    
C82   H54   1.111091 S    
C7    C29   1.413513 A    
C11   C13   1.399822 A    
C53   C55   1.424059 A    
C1    C36   1.485301 S    
C80   H48   1.108269 S    
O1    C3    1.329526 A    
C2    C35   1.484167 S    
O2    C4    1.326103 A    
C2    O7    1.342166 A    
C77   H39   1.107385 S    
C81   H52   1.110002 S    
C13   H5    1.076260 S    
C10   C12   1.411629 A    
O5    C3    1.324997 A    
C75   H34   1.111095 S    
C54   C56   1.422627 A    
C16   C20   1.444745 A    
N4    O27   1.301198 A    
C80   H49   1.110131 S    
C5    C29   1.396827 A    
C78   H43   1.109263 S    
H2    C24   1.082612 S    
C53   C63   1.413158 A    
C37   C39   1.407108 A    
C38   C40   1.407785 A    
N1    O21   1.300880 A    
C59   C73   1.515250 S    
C66   O17   1.325476 A    
C47   C71   1.516505 S    
C10   C80   1.518446 S    
C7    C27   1.424036 A    
C7    C66   1.486040 S    
C40   C42   1.417224 A    
C49   C51   1.421094 A    
N2    O23   1.300729 A    
C71   H23   1.109993 S    
C42   C44   1.419045 A    
C77   H40   1.109692 S    
N4    O28   1.301295 A    
C70   H18   1.106341 S    
C12   C14   1.399595 A    
C45   C47   1.409046 A    
C18   C26   1.404305 A    
C9    C79   1.518178 S    
C72   H26   1.109992 S    
C69   H15   1.107042 S    
C15   C17   1.430112 A    
N3    O26   1.301142 A    
C19   C27   1.438630 A    
C9    C31   1.417580 A    
C20   C28   1.440740 A    
C10   C32   1.417896 A    
C73   H29   1.108797 S    
O15   V3    1.998347 S    
C56   C76   1.520239 S    
C41   C51   1.416673 A    
C24   C26   1.386112 A    
C14   H6    1.075601 S    
C40   C46   1.411062 A    
O13   C65   1.322716 A    
C22   C24   1.397579 A    
C30   C70   1.509222 S    
C13   C15   1.408072 A    
C45   N1    1.438218 S    
O11   V4    2.000291 S    
C3    C32   1.487227 S    
C64   H14   1.080039 S    
O11   C67   1.337025 A    
C4    C31   1.486250 S    
O17   V3    1.985196 S    
C6    C30   1.394227 A    
O13   V3    1.999478 S    
O20   V3    1.751493 S    
C82   H56   1.110089 S    
C81   H53   1.109818 S    
C61   C68   1.506685 S    
C33   C35   1.400605 A    
C63   H13   1.079411 S    
C75   H35   1.107326 S    
C34   C36   1.400774 A    
C39   C41   1.417328 A    
C50   C60   1.428695 A    
C28   N4    1.436043 S    
C80   H50   1.108957 S    
C60   C62   1.424751 A    
C55   C75   1.520283 S    
C8    C65   1.485063 S    
C54   C64   1.411360 A    
C81   H51   1.110931 S    
C34   H10   1.081155 S    
C65   O18   1.326041 A    
N1    O22   1.301115 A    
O16   C68   1.331225 A    
C5    H3    1.085306 S    
C60   C74   1.517716 S    
C37   H11   1.082106 S    
C47   C49   1.425362 A    
C16   C18   1.431069 A    
O19   V4    1.753740 S    
O4    V2    1.999197 S    
C72   H25   1.108103 S    
C74   H32   1.108539 S    
C74   H30   1.104889 S    
C82   H55   1.109737 S    
C12   C82   1.511000 S    
C79   H45   1.107396 S    
O6    C4    1.328654 A    
C79   H46   1.109790 S    
C79   H47   1.109242 S    
C42   C52   1.417069 A    
C70   H19   1.108753 S    
O1    V2    1.980414 S    
C5    C21   1.399134 A    
O14   C66   1.324296 A    
O2    V1    1.982773 S    
C55   C57   1.421895 A    
C71   H21   1.110815 S    
H1    C23   1.083888 S    
C52   C54   1.415443 A    
C62   C64   1.403270 A    
C35   C37   1.396956 A    
C72   H24   1.110861 S    
C17   C31   1.426911 A    
C69   H17   1.110464 S    
C15   C19   1.442972 A    
C78   H44   1.108153 S    
O4    C2    1.345020 A    
C18   C32   1.426167 A    
C20   C22   1.419520 A    
C57   C77   1.520040 S    
C77   H41   1.109383 S    
O3    V1    1.998392 S    
C51   C53   1.415884 A    
C73   H27   1.104999 S    
C43   C57   1.419759 A    
O14   V4    1.995168 S    
C19   C21   1.417658 A    
C6    H4    1.085519 S    
C44   C58   1.419794 A    
C41   C43   1.418277 A    
C56   C58   1.420183 A    
O3    C1    1.345441 A    
C38   H12   1.081927 S    
C61   C63   1.404263 A    
C33   H9    1.081289 S    
C76   H38   1.108006 S    
O12   C68   1.336716 A    
O18   V4    1.982782 S    
C9    C11   1.412215 A    
C75   H33   1.109062 S    
C59   C61   1.423489 A    
O16   V4    1.999152 S    
C8    C30   1.411740 A    
C76   H37   1.107439 S    
C6    C22   1.398088 A    
C17   C25   1.405724 A    
C1    O8    1.341819 A    
C21   C23   1.398914 A    
O8    V2    1.991612 S    
C78   H42   1.108023 S    
C39   C45   1.409989 A    
C14   C16   1.408405 A    
C33   C43   1.417356 A    
C69   H16   1.109927 S    
C34   C44   1.417031 A    
C8    C28   1.423512 A    
O5    V1    1.999642 S    
C62   C67   1.504643 S    
C36   C38   1.398061 A    
C70   H20   1.110710 S    
O7    V1    1.991298 S    
N2    O24   1.300390 A    
C71   H22   1.107494 S    
C49   C59   1.427823 A    
O12   V3    1.999953 S    
C23   C25   1.388580 A    
O6    V2    1.995326 S    
C46   N2    1.438162 S    
O9    V2    1.754850 S    
C26   H8    1.082549 S    
C74   H31   1.109020 S    
C48   C50   1.425136 A    
O10   V1    1.752597 S    
C50   C52   1.421724 A    
N3    O25   1.301330 A    
C76   H36   1.110567 S    
C27   N3    1.437056 S    
C48   C72   1.517379 S    
C25   H7    1.082708 S    
O15   C67   1.329508 A    
C29   C69   1.510736 S    
C58   C78   1.518985 S    
C11   C81   1.511064 S    
C73   H28   1.107014 S    
