data_mof_unit_53394.cif
_audit_creation_date              2012-12-10T18:59:11-0500
_audit_creation_method            fapswitch 2.2
_symmetry_space_group_name_H-M    P1
_symmetry_Int_Tables_number       1
_space_group_crystal_system       triclinic
_cell_length_a                    9.87018
_cell_length_b                    10.657663
_cell_length_c                    16.849653
_cell_angle_alpha                 88.138359
_cell_angle_beta                  94.314387
_cell_angle_gamma                 88.143455
_cell_volume                      1765.43111431

loop_
_atom_site_label
_atom_site_type_symbol
_atom_type_description
_atom_site_fract_x
_atom_site_fract_y
_atom_site_fract_z
_atom_type_partial_charge
C1    C     C_R   0.502392 0.259870 0.504044 0.880426
C2    C     C_R   0.497797 0.739628 0.496127 0.885796
C3    C     C_R   0.436784 0.929395 0.557562 -0.281152
C4    C     C_R   0.566034 0.068132 0.444030 -0.273997
C5    C     C_R   0.494372 0.872011 0.494551 -0.064117
C6    C     C_R   0.506749 0.126507 0.506194 -0.055069
C7    C     C_R   0.061391 0.597111 0.462974 0.200019
C8    C     C_R   0.938817 0.406172 0.539866 0.204738
C9    C     C_R   0.917777 0.594483 0.462769 -0.119501
C10   C     C_R   0.081775 0.405763 0.537639 -0.118898
C11   C     C_R   0.517241 0.499688 0.654049 0.903316
C12   C     C_R   0.483597 0.496878 0.346017 0.896623
C13   C     C_R   0.529368 0.492206 0.742206 -0.184173
C14   C     C_R   0.484326 0.481367 0.258616 -0.212935
C15   C     C_R   0.427414 0.432523 0.784669 0.012456
C16   C     C_R   0.599622 0.416739 0.230531 0.017947
C17   C     C_R   0.459497 0.394146 0.864237 0.288275
C18   C     C_R   0.628554 0.433134 0.151086 0.351114
C19   C     C_R   0.583049 0.424347 0.903239 0.175281
C20   C     C_R   0.534824 0.499029 0.097003 0.153538
C21   C     C_R   0.680967 0.491668 0.864484 0.056175
C22   C     C_R   0.410950 0.548424 0.121266 0.102563
C23   C     C_R   0.650354 0.533786 0.784250 0.096354
C24   C     C_R   0.385545 0.541969 0.202953 0.066830
C25   C     C_R   0.444353 0.057541 0.565170 0.182214
C26   C     C_R   0.558940 0.940250 0.436288 0.179109
H1    H     H_    0.391226 0.873024 0.602597 0.143865
H2    H     H_    0.614231 0.122457 0.399980 0.130413
H3    H     H_    0.853225 0.668812 0.434681 0.160460
H4    H     H_    0.144378 0.331524 0.568152 0.136414
N1    N     N_2   0.591584 0.410326 0.986382 -0.059326
N2    N     N_2   0.556861 0.511062 0.015511 -0.160677
N3    N     N_R   0.857210 0.499970 0.500020 -0.122176
N4    N     N_R   0.142790 0.500030 0.499980 -0.120128
O1    O     O_R   0.614620 0.316750 0.500010 -0.627832
O2    O     O_R   0.385380 0.683250 0.499990 -0.653799
O3    O     O_R   0.385290 0.316780 0.500000 -0.623198
O4    O     O_R   0.614710 0.683220 0.500000 -0.619500
O5    O     O_R   0.627460 0.498830 0.616130 -0.639246
O6    O     O_R   0.372540 0.501170 0.383870 -0.623926
O7    O     O_R   0.398130 0.498850 0.616130 -0.609354
O8    O     O_R   0.601870 0.501150 0.383870 -0.600314
Zn1   Zn    Zn3+2 0.653130 0.499980 0.500000 0.914946
Zn2   Zn    Zn3+2 0.346870 0.500020 0.500000 0.913903
C27   C     C_3   0.687323 0.322083 0.283320 -0.299358
C28   C     C_3   0.826919 0.370851 0.311266 -0.715721
H5    H     H_    0.904136 0.344888 0.269696 0.272083
H6    H     H_    0.823467 0.474489 0.316201 0.258453
H7    H     H_    0.861237 0.327102 0.370321 0.226192
H8    H     H_    0.633527 0.295171 0.335809 0.184174
H9    H     H_    0.700735 0.233114 0.251697 0.215555
C29   C     C_3   0.282234 0.415645 0.748862 -0.301553
C30   C     C_3   0.201509 0.540994 0.741072 -0.830235
H10   H     H_    0.185899 0.576080 0.801190 0.257569
H11   H     H_    0.254926 0.613280 0.707712 0.271825
H12   H     H_    0.100617 0.527725 0.709204 0.223743
H13   H     H_    0.280489 0.368251 0.691816 0.202071
H14   H     H_    0.223677 0.351273 0.784718 0.240921
Cl1   Cl    Cl    0.784461 0.372164 0.119610 -0.664230
Cl2   Cl    Cl    0.343301 0.311644 0.920565 -0.657446
C31   C     C_3   0.816973 0.515771 0.909771 -0.374887
C32   C     C_3   0.933397 0.440496 0.876772 -0.818135
H15   H     H_    0.940483 0.462232 0.812494 0.238832
H16   H     H_    0.031191 0.463012 0.909299 0.275960
H17   H     H_    0.917583 0.338322 0.885026 0.282136
H18   H     H_    0.837284 0.617442 0.910299 0.194974
H19   H     H_    0.817863 0.487591 0.973462 0.277288
C33   C     C_3   0.306671 0.606259 0.057795 -0.361685
C34   C     C_3   0.330357 0.745689 0.043104 -0.852120
H20   H     H_    0.325447 0.797607 0.098937 0.258475
H21   H     H_    0.431611 0.758341 0.019908 0.272988
H22   H     H_    0.251181 0.786047 0.998352 0.258947
H23   H     H_    0.311642 0.558048 0.000610 0.249500
H24   H     H_    0.200781 0.592216 0.072980 0.215016
C35   C     C_3   0.739420 0.631206 0.746032 -0.362195
C36   C     C_3   0.659086 0.753319 0.721619 -0.839641
H25   H     H_    0.577012 0.737885 0.674872 0.249469
H26   H     H_    0.613670 0.793096 0.774090 0.257877
H27   H     H_    0.728082 0.822947 0.697546 0.244388
H28   H     H_    0.825771 0.659067 0.786133 0.205655
H29   H     H_    0.789960 0.593353 0.695069 0.224401
C37   C     C_3   0.254170 0.598470 0.229732 -0.381901
C38   C     C_3   0.149430 0.497852 0.239774 -0.772183
H30   H     H_    0.188805 0.423333 0.283876 0.270706
H31   H     H_    0.055341 0.541098 0.260628 0.241509
H32   H     H_    0.123338 0.454015 0.181916 0.274150
H33   H     H_    0.208644 0.674133 0.188764 0.211585
H34   H     H_    0.274583 0.648347 0.284675 0.201353
C39   C     C_3   0.394868 0.115189 0.638934 -0.436771
C40   C     C_3   0.514494 0.146642 0.696771 -0.852487
H35   H     H_    0.582285 0.062181 0.710295 0.266090
H36   H     H_    0.573921 0.222661 0.671275 0.239542
H37   H     H_    0.476149 0.177947 0.753324 0.269154
H38   H     H_    0.330096 0.199735 0.622627 0.201356
H39   H     H_    0.330193 0.049165 0.670262 0.211410
C41   C     C_3   0.613352 0.881732 0.363613 -0.424538
C42   C     C_3   0.497479 0.847638 0.304158 -0.863573
H40   H     H_    0.539077 0.800653 0.252897 0.256221
H41   H     H_    0.429241 0.782826 0.332956 0.235468
H42   H     H_    0.438018 0.933589 0.281902 0.267534
H43   H     H_    0.678943 0.947804 0.333010 0.208340
H44   H     H_    0.678195 0.797265 0.380569 0.216715
C43   C     C_3   0.123820 0.712371 0.428345 -0.350340
C44   C     C_3   0.034441 0.790594 0.365445 -0.987081
H45   H     H_    0.986157 0.729769 0.319997 0.269364
H46   H     H_    0.954994 0.845798 0.393778 0.262074
H47   H     H_    0.098231 0.858244 0.334966 0.272078
H48   H     H_    0.154457 0.774605 0.477671 0.222741
H49   H     H_    0.213827 0.681717 0.399300 0.252410
C45   C     C_3   0.883061 0.304290 0.590985 -0.390421
C46   C     C_3   0.889419 0.177079 0.551831 -0.853757
H50   H     H_    0.838636 0.183423 0.490740 0.272560
H51   H     H_    0.996754 0.144360 0.548457 0.242705
H52   H     H_    0.837414 0.106664 0.587677 0.253558
H53   H     H_    0.943843 0.296833 0.649383 0.170723
H54   H     H_    0.779018 0.326660 0.605745 0.258958

loop_
_geom_bond_atom_site_label_1
_geom_bond_atom_site_label_2
_ccdc_geom_bond_type
C39   H39   S    
C41   H44   S    
C46   H50   S    
C36   H27   S    
C19   N1    S    
C44   H46   S    
C42   H40   S    
C46   H51   S    
C30   H10   S    
C28   H7    S    
C19   C21   A    
C36   H26   S    
C6    C25   A    
C27   H9    S    
C33   H24   S    
C37   H33   S    
C13   C23   A    
C18   C20   A    
C15   C17   A    
C14   C24   A    
C39   H38   S    
C34   H21   S    
C10   H4    S    
C45   C46   S    
C12   O8    A    
C42   H41   S    
C31   H18   S    
N1    N2    D    
C33   C34   S    
C32   H16   S    
C43   H48   S    
C24   C37   S    
O1    Zn1   S    
C35   H28   S    
C21   C31   S    
C9    H3    S    
C7    C43   S    
C41   H43   S    
C9    N3    A    
C34   H20   S    
C44   H45   S    
C4    H2    S    
C30   H11   S    
C26   C41   S    
C28   H6    S    
C1    C6    S    
N3    Zn1   S    
C3    C25   A    
N4    Zn2   S    
C36   H25   S    
C4    C6    A    
C23   C35   S    
C35   H29   S    
O5    Zn1   S    
C33   H23   S    
C27   C28   S    
C12   O6    A    
C34   H22   S    
C35   C36   S    
C32   H15   S    
C8    C45   S    
C31   H19   S    
C40   H36   S    
C38   H30   S    
C41   C42   S    
C10   N4    A    
C15   C29   S    
C11   O5    A    
C22   C33   S    
C29   H14   S    
C16   C18   A    
C38   H31   S    
C20   C22   A    
C13   C15   A    
C7    N4    A    
C14   C16   A    
O2    Zn2   S    
C2    C5    S    
O8    Zn1   S    
C17   C19   A    
C45   H54   S    
C42   H42   S    
C29   C30   S    
C1    O1    A    
C40   H37   S    
C20   N2    S    
C30   H12   S    
C2    O2    A    
C7    C9    A    
C28   H5    S    
C32   H17   S    
C12   C14   S    
C3    C5    A    
C16   C27   S    
C4    C26   A    
C1    O3    A    
C25   C39   S    
C43   H49   S    
C2    O4    A    
O3    Zn2   S    
C21   C23   A    
O4    Zn1   S    
C11   C13   S    
C40   H35   S    
C27   H8    S    
C37   H34   S    
C3    H1    S    
O7    Zn2   S    
C11   O7    A    
C46   H52   S    
C22   C24   A    
C8    N3    A    
C31   C32   S    
C29   H13   S    
C17   Cl2   S    
C5    C26   A    
C18   Cl1   S    
O6    Zn2   S    
C38   H32   S    
C8    C10   A    
C37   C38   S    
C43   C44   S    
C39   C40   S    
C45   H53   S    
C44   H47   S    
