data_mof_unit_22118.cif
_audit_creation_date              2012-12-10T20:01:17-0500
_audit_creation_method            fapswitch 2.2
_symmetry_space_group_name_H-M    P1
_symmetry_Int_Tables_number       1
_space_group_crystal_system       triclinic
_cell_length_a                    18.39922
_cell_length_b                    18.398999
_cell_length_c                    39.668342
_cell_angle_alpha                 89.999764
_cell_angle_beta                  89.999666
_cell_angle_gamma                 90.013567
_cell_volume                      13428.8135742

loop_
_atom_site_label
_atom_site_type_symbol
_atom_type_description
_atom_site_fract_x
_atom_site_fract_y
_atom_site_fract_z
_atom_type_partial_charge
C1    C     C_R   0.500000 0.000000 0.909110 0.832823
C2    C     C_R   0.499999 0.000008 0.801308 -0.092906
C3    C     C_R   0.740668 0.686642 0.019969 -0.210984
C4    C     C_R   0.312659 0.259108 0.020749 -0.195734
C5    C     C_R   0.259032 0.687406 0.020811 -0.196497
C6    C     C_R   0.687341 0.740892 0.020750 -0.195745
C7    C     C_R   0.740968 0.312593 0.020812 -0.196533
C8    C     C_R   0.813302 0.240728 0.520025 -0.211854
C9    C     C_R   0.759336 0.813362 0.519966 -0.210940
C10   C     C_R   0.186698 0.759272 0.520025 -0.211849
C11   C     C_R   0.240663 0.186636 0.519965 -0.210943
C12   C     C_R   0.812662 0.759112 0.520747 -0.195726
C13   C     C_R   0.500005 0.000001 0.301214 -0.091790
C14   C     C_R   0.759035 0.187403 0.520809 -0.196510
C15   C     C_R   0.187336 0.240887 0.520746 -0.195728
C16   C     C_R   0.240964 0.812597 0.520809 -0.196514
C17   C     C_3   0.148290 0.786053 0.955376 0.258238
C18   C     C_3   0.213985 0.148321 0.955319 0.257912
C19   C     C_3   0.851711 0.213948 0.955376 0.258243
C20   C     C_3   0.786016 0.851679 0.955319 0.257914
C21   C     C_3   0.161063 0.212264 0.950916 0.230681
C22   C     C_3   0.212301 0.838892 0.950954 0.231806
C23   C     C_3   0.838939 0.787737 0.950916 0.230685
C24   C     C_R   0.000002 0.500056 0.301306 -0.092931
C25   C     C_3   0.787701 0.161108 0.950954 0.231807
C26   C     C_3   0.648285 0.286061 0.455380 0.258223
C27   C     C_3   0.713977 0.648317 0.455323 0.257910
C28   C     C_3   0.351718 0.713938 0.455382 0.258226
C29   C     C_3   0.286027 0.351685 0.455324 0.257906
C30   C     C_3   0.661055 0.712260 0.450920 0.230673
C31   C     C_3   0.712297 0.338898 0.450957 0.231790
C32   C     C_3   0.338948 0.287742 0.450921 0.230677
C33   C     C_3   0.287708 0.661099 0.450959 0.231799
C34   C     C_R   0.006444 0.434025 0.818728 0.464042
C35   C     C_1   0.999995 0.499997 0.765075 0.081161
C36   C     C_R   0.565522 0.010146 0.818808 0.462760
C37   C     C_R   0.993555 0.565972 0.818728 0.464032
C38   C     C_R   0.434478 0.989868 0.818808 0.462747
C39   C     C_R   0.506352 0.934019 0.318727 0.464074
C40   C     C_R   0.065541 0.510075 0.318808 0.462865
C41   C     C_R   0.493673 0.065985 0.318727 0.463948
C42   C     C_R   0.934460 0.490038 0.318806 0.462666
C43   C     C_R   0.004071 0.434276 0.854055 -0.327092
C44   C     C_R   0.565418 0.007484 0.854129 -0.328969
C45   C     C_R   0.995927 0.565723 0.854055 -0.327092
C46   C     C_1   0.499999 0.000009 0.765169 0.085686
C47   C     C_R   0.434582 0.992524 0.854130 -0.328970
C48   C     C_R   0.503983 0.934272 0.354054 -0.327071
C49   C     C_R   0.065432 0.507400 0.354129 -0.328905
C50   C     C_R   0.496030 0.065731 0.354054 -0.327084
C51   C     C_R   0.934571 0.492664 0.354127 -0.328913
C52   C     C_3   0.062357 0.857537 0.987806 0.211138
C53   C     C_3   0.024158 0.809187 0.014008 -0.325099
C54   C     C_3   0.011824 0.849880 0.046986 -1.044191
C55   C     C_3   0.142574 0.062311 0.987756 0.211005
C56   C     C_3   0.190899 0.024155 0.013972 -0.324965
C57   C     C_1   0.499989 0.999999 0.265074 0.081096
C58   C     C_3   0.150178 0.011825 0.046945 -1.043852
C59   C     C_3   0.937643 0.142463 0.987806 0.211135
C60   C     C_3   0.975842 0.190813 0.014008 -0.325103
C61   C     C_3   0.988175 0.150119 0.046985 -1.044165
C62   C     C_3   0.857427 0.937689 0.987756 0.211013
C63   C     C_3   0.809100 0.975845 0.013971 -0.324962
C64   C     C_3   0.849820 0.988174 0.046944 -1.043900
C65   C     C_3   0.069205 0.169349 0.916175 0.183700
C66   C     C_3   0.035487 0.232746 0.896653 -0.324569
C67   C     C_3   0.002755 0.206929 0.863397 -1.015878
C68   C     C_1   0.000009 0.500046 0.265168 0.085571
C69   C     C_3   0.169861 0.930651 0.916055 0.183256
C70   C     C_3   0.233639 0.963765 0.896573 -0.327762
C71   C     C_3   0.208574 0.995137 0.862913 -1.010760
C72   C     C_3   0.930798 0.830650 0.916175 0.183698
C73   C     C_3   0.964518 0.767252 0.896654 -0.324560
C74   C     C_3   0.997255 0.793068 0.863399 -1.015887
C75   C     C_3   0.830140 0.069349 0.916055 0.183250
C76   C     C_3   0.766360 0.036235 0.896574 -0.327757
C77   C     C_3   0.791423 0.004862 0.862914 -1.010752
C78   C     C_3   0.562362 0.357542 0.487817 0.211133
C79   C     C_1   0.499969 0.000002 0.234835 0.082113
C80   C     C_3   0.524165 0.309188 0.514018 -0.325095
C81   C     C_3   0.511832 0.349877 0.546997 -1.044184
C82   C     C_3   0.642569 0.562314 0.487766 0.211011
C83   C     C_3   0.690898 0.524159 0.513980 -0.324969
C84   C     C_3   0.650183 0.511830 0.546954 -1.043869
C85   C     C_3   0.437642 0.642458 0.487819 0.211144
C86   C     C_3   0.475839 0.690813 0.514019 -0.325104
C87   C     C_3   0.488171 0.650125 0.546998 -1.044182
C88   C     C_3   0.357433 0.437685 0.487769 0.211015
C89   C     C_3   0.309103 0.475840 0.513983 -0.324970
C90   C     C_1   0.000011 0.500023 0.234929 0.084719
C91   C     C_3   0.349817 0.488169 0.546957 -1.043864
C92   C     C_3   0.569191 0.669342 0.416184 0.183748
C93   C     C_3   0.535450 0.732730 0.396664 -0.324484
C94   C     C_3   0.502698 0.706899 0.363415 -1.016049
C95   C     C_3   0.669842 0.430662 0.416066 0.183294
C96   C     C_3   0.733602 0.463799 0.396579 -0.327642
C97   C     C_3   0.708501 0.495213 0.362933 -1.010967
C98   C     C_3   0.430814 0.330662 0.416186 0.183734
C99   C     C_3   0.464552 0.267274 0.396665 -0.324448
C100  C     C_3   0.497326 0.293110 0.363421 -1.016047
C101  C     C_1   0.999992 0.499997 0.734836 0.081875
C102  C     C_3   0.330160 0.569334 0.416067 0.183304
C103  C     C_3   0.266394 0.536198 0.396584 -0.327690
C104  C     C_3   0.291481 0.504803 0.362932 -1.010928
C105  C     C_3   0.078126 0.336596 0.804148 0.070732
C106  C     C_3   0.132527 0.370693 0.779460 -0.366681
C107  C     C_3   0.204592 0.329705 0.779593 -0.946799
C108  C     C_3   0.659697 0.087170 0.805210 0.081171
C109  C     C_3   0.618685 0.143641 0.783977 -0.374540
C110  C     C_3   0.657865 0.216721 0.784063 -0.949587
C111  C     C_3   0.921893 0.663411 0.804141 0.070755
C112  C     C_R   1.000000 0.500000 0.909092 0.832826
C113  C     C_1   0.499999 0.000009 0.734930 0.084609
C114  C     C_3   0.867499 0.629328 0.779447 -0.366724
C115  C     C_3   0.795454 0.670350 0.779562 -0.946849
C116  C     C_3   0.340308 0.912843 0.805207 0.081175
C117  C     C_3   0.381302 0.856393 0.783954 -0.374488
C118  C     C_3   0.342141 0.783303 0.784046 -0.949618
C119  C     C_3   0.577898 0.836500 0.304136 0.070739
C120  C     C_3   0.632344 0.870556 0.279458 -0.366841
C121  C     C_3   0.704333 0.829435 0.279560 -0.946835
C122  C     C_3   0.159819 0.586970 0.305211 0.080905
C123  C     C_3   0.118892 0.643495 0.283973 -0.374556
C124  C     C_R   0.482060 0.936092 0.181235 0.442947
C125  C     C_3   0.158158 0.716529 0.284072 -0.949355
C126  C     C_3   0.422185 0.163518 0.304101 0.070968
C127  C     C_3   0.367897 0.129660 0.279293 -0.366498
C128  C     C_3   0.295902 0.170771 0.279370 -0.946966
C129  C     C_3   0.840172 0.413231 0.305137 0.081146
C130  C     C_3   0.880786 0.356951 0.283637 -0.373943
C131  C     C_3   0.841580 0.283884 0.283721 -0.949778
C132  C     C_3   0.503605 0.814202 0.192098 0.087415
C133  C     C_3   0.456256 0.752476 0.178460 -0.324033
C134  C     C_3   0.501055 0.684143 0.171871 -0.971531
C135  C     C_R   0.066306 0.496747 0.181328 0.443217
C136  C     C_3   0.180663 0.545030 0.191587 0.085986
C137  C     C_3   0.250853 0.511867 0.177788 -0.322251
C138  C     C_3   0.307831 0.570221 0.170702 -0.977187
C139  C     C_3   0.496797 0.186067 0.191881 0.087703
C140  C     C_3   0.544737 0.247325 0.178228 -0.324347
C141  C     C_3   0.500470 0.315844 0.171288 -0.971910
C142  C     C_3   0.818783 0.455746 0.191331 0.085891
C143  C     C_3   0.749042 0.489957 0.177584 -0.321754
C144  C     C_3   0.691497 0.432378 0.170130 -0.977988
C145  C     C_3   0.003679 0.314217 0.692118 0.087454
C146  C     C_R   0.517845 0.063946 0.181239 0.443185
C147  C     C_3   0.956390 0.252452 0.678475 -0.324077
C148  C     C_3   0.001247 0.184151 0.671901 -0.971367
C149  C     C_3   0.680589 0.045651 0.691529 0.085920
C150  C     C_3   0.750817 0.012562 0.677731 -0.322237
C151  C     C_3   0.807662 0.070995 0.670557 -0.977040
C152  C     C_3   0.996330 0.685802 0.692097 0.087484
C153  C     C_3   0.043665 0.747533 0.678452 -0.324080
C154  C     C_3   0.998844 0.815842 0.671841 -0.971370
C155  C     C_3   0.319375 0.954415 0.691515 0.085909
C156  C     C_3   0.249178 0.987572 0.677718 -0.322234
C157  C     C_R   0.933671 0.503231 0.181337 0.443522
C158  C     C_3   0.192297 0.929188 0.670519 -0.977115
C159  C     C_R   0.982084 0.436083 0.681236 0.443038
C160  C     C_R   0.566325 0.997047 0.681332 0.443371
C161  C     C_R   0.017896 0.563919 0.681237 0.443060
C162  C     C_R   0.433672 0.002966 0.681333 0.443392
C163  C     C_R   0.480886 0.936966 0.145844 -0.311294
C164  C     C_R   0.000000 0.500001 0.409110 0.832824
C165  C     C_R   0.065645 0.494880 0.145944 -0.312091
C166  C     C_R   0.519074 0.063043 0.145843 -0.311918
C167  C     C_R   0.934348 0.505128 0.145945 -0.312964
C168  C     C_R   0.980906 0.436958 0.645845 -0.311281
C169  C     C_R   0.565669 0.995166 0.645946 -0.312317
C170  C     C_R   0.019083 0.563040 0.645845 -0.311338
C171  C     C_R   0.434329 0.004844 0.645946 -0.312375
C172  C     C_R   0.499989 0.000001 0.128031 -0.119524
C173  C     C_R   0.999998 0.500001 0.128100 -0.122548
C174  C     C_R   0.999997 0.499999 0.628031 -0.119757
C175  C     C_R   0.499999 0.000000 0.409092 0.832834
C176  C     C_R   0.499999 0.000003 0.628100 -0.122742
C177  C     C_R   0.499952 0.000015 0.198699 -0.083216
C178  C     C_R   0.999996 0.499992 0.198794 -0.082342
C179  C     C_R   0.999990 0.499999 0.698701 -0.083517
C180  C     C_R   0.499999 0.000007 0.698796 -0.082551
C181  C     C_R   0.500000 1.000000 0.090920 0.844678
C182  C     C_R   1.000000 0.500003 0.090944 0.845834
C183  C     C_R   1.000000 0.500000 0.590920 0.844705
C184  C     C_R   0.500000 0.000001 0.590944 0.845861
C185  C     C_R   0.640026 0.859826 0.000199 0.787818
C186  C     C_R   0.999999 0.500000 0.871926 -0.117970
C187  C     C_R   0.140157 0.640042 0.000212 0.787627
C188  C     C_R   0.359974 0.140174 0.000199 0.787820
C189  C     C_R   0.859843 0.359958 0.000212 0.787631
C190  C     C_R   0.639545 0.140673 0.999638 0.803137
C191  C     C_R   0.140681 0.360460 0.999629 0.803755
C192  C     C_R   0.360455 0.859327 0.999638 0.803148
C193  C     C_R   0.859319 0.639540 0.999630 0.803747
C194  C     C_R   0.140026 0.359825 0.500199 0.787827
C195  C     C_R   0.640157 0.140042 0.500212 0.787632
C196  C     C_R   0.859974 0.640175 0.500199 0.787823
C197  C     C_R   0.500000 0.000003 0.871977 -0.116257
C198  C     C_R   0.359843 0.859958 0.500212 0.787630
C199  C     C_R   0.139545 0.640673 0.499638 0.803153
C200  C     C_R   0.640681 0.860460 0.499630 0.803764
C201  C     C_R   0.860455 0.359327 0.499638 0.803150
C202  C     C_R   0.359319 0.139540 0.499629 0.803767
C203  C     C_R   0.236073 0.816484 0.985822 0.004008
C204  C     C_R   0.183579 0.236104 0.985764 0.004414
C205  C     C_R   0.763928 0.183516 0.985822 0.004004
C206  C     C_R   0.816422 0.763896 0.985764 0.004410
C207  C     C_R   0.235032 0.182003 0.988004 -0.068055
C208  C     C_R   0.500001 0.000001 0.371926 -0.117984
C209  C     C_R   0.181943 0.765035 0.988070 -0.068599
C210  C     C_R   0.764968 0.817997 0.988004 -0.068058
C211  C     C_R   0.818057 0.234966 0.988070 -0.068601
C212  C     C_R   0.736074 0.316483 0.485823 0.004013
C213  C     C_R   0.683578 0.736105 0.485766 0.004417
C214  C     C_R   0.263929 0.683515 0.485825 0.004006
C215  C     C_R   0.316423 0.263896 0.485767 0.004417
C216  C     C_R   0.735031 0.682003 0.488006 -0.068061
C217  C     C_R   0.681944 0.265036 0.488071 -0.068598
C218  C     C_R   0.264970 0.317997 0.488007 -0.068058
C219  C     C_R   0.000001 0.500016 0.371976 -0.116293
C220  C     C_R   0.318059 0.734963 0.488073 -0.068596
C221  C     C_R   0.303862 0.804253 0.000606 -0.092882
C222  C     C_R   0.195784 0.303896 0.000564 -0.093150
C223  C     C_R   0.696139 0.195746 0.000606 -0.092875
C224  C     C_R   0.804216 0.696104 0.000564 -0.093147
C225  C     C_R   0.302508 0.194182 0.002607 -0.094581
C226  C     C_R   0.194128 0.697547 0.002656 -0.094402
C227  C     C_R   0.697492 0.805818 0.002607 -0.094581
C228  C     C_R   0.805872 0.302453 0.002657 -0.094388
C229  C     C_R   0.803864 0.304252 0.500606 -0.092877
C230  C     C_R   0.999997 0.499998 0.801215 -0.091788
C231  C     C_R   0.695785 0.803897 0.500564 -0.093151
C232  C     C_R   0.196138 0.695747 0.500606 -0.092877
C233  C     C_R   0.304215 0.196102 0.500564 -0.093153
C234  C     C_R   0.802509 0.694183 0.502607 -0.094584
C235  C     C_R   0.694129 0.197546 0.502656 -0.094401
C236  C     C_R   0.197491 0.305816 0.502607 -0.094586
C237  C     C_R   0.305871 0.802453 0.502656 -0.094397
C238  C     C_R   0.313298 0.740731 0.020027 -0.211852
C239  C     C_R   0.259332 0.313359 0.019968 -0.210948
C240  C     C_R   0.686702 0.259268 0.020027 -0.211868
H1    H     H_    0.363567 0.730725 0.033450 0.170327
H2    H     H_    0.769350 0.863637 0.533387 0.170138
H3    H     H_    0.740848 0.992335 0.911723 0.274869
H4    H     H_    0.724681 0.078694 0.891862 0.187532
H5    H     H_    0.833116 0.962119 0.867013 0.264003
H6    H     H_    0.814609 0.048478 0.846808 0.261442
H7    H     H_    0.744544 0.980038 0.849602 0.290287
H8    H     H_    0.525076 0.402762 0.481185 0.115356
H9    H     H_    0.610857 0.383742 0.499066 0.158243
H10   H     H_    0.471190 0.290267 0.504199 0.266515
H11   H     H_    0.556786 0.260298 0.519693 0.222726
H12   H     H_    0.564659 0.360171 0.559672 0.283223
H13   H     H_    0.136427 0.769280 0.533446 0.170328
H14   H     H_    0.477351 0.316621 0.564024 0.279896
H15   H     H_    0.484286 0.402467 0.542236 0.265649
H16   H     H_    0.597362 0.525000 0.481123 0.115418
H17   H     H_    0.616352 0.610791 0.499013 0.158416
H18   H     H_    0.709835 0.471189 0.504170 0.266384
H19   H     H_    0.739775 0.556817 0.519660 0.222930
H20   H     H_    0.639919 0.564659 0.559628 0.283528
H21   H     H_    0.683405 0.477339 0.563984 0.279821
H22   H     H_    0.597574 0.484301 0.542188 0.265471
H23   H     H_    0.474928 0.597238 0.481187 0.115356
H24   H     H_    0.230647 0.136361 0.533386 0.170138
H25   H     H_    0.389147 0.616259 0.499068 0.158243
H26   H     H_    0.528814 0.709733 0.504200 0.266513
H27   H     H_    0.443218 0.739704 0.519693 0.222730
H28   H     H_    0.435344 0.639833 0.559673 0.283222
H29   H     H_    0.522652 0.683382 0.564025 0.279899
H30   H     H_    0.515717 0.597535 0.542238 0.265651
H31   H     H_    0.402642 0.474999 0.481127 0.115424
H32   H     H_    0.383649 0.389207 0.499016 0.158415
H33   H     H_    0.290166 0.528809 0.504172 0.266384
H34   H     H_    0.260226 0.443181 0.519663 0.222926
H35   H     H_    0.862756 0.769441 0.534258 0.168680
H36   H     H_    0.360082 0.435339 0.559631 0.283526
H37   H     H_    0.316592 0.522658 0.563987 0.279819
H38   H     H_    0.402424 0.515700 0.542191 0.265472
H39   H     H_    0.528625 0.624839 0.418284 0.165762
H40   H     H_    0.615982 0.646338 0.401801 0.104358
H41   H     H_    0.492191 0.758678 0.412038 0.275380
H42   H     H_    0.577778 0.774258 0.391385 0.187146
H43   H     H_    0.545655 0.683408 0.347037 0.260662
H44   H     H_    0.477209 0.753443 0.350134 0.288825
H45   H     H_    0.460201 0.665226 0.368078 0.264616
H46   H     H_    0.769347 0.137312 0.534323 0.168843
H47   H     H_    0.625619 0.471549 0.417996 0.165501
H48   H     H_    0.646642 0.383870 0.401752 0.104760
H49   H     H_    0.759128 0.507683 0.411733 0.274874
H50   H     H_    0.775277 0.421348 0.391845 0.187556
H51   H     H_    0.666807 0.537945 0.367054 0.264023
H52   H     H_    0.685304 0.451616 0.346821 0.261403
H53   H     H_    0.755363 0.520062 0.349618 0.290269
H54   H     H_    0.471382 0.375163 0.418287 0.165774
H55   H     H_    0.384024 0.353670 0.401803 0.104354
H56   H     H_    0.507798 0.241312 0.412042 0.275386
H57   H     H_    0.137241 0.230557 0.534257 0.168681
H58   H     H_    0.422218 0.225755 0.391378 0.187148
H59   H     H_    0.454382 0.316623 0.347042 0.260640
H60   H     H_    0.522806 0.246565 0.350138 0.288824
H61   H     H_    0.539833 0.334768 0.368092 0.264614
H62   H     H_    0.374382 0.528446 0.417996 0.165493
H63   H     H_    0.353358 0.616125 0.401753 0.104766
H64   H     H_    0.240880 0.492304 0.411737 0.274875
H65   H     H_    0.224712 0.578647 0.391861 0.187529
H66   H     H_    0.333186 0.462078 0.367043 0.264019
H67   H     H_    0.314657 0.548412 0.346820 0.261435
H68   H     H_    0.230651 0.862688 0.534322 0.168841
H69   H     H_    0.244615 0.479951 0.349621 0.290246
H70   H     H_    0.071997 0.278156 0.797713 0.174429
H71   H     H_    0.099808 0.338470 0.830370 0.128564
H72   H     H_    0.109529 0.369785 0.753568 0.228662
H73   H     H_    0.142822 0.428165 0.786615 0.217169
H74   H     H_    0.228996 0.330636 0.805205 0.263006
H75   H     H_    0.242912 0.355972 0.761724 0.269749
H76   H     H_    0.196220 0.272426 0.771630 0.265176
H77   H     H_    0.716969 0.085045 0.796392 0.175544
H78   H     H_    0.661745 0.104420 0.832101 0.126042
H79   H     H_    0.149339 0.741318 0.936552 0.074296
H80   H     H_    0.613721 0.124037 0.757607 0.231161
H81   H     H_    0.563071 0.151365 0.794295 0.214641
H82   H     H_    0.662898 0.237639 0.810229 0.263654
H83   H     H_    0.626457 0.256548 0.768901 0.269518
H84   H     H_    0.712894 0.211081 0.772838 0.264655
H85   H     H_    0.928036 0.721852 0.797710 0.174448
H86   H     H_    0.900200 0.661535 0.830361 0.128540
H87   H     H_    0.890519 0.630214 0.753559 0.228736
H88   H     H_    0.857167 0.571866 0.786608 0.217164
H89   H     H_    0.771035 0.669457 0.805171 0.263027
H90   H     H_    0.258694 0.149445 0.936481 0.074125
H91   H     H_    0.757134 0.644083 0.761694 0.269762
H92   H     H_    0.803866 0.727615 0.771585 0.265186
H93   H     H_    0.283027 0.914970 0.796402 0.175534
H94   H     H_    0.338289 0.895568 0.832096 0.126035
H95   H     H_    0.386217 0.876013 0.757584 0.231181
H96   H     H_    0.436933 0.848679 0.794251 0.214648
H97   H     H_    0.337165 0.762365 0.810212 0.263656
H98   H     H_    0.373531 0.743496 0.768865 0.269522
H99   H     H_    0.287089 0.788935 0.772845 0.264661
H100  H     H_    0.571693 0.778076 0.297687 0.174469
H101  H     H_    0.850663 0.258683 0.936551 0.074294
H102  H     H_    0.599579 0.838319 0.330359 0.128604
H103  H     H_    0.609331 0.869750 0.253568 0.228734
H104  H     H_    0.642752 0.927991 0.286642 0.217165
H105  H     H_    0.728742 0.830242 0.305171 0.263058
H106  H     H_    0.742695 0.855686 0.261706 0.269761
H107  H     H_    0.695846 0.772198 0.271557 0.265146
H108  H     H_    0.217091 0.584767 0.296397 0.175532
H109  H     H_    0.161881 0.604220 0.332102 0.126170
H110  H     H_    0.113927 0.623903 0.257601 0.231001
H111  H     H_    0.063278 0.651281 0.294281 0.214695
H112  H     H_    0.269345 0.363632 0.033390 0.170134
H113  H     H_    0.741308 0.850555 0.936481 0.074125
H114  H     H_    0.163198 0.737434 0.310241 0.263620
H115  H     H_    0.126807 0.756401 0.268908 0.269508
H116  H     H_    0.213189 0.710831 0.272856 0.264643
H117  H     H_    0.428452 0.221985 0.297750 0.174474
H118  H     H_    0.400327 0.161519 0.330291 0.128418
H119  H     H_    0.391074 0.130683 0.253435 0.229081
H120  H     H_    0.357452 0.072166 0.286363 0.217135
H121  H     H_    0.271329 0.169745 0.304946 0.263085
H122  H     H_    0.257658 0.144667 0.261417 0.269795
H123  H     H_    0.304433 0.228076 0.271483 0.265183
H124  H     H_    0.177643 0.252703 0.931437 0.037158
H125  H     H_    0.782785 0.415562 0.296493 0.175478
H126  H     H_    0.838463 0.395660 0.331990 0.125942
H127  H     H_    0.885285 0.376809 0.257289 0.231487
H128  H     H_    0.936576 0.349111 0.293727 0.214675
H129  H     H_    0.837045 0.262696 0.309860 0.263718
H130  H     H_    0.872681 0.244204 0.268340 0.269538
H131  H     H_    0.786341 0.289659 0.272737 0.264667
H132  H     H_    0.528542 0.796130 0.216187 0.168010
H133  H     H_    0.549469 0.824931 0.174314 0.119511
H134  H     H_    0.412844 0.739609 0.197021 0.235204
H135  H     H_    0.252746 0.822153 0.931510 0.036459
H136  H     H_    0.429954 0.769815 0.154574 0.216082
H137  H     H_    0.544108 0.695395 0.152943 0.265763
H138  H     H_    0.465207 0.640561 0.161965 0.270029
H139  H     H_    0.526598 0.664791 0.195604 0.266483
H140  H     H_    0.193646 0.573904 0.215418 0.165607
H141  H     H_    0.159801 0.587059 0.173709 0.119526
H142  H     H_    0.273106 0.472661 0.196446 0.236291
H143  H     H_    0.239153 0.481922 0.154091 0.214770
H144  H     H_    0.287338 0.609338 0.151608 0.267319
H145  H     H_    0.357969 0.544302 0.160803 0.265810
H146  H     H_    0.822360 0.747297 0.931437 0.037159
H147  H     H_    0.321597 0.600002 0.194216 0.267769
H148  H     H_    0.471715 0.204564 0.215871 0.167707
H149  H     H_    0.451038 0.175466 0.174027 0.119652
H150  H     H_    0.587932 0.260173 0.196900 0.234958
H151  H     H_    0.571325 0.229518 0.154483 0.216120
H152  H     H_    0.457656 0.304608 0.152241 0.265841
H153  H     H_    0.536745 0.359074 0.161380 0.270467
H154  H     H_    0.474664 0.335673 0.194875 0.266520
H155  H     H_    0.805324 0.426558 0.215026 0.165311
H156  H     H_    0.839311 0.413807 0.173329 0.119641
H157  H     H_    0.747256 0.177847 0.931510 0.036458
H158  H     H_    0.727067 0.528979 0.196397 0.236209
H159  H     H_    0.761220 0.520322 0.154052 0.214783
H160  H     H_    0.711689 0.393505 0.150859 0.267315
H161  H     H_    0.641683 0.459049 0.160305 0.265963
H162  H     H_    0.677280 0.402177 0.193471 0.267960
H163  H     H_    0.028599 0.296179 0.716216 0.168050
H164  H     H_    0.049557 0.324965 0.674343 0.119516
H165  H     H_    0.912968 0.239558 0.697028 0.235164
H166  H     H_    0.930098 0.269762 0.654582 0.216116
H167  H     H_    0.044313 0.195432 0.652983 0.265768
H168  H     H_    0.649328 0.241329 0.436554 0.074307
H169  H     H_    0.965445 0.140539 0.661988 0.269948
H170  H     H_    0.026778 0.164824 0.695642 0.266482
H171  H     H_    0.693565 0.074644 0.715329 0.165532
H172  H     H_    0.659609 0.087576 0.673628 0.119549
H173  H     H_    0.773192 0.973492 0.696420 0.236303
H174  H     H_    0.739130 0.982474 0.654071 0.214771
H175  H     H_    0.787048 0.109977 0.651431 0.267308
H176  H     H_    0.857830 0.045129 0.660661 0.265775
H177  H     H_    0.821419 0.100920 0.694032 0.267735
H178  H     H_    0.971393 0.703878 0.716187 0.168017
H179  H     H_    0.758682 0.649437 0.436484 0.074136
H180  H     H_    0.950462 0.675059 0.674318 0.119531
H181  H     H_    0.087062 0.760436 0.697015 0.235135
H182  H     H_    0.069990 0.730180 0.654572 0.216114
H183  H     H_    0.955804 0.804552 0.652911 0.265765
H184  H     H_    0.034678 0.859427 0.661927 0.269973
H185  H     H_    0.973281 0.835213 0.695567 0.266476
H186  H     H_    0.306364 0.925407 0.715307 0.165515
H187  H     H_    0.340333 0.912493 0.673608 0.119563
H188  H     H_    0.226819 0.026630 0.696415 0.236306
H189  H     H_    0.260899 0.017685 0.654068 0.214782
H190  H     H_    0.350675 0.758669 0.436555 0.074296
H191  H     H_    0.212895 0.890221 0.651383 0.267317
H192  H     H_    0.142153 0.955104 0.660627 0.265794
H193  H     H_    0.178509 0.899238 0.693984 0.267754
H194  H     H_    0.241322 0.350568 0.436485 0.074126
H195  H     H_    0.677633 0.752697 0.431439 0.037177
H196  H     H_    0.636433 0.269273 0.033451 0.170338
H197  H     H_    0.752739 0.322163 0.431511 0.036488
H198  H     H_    0.322371 0.247307 0.431439 0.037176
H199  H     H_    0.247267 0.677834 0.431512 0.036479
H200  H     H_    0.005836 0.383065 0.867425 0.178906
H201  H     H_    0.616397 0.011818 0.867543 0.177725
H202  H     H_    0.994165 0.616935 0.867424 0.178907
H203  H     H_    0.383604 0.988187 0.867544 0.177729
H204  H     H_    0.505673 0.883057 0.367424 0.178917
H205  H     H_    0.116419 0.511646 0.367543 0.177741
H206  H     H_    0.494339 0.116947 0.367422 0.178953
H207  H     H_    0.730655 0.636369 0.033392 0.170144
H208  H     H_    0.883580 0.488407 0.367538 0.177792
H209  H     H_    0.464367 0.888598 0.132330 0.176641
H210  H     H_    0.116486 0.489367 0.132474 0.179495
H211  H     H_    0.535626 0.111383 0.132320 0.176559
H212  H     H_    0.883532 0.510698 0.132463 0.179377
H213  H     H_    0.964388 0.388590 0.632331 0.176668
H214  H     H_    0.616528 0.989865 0.632473 0.179507
H215  H     H_    0.035604 0.611407 0.632331 0.176663
H216  H     H_    0.383473 0.010147 0.632472 0.179499
H217  H     H_    0.025070 0.902755 0.981171 0.115363
H218  H     H_    0.362751 0.269436 0.034262 0.168668
H219  H     H_    0.110850 0.883741 0.999056 0.158246
H220  H     H_    0.971183 0.790265 0.004189 0.266519
H221  H     H_    0.056778 0.760297 0.019685 0.222737
H222  H     H_    0.064649 0.860171 0.059661 0.283232
H223  H     H_    0.977338 0.816627 0.064012 0.279890
H224  H     H_    0.984281 0.902471 0.042223 0.265650
H225  H     H_    0.097369 0.024996 0.981110 0.115430
H226  H     H_    0.116353 0.110786 0.999003 0.158419
H227  H     H_    0.209837 0.971186 0.004162 0.266388
H228  H     H_    0.239775 0.056813 0.019654 0.222935
H229  H     H_    0.269343 0.637316 0.034326 0.168844
H230  H     H_    0.139914 0.064654 0.059619 0.283532
H231  H     H_    0.183397 0.977332 0.063975 0.279825
H232  H     H_    0.097570 0.984298 0.042176 0.265469
H233  H     H_    0.974930 0.097246 0.981170 0.115364
H234  H     H_    0.889151 0.116259 0.999055 0.158247
H235  H     H_    0.028817 0.209735 0.004189 0.266520
H236  H     H_    0.943222 0.239703 0.019685 0.222738
H237  H     H_    0.935348 0.139828 0.059661 0.283224
H238  H     H_    0.022660 0.183371 0.064012 0.279908
H239  H     H_    0.015717 0.097528 0.042222 0.265645
H240  H     H_    0.637250 0.730564 0.034263 0.168681
H241  H     H_    0.902631 0.975004 0.981110 0.115432
H242  H     H_    0.883648 0.889214 0.999003 0.158418
H243  H     H_    0.790163 0.028814 0.004161 0.266390
H244  H     H_    0.760224 0.943187 0.019654 0.222930
H245  H     H_    0.860083 0.935346 0.059619 0.283526
H246  H     H_    0.816600 0.022668 0.063975 0.279811
H247  H     H_    0.902428 0.015702 0.042176 0.265478
H248  H     H_    0.028627 0.124857 0.918271 0.165767
H249  H     H_    0.115996 0.146333 0.901796 0.104390
H250  H     H_    0.992221 0.258696 0.912022 0.275372
H251  H     H_    0.730656 0.362682 0.034327 0.168826
H252  H     H_    0.077825 0.274269 0.891382 0.187143
H253  H     H_    0.045718 0.183420 0.847028 0.260659
H254  H     H_    0.977298 0.253483 0.850111 0.288880
H255  H     H_    0.960237 0.165273 0.868053 0.264601
H256  H     H_    0.125649 0.971552 0.917979 0.165494
H257  H     H_    0.146653 0.883860 0.901744 0.104790
H258  H     H_    0.259151 0.007667 0.911721 0.274867
H259  H     H_    0.275319 0.921307 0.891860 0.187538
H260  H     H_    0.166883 0.037881 0.867013 0.264004
H261  H     H_    0.185387 0.951521 0.846808 0.261442
H262  H     H_    0.863571 0.230721 0.533447 0.170327
H263  H     H_    0.255453 0.019959 0.849599 0.290295
H264  H     H_    0.971377 0.875142 0.918271 0.165770
H265  H     H_    0.884008 0.853666 0.901795 0.104386
H266  H     H_    0.007781 0.741301 0.912025 0.275375
H267  H     H_    0.922179 0.725730 0.891382 0.187142
H268  H     H_    0.954295 0.816579 0.847029 0.260658
H269  H     H_    0.022711 0.746513 0.850113 0.288875
H270  H     H_    0.039774 0.834722 0.868055 0.264603
H271  H     H_    0.874351 0.028448 0.917978 0.165496
H272  H     H_    0.853348 0.116140 0.901743 0.104789
O1    O     O_3   0.500000 0.000000 0.000020 -0.478203
O2    O     O_R   0.500000 0.939230 0.425200 -0.654411
O3    O     O_R   0.060770 0.500000 0.425200 -0.654389
O4    O     O_R   0.500000 0.060770 0.425200 -0.654414
O5    O     O_R   0.500000 0.939250 0.074840 -0.645790
O6    O     O_R   0.060750 0.500000 0.074840 -0.646657
O7    O     O_R   0.500000 0.060750 0.074840 -0.645764
O8    O     O_R   0.939250 0.500000 0.074840 -0.646644
O9    O     O_R   0.000000 0.439250 0.574840 -0.645774
O10   O     O_R   0.560750 0.000000 0.574840 -0.646652
O11   O     O_R   0.000000 0.560750 0.574840 -0.645770
O12   O     O_3   0.000000 0.500000 0.000020 -0.477956
O13   O     O_R   0.439250 0.000000 0.574840 -0.646652
O14   O     O_R   0.646140 0.914530 0.980400 -0.636503
O15   O     O_R   0.085470 0.646140 0.980400 -0.636708
O16   O     O_R   0.353860 0.085470 0.980400 -0.636502
O17   O     O_R   0.914530 0.353860 0.980400 -0.636706
O18   O     O_R   0.646140 0.085470 0.980400 -0.624936
O19   O     O_R   0.085470 0.353860 0.980400 -0.625011
O20   O     O_R   0.353860 0.914530 0.980400 -0.624933
O21   O     O_R   0.914530 0.646140 0.980400 -0.625010
O22   O     O_R   0.146140 0.414530 0.480400 -0.636511
O23   O     O_3   0.000000 0.500000 0.500020 -0.478206
O24   O     O_R   0.585470 0.146140 0.480400 -0.636713
O25   O     O_R   0.853860 0.585470 0.480400 -0.636507
O26   O     O_R   0.414530 0.853860 0.480400 -0.636713
O27   O     O_R   0.146140 0.585470 0.480400 -0.624930
O28   O     O_R   0.585470 0.853860 0.480400 -0.625006
O29   O     O_R   0.853860 0.414530 0.480400 -0.624926
O30   O     O_R   0.414530 0.146140 0.480400 -0.625010
O31   O     O_R   0.414550 0.146130 0.019630 -0.646664
O32   O     O_R   0.853870 0.414550 0.019630 -0.647222
O33   O     O_R   0.585450 0.853870 0.019630 -0.646669
O34   O     O_3   0.500000 0.000000 0.500020 -0.477957
O35   O     O_R   0.146130 0.585450 0.019630 -0.647225
O36   O     O_R   0.414550 0.853870 0.019630 -0.651225
O37   O     O_R   0.853870 0.585450 0.019630 -0.650652
O38   O     O_R   0.585450 0.146130 0.019630 -0.651228
O39   O     O_R   0.146130 0.414550 0.019630 -0.650641
O40   O     O_R   0.914550 0.646130 0.519630 -0.646664
O41   O     O_R   0.353870 0.914550 0.519630 -0.647234
O42   O     O_R   0.085450 0.353870 0.519630 -0.646664
O43   O     O_R   0.646130 0.085450 0.519630 -0.647234
O44   O     O_R   0.914550 0.353870 0.519630 -0.651230
O45   O     O_R   0.439230 0.000000 0.925200 -0.654383
O46   O     O_R   0.353870 0.085450 0.519630 -0.650635
O47   O     O_R   0.085450 0.646130 0.519630 -0.651227
O48   O     O_R   0.646130 0.914550 0.519630 -0.650635
O49   O     O_3   0.077686 0.818596 0.957581 -0.613802
O50   O     O_3   0.181553 0.077651 0.957539 -0.613883
O51   O     O_3   0.922316 0.181405 0.957581 -0.613800
O52   O     O_3   0.818448 0.922349 0.957539 -0.613885
O53   O     O_3   0.087407 0.191344 0.949313 -0.615366
O54   O     O_3   0.191469 0.912564 0.949263 -0.614718
O55   O     O_3   0.912595 0.808657 0.949314 -0.615369
O56   O     O_R   0.000000 0.439230 0.925200 -0.654408
O57   O     O_3   0.808534 0.087437 0.949263 -0.614721
O58   O     O_3   0.577683 0.318607 0.457590 -0.613809
O59   O     O_3   0.681542 0.577649 0.457547 -0.613883
O60   O     O_3   0.422321 0.681393 0.457591 -0.613808
O61   O     O_3   0.318462 0.422352 0.457549 -0.613891
O62   O     O_3   0.587399 0.691343 0.449321 -0.615361
O63   O     O_3   0.691469 0.412572 0.449269 -0.614721
O64   O     O_3   0.412604 0.308659 0.449323 -0.615367
O65   O     O_3   0.308539 0.587426 0.449272 -0.614717
O66   O     O_3   0.008708 0.369124 0.801015 -0.633328
O67   O     O_R   0.560770 0.000000 0.925200 -0.654384
O68   O     O_3   0.630020 0.016717 0.800988 -0.630918
O69   O     O_3   0.991307 0.630872 0.801013 -0.633305
O70   O     O_3   0.369977 0.983300 0.800990 -0.630913
O71   O     O_3   0.508520 0.869117 0.301013 -0.633287
O72   O     O_3   0.130050 0.516556 0.300989 -0.630965
O73   O     O_3   0.491566 0.130894 0.301017 -0.633136
O74   O     O_3   0.869934 0.483668 0.300994 -0.630847
O75   O     O_3   0.459400 0.875409 0.199170 -0.628987
O76   O     O_3   0.130595 0.488833 0.199286 -0.627373
O77   O     O_3   0.540480 0.124617 0.199198 -0.629065
O78   O     O_R   0.000000 0.560770 0.925200 -0.654408
O79   O     O_3   0.869424 0.511228 0.199332 -0.627575
O80   O     O_3   0.959424 0.375399 0.699168 -0.628985
O81   O     O_3   0.630638 0.989394 0.699298 -0.627379
O82   O     O_3   0.040545 0.624604 0.699171 -0.628991
O83   O     O_3   0.369363 0.010627 0.699301 -0.627391
O84   O     O_R   0.939230 0.500000 0.425200 -0.654386
Zn1   Zn    Zn3+2 0.500000 0.913220 0.028040 0.956447
Zn2   Zn    Zn3+2 0.000000 0.586730 0.971990 0.964986
Zn3   Zn    Zn3+2 0.413270 0.000000 0.971990 0.964933
Zn4   Zn    Zn3+2 1.000000 0.413270 0.971990 0.964994
Zn5   Zn    Zn3+2 0.086730 0.500000 0.471990 0.964929
Zn6   Zn    Zn3+2 0.500000 0.086730 0.471990 0.964985
Zn7   Zn    Zn3+2 0.913270 0.500000 0.471990 0.964935
Zn8   Zn    Zn3+2 0.500000 0.913270 0.471990 0.964988
Zn9   Zn    Zn3+2 0.086780 0.500000 0.028040 0.956322
Zn10  Zn    Zn3+2 0.500000 0.086780 0.028040 0.956448
Zn11  Zn    Zn3+2 0.913220 0.500000 0.028040 0.956310
Zn12  Zn    Zn3+2 0.000000 0.413220 0.528040 0.956459
Zn13  Zn    Zn3+2 0.586780 0.000000 0.528040 0.956323
Zn14  Zn    Zn3+2 1.000000 0.586780 0.528040 0.956461
Zn15  Zn    Zn3+2 0.413220 0.000000 0.528040 0.956323
Zn16  Zn    Zn3+2 0.586730 0.000000 0.971990 0.964925

loop_
_geom_bond_atom_site_label_1
_geom_bond_atom_site_label_2
_ccdc_geom_bond_type
O1    Zn3   S    
O46   Zn15  S    
C126  C127  S    
C18   C21   S    
C137  H142  S    
C215  C233  A    
O30   Zn6   S    
C199  O27   A    
C34   O66   S    
C114  C115  S    
C33   O65   S    
C98   H54   S    
O48   Zn13  S    
C171  H216  S    
O47   Zn14  S    
C22   C203  S    
C96   H50   S    
C192  C221  S    
C194  O22   A    
C54   H224  S    
C126  O73   S    
O40   Zn14  S    
C106  C107  S    
C205  C211  A    
C47   H203  S    
C95   H48   S    
C69   H257  S    
C24   C42   A    
C108  C109  S    
O37   Zn11  S    
C189  O17   A    
O39   Zn9   S    
C199  O47   A    
C44   H201  S    
C153  H181  S    
O21   Zn2   S    
C32   C215  S    
C11   C15   A    
C182  O6    A    
C25   H157  S    
C162  C171  A    
C16   H68   S    
C110  H82   S    
C103  H65   S    
C59   H234  S    
C141  H153  S    
C68   C90   T    
O41   Zn15  S    
C20   C210  S    
C40   O72   S    
C118  H98   S    
C87   H28   S    
C27   H179  S    
C115  H92   S    
C127  H119  S    
C59   C60   S    
C28   C220  S    
C142  O79   S    
C64   H246  S    
C155  H186  S    
C84   H22   S    
C25   O57   S    
C85   H23   S    
C118  H97   S    
C143  H159  S    
C149  O81   S    
C50   H206  S    
C69   H256  S    
C61   H237  S    
C21   H124  S    
C5    C238  A    
C109  H80   S    
C104  H67   S    
C181  O5    A    
C140  C141  S    
C32   O64   S    
C99   H56   S    
C187  C226  S    
C131  H131  S    
C151  H177  S    
C205  C223  A    
C72   O55   S    
C73   H267  S    
C91   H38   S    
C75   C76   S    
O12   Zn9   S    
C135  O76   S    
C78   O58   S    
C198  C237  S    
C102  H62   S    
C131  H130  S    
C6    C227  A    
C48   C208  A    
C85   O60   S    
C10   C232  A    
C114  H88   S    
C4    C225  A    
C111  H85   S    
C163  C172  A    
O9    Zn12  S    
O67   Zn16  S    
C138  H144  S    
C184  O13   A    
C65   H249  S    
C149  H172  S    
C28   C33   S    
C27   C216  S    
O36   Zn1   S    
C19   C211  S    
C45   H202  S    
C164  O3    A    
C209  C226  A    
C163  H209  S    
C37   C45   A    
C43   H200  S    
O29   Zn7   S    
C170  C174  A    
C176  C184  S    
O7    Zn10  S    
C204  C222  A    
C92   O62   S    
C72   C73   S    
C54   H222  S    
O24   Zn6   S    
C33   H199  S    
C53   H221  S    
C139  C140  S    
C129  H126  S    
C116  O70   S    
C221  C238  A    
O3    Zn5   S    
C156  C158  S    
C130  C131  S    
C187  O15   A    
C20   O52   S    
C10   C16   A    
C30   C213  S    
C128  H122  S    
C154  H184  S    
C119  H100  S    
C191  O19   A    
C145  H163  S    
C4    C239  A    
C139  H149  S    
C193  O21   A    
C22   H135  S    
O34   Zn8   S    
C132  H133  S    
C53   H220  S    
C41   O73   S    
C102  O65   S    
C107  H75   S    
C166  H211  S    
C15   H57   S    
C18   H90   S    
C75   H272  S    
C212  C217  A    
C14   C235  A    
C155  C156  S    
C132  O75   S    
C214  C220  A    
C195  O43   A    
C62   H242  S    
C121  H105  S    
C188  O16   A    
C143  C144  S    
C154  H185  S    
C117  H95   S    
C140  H151  S    
C50   C208  A    
C11   C233  A    
C61   H239  S    
C166  C172  A    
C3    H207  S    
C10   H13   S    
C4    H218  S    
C147  C148  S    
C181  O7    A    
C133  H134  S    
C3    C6    A    
C217  C235  A    
C85   C86   S    
C168  C174  A    
C49   C219  A    
C196  O40   A    
C158  H192  S    
C91   H36   S    
C150  H173  S    
C202  O46   A    
C29   H194  S    
C105  O66   S    
C123  H110  S    
C78   C80   S    
O56   Zn4   S    
C13   C57   S    
C40   C49   A    
O20   Zn3   S    
C222  C239  A    
O23   Zn12  S    
C83   H18   S    
C167  H212  S    
O33   Zn1   S    
C160  C180  A    
C150  H174  S    
C125  H115  S    
C172  C181  S    
C169  C176  A    
C193  C224  S    
C206  C224  A    
C15   C236  A    
C78   H8    S    
C79   C177  S    
C63   H244  S    
C89   C91   S    
O32   Zn11  S    
C162  C180  A    
C157  O79   S    
C124  C163  A    
C201  C229  S    
C66   C67   S    
C80   H10   S    
C70   H258  S    
C55   H226  S    
C110  H84   S    
C130  H128  S    
C69   C70   S    
O8    Zn11  S    
O18   Zn16  S    
C12   H35   S    
C93   H42   S    
C126  H118  S    
C94   H45   S    
C7    H251  S    
C108  H77   S    
O25   Zn7   S    
C74   H269  S    
C187  O35   A    
C155  H187  S    
C76   H3    S    
C215  C218  A    
C51   C219  A    
C80   H11   S    
C152  H178  S    
C51   H208  S    
C18   C207  S    
C97   H51   S    
C58   H232  S    
C92   H40   S    
O10   Zn13  S    
O34   Zn6   S    
O44   Zn12  S    
C19   O51   S    
C8    C229  A    
C206  C210  A    
C88   H31   S    
C83   C84   S    
C20   C23   S    
C95   O63   S    
C155  O83   S    
C11   H24   S    
C81   H15   S    
C100  H59   S    
O2    Zn8   S    
C121  H107  S    
C124  C177  A    
C134  H139  S    
C146  O77   S    
C164  C219  S    
C32   H198  S    
C29   C218  S    
C56   H228  S    
C211  C228  A    
C30   O62   S    
O23   Zn7   S    
C49   H205  S    
C124  O75   S    
C183  O11   A    
C52   C53   S    
C18   O50   S    
C98   O64   S    
C52   H217  S    
C103  H64   S    
C33   C214  S    
C46   C113  T    
C198  O26   A    
C194  O42   A    
C1    C197  S    
C34   C43   A    
C136  C137  S    
C71   H260  S    
C30   H195  S    
C139  H148  S    
O31   Zn10  S    
C171  C176  A    
C35   C230  S    
C117  C118  S    
C105  H71   S    
C212  C229  A    
C106  H72   S    
C196  C234  S    
C14   H46   S    
C95   H47   S    
C129  O74   S    
C144  H160  S    
C56   C58   S    
C132  C133  S    
C157  C178  A    
C102  C103  S    
C9    C12   A    
C156  H189  S    
C63   C64   S    
C136  O76   S    
C147  H166  S    
C152  C153  S    
C59   H233  S    
C60   H235  S    
C138  H147  S    
C47   C197  A    
C133  H136  S    
C148  H167  S    
C132  H132  S    
C106  H73   S    
C66   H252  S    
C94   H43   S    
C115  H91   S    
C89   H33   S    
C55   C56   S    
C90   C178  S    
C216  C234  A    
C73   C74   S    
C192  O36   A    
C188  O31   A    
C152  O82   S    
C82   O59   S    
C240  H196  S    
C214  C232  A    
C157  C167  A    
C13   C41   A    
C133  C134  S    
C22   O54   S    
C140  H150  S    
C111  O69   S    
C238  H1    S    
C152  H180  S    
O11   Zn14  S    
O42   Zn12  S    
C58   H230  S    
O45   Zn3   S    
C129  C130  S    
C29   C32   S    
C17   C209  S    
C87   H30   S    
C88   O61   S    
C98   C99   S    
C25   C205  S    
C123  C125  S    
C148  H169  S    
C185  C227  S    
C193  O37   A    
C77   H6    S    
C161  O82   S    
C190  C223  S    
C100  H61   S    
C91   H37   S    
C134  H137  S    
C145  C147  S    
C102  H63   S    
C123  H111  S    
C191  O39   A    
C145  O80   S    
C31   C212  S    
C116  H93   S    
C142  H156  S    
C19   H101  S    
C144  H161  S    
C160  C169  A    
O23   Zn5   S    
C83   H19   S    
C70   C71   S    
O84   Zn7   S    
C67   H254  S    
C183  O9    A    
C167  C173  A    
C52   H219  S    
C151  H176  S    
C200  O48   A    
C149  H171  S    
C182  O8    A    
C17   H79   S    
C26   C217  S    
C195  C235  S    
C137  H143  S    
C122  H108  S    
C175  C208  S    
C119  O71   S    
O1    Zn16  S    
C55   O50   S    
C84   H20   S    
O26   Zn8   S    
O4    Zn6   S    
C28   O60   S    
C29   O61   S    
C162  O83   S    
C202  O30   A    
C31   O63   S    
C96   H49   S    
C54   H223  S    
C17   O49   S    
C128  H121  S    
C86   C87   S    
C118  H99   S    
C129  H125  S    
C53   C54   S    
C104  H66   S    
C141  H152  S    
C60   C61   S    
C122  H109  S    
C86   H27   S    
C199  C232  S    
C96   C97   S    
C62   C63   S    
C153  H182  S    
C108  O68   S    
C204  C207  A    
C71   H263  S    
O6    Zn9   S    
C141  H154  S    
C59   O51   S    
O34   Zn15  S    
C135  C165  A    
C138  H145  S    
C112  O78   A    
C75   O57   S    
C164  O84   A    
O15   Zn2   S    
C115  H89   S    
C127  H120  S    
O19   Zn4   S    
C75   H271  S    
C64   H245  S    
C84   H21   S    
C189  C228  S    
C81   H12   S    
C127  C128  S    
C41   C50   A    
C142  H155  S    
C119  H102  S    
C131  H129  S    
C213  C216  A    
C48   H204  S    
C61   H238  S    
C136  H140  S    
C82   H16   S    
C122  O72   S    
C116  H94   S    
C20   H113  S    
O43   Zn13  S    
C135  C178  A    
C159  C179  A    
C35   C101  T    
C174  C183  S    
C119  C120  S    
O14   Zn16  S    
C105  C106  S    
C17   C22   S    
O12   Zn2   S    
C175  O4    A    
C97   H53   S    
C218  C236  A    
C159  O80   S    
C27   O59   S    
C149  C150  S    
C31   H197  S    
C120  H103  S    
C21   O53   S    
C160  O81   S    
C1    O45   A    
C92   C93   S    
C1    O67   A    
C111  C114  S    
C6    H240  S    
C114  H87   S    
C111  H86   S    
C62   O52   S    
C154  H183  S    
C168  H213  S    
C24   C68   S    
C125  H114  S    
C196  O25   A    
C113  C180  S    
C185  O33   A    
C82   C83   S    
C103  C104  S    
C78   H9    S    
C142  C143  S    
C169  H214  S    
C63   H243  S    
C77   H7    S    
C156  H188  S    
C144  H162  S    
C23   H146  S    
C39   C48   A    
C38   O70   S    
C93   C94   S    
C37   O69   S    
C70   H259  S    
C55   H225  S    
O17   Zn4   S    
C210  C227  A    
C57   C79   T    
C95   C96   S    
C5    H229  S    
O34   Zn13  S    
C128  H123  S    
C93   H41   S    
C116  C117  S    
C12   C234  A    
C108  H78   S    
C74   H270  S    
C185  O14   A    
C200  O28   A    
C190  O38   A    
C198  O41   A    
C223  C240  A    
C112  C186  S    
C45   C186  A    
C120  H104  S    
C7    C228  A    
C71   H261  S    
C165  C173  A    
C201  O29   A    
C136  H141  S    
C145  H164  S    
C159  C168  A    
C203  C221  A    
C110  H83   S    
C2    C46   S    
C65   H248  S    
C195  O24   A    
C107  H76   S    
C88   H32   S    
O1    Zn10  S    
C64   H247  S    
O12   Zn11  S    
C200  C231  S    
C81   H14   S    
C100  H60   S    
C143  H158  S    
C121  H106  S    
C42   C51   A    
C117  H96   S    
O5    Zn1   S    
C88   C89   S    
C72   H264  S    
C26   H168  S    
C146  C166  A    
C26   C31   S    
C65   O53   S    
C192  O20   A    
C27   C30   S    
C98   H55   S    
C28   H190  S    
C34   C230  A    
C19   C25   S    
C9    H2    S    
C67   H255  S    
C207  C225  A    
C239  H112  S    
O35   Zn9   S    
O1    Zn1   S    
C37   C230  A    
C42   O74   S    
O12   Zn4   S    
C175  O2    A    
C85   H25   S    
C158  H191  S    
C76   C77   S    
C188  C225  S    
C190  O18   A    
C189  O32   A    
C86   H26   S    
C52   O49   S    
C73   H266  S    
C43   C186  A    
C3    C224  A    
C146  C177  A    
O13   Zn15  S    
C109  H81   S    
C101  C179  S    
C58   H231  S    
C105  H70   S    
O16   Zn3   S    
C125  H116  S    
C184  O10   A    
C74   H268  S    
C99   C100  S    
C69   O54   S    
C165  H210  S    
O38   Zn10  S    
C202  C233  S    
C104  H69   S    
O28   Zn8   S    
C7    C240  A    
C201  O44   A    
C26   O58   S    
C191  C222  S    
C38   C47   A    
C161  C170  A    
C147  H165  S    
C66   H250  S    
C16   C237  A    
C60   H236  S    
C23   C206  S    
C130  H127  S    
C161  C179  A    
C62   H241  S    
C126  H117  S    
C94   H44   S    
C2    C36   A    
C8    C14   A    
C150  C151  S    
C158  H193  S    
C203  C209  A    
C194  C236  S    
C80   C81   S    
C213  C231  A    
C173  C182  S    
C36   O68   S    
C23   O55   S    
C72   H265  S    
C137  C138  S    
C9    C231  A    
C97   H52   S    
C2    C38   A    
C76   H4    S    
C92   H39   S    
C122  C123  S    
C8    H262  S    
C112  O56   A    
C99   H58   S    
C87   H29   S    
C107  H74   S    
O78   Zn2   S    
C89   H34   S    
C148  H170  S    
C170  H215  S    
C24   C40   A    
C5    C226  A    
O27   Zn5   S    
C77   H5    S    
C220  C237  A    
C13   C39   A    
C36   C44   A    
C134  H138  S    
O22   Zn5   S    
C44   C197  A    
O23   Zn14  S    
C56   H227  S    
C21   C204  S    
C65   C66   S    
C109  C110  S    
C39   O71   S    
C120  C121  S    
C139  O77   S    
C153  C154  S    
C67   H253  S    
C82   H17   S    
C151  H175  S    
