data_mof_unit_27505.cif
_audit_creation_date              2012-12-10T17:55:54-0500
_audit_creation_method            fapswitch 2.2
_symmetry_space_group_name_H-M    P1
_symmetry_Int_Tables_number       1
_space_group_crystal_system       triclinic
_cell_length_a                    10.763776
_cell_length_b                    10.792634
_cell_length_c                    9.61463
_cell_angle_alpha                 89.470476
_cell_angle_beta                  99.896806
_cell_angle_gamma                 91.834585
_cell_volume                      1099.733694

loop_
_atom_site_label
_atom_site_type_symbol
_atom_type_description
_atom_site_fract_x
_atom_site_fract_y
_atom_site_fract_z
_atom_type_partial_charge
C1    C     C_R   0.500808 0.262577 0.500751 0.820958
C2    C     C_R   0.499223 0.737412 0.499260 0.822902
C3    C     C_R   0.261742 0.505483 0.445614 0.791227
C4    C     C_R   0.738268 0.502577 0.554750 0.743688
C5    C     C_R   0.426236 0.416764 0.062428 0.273087
C6    C     C_R   0.573479 0.583340 0.937386 0.275360
C7    C     C_R   0.427339 0.415012 0.914699 0.163690
C8    C     C_R   0.572026 0.585267 0.084873 0.179792
C9    C     C_2   0.124116 0.522149 0.425345 -0.166158
C10   C     C_2   0.876692 0.506623 0.578023 -0.149479
C11   C     C_2   0.077088 0.595478 0.518121 0.226100
C12   C     C_2   0.940558 0.601329 0.522544 0.178668
C13   C     C_R   0.429567 0.064473 0.388541 -0.283299
C14   C     C_R   0.570630 0.935454 0.611431 -0.280773
C15   C     C_R   0.427588 0.935708 0.385678 0.152084
C16   C     C_R   0.572511 0.064221 0.614375 0.149849
C17   C     C_R   0.498824 0.871311 0.498009 -0.039863
C18   C     C_R   0.501305 0.128639 0.502007 -0.038878
Cu1   Cu    Cu3+1 0.500000 0.500020 0.640660 0.980782
Cu2   Cu    Cu3+1 0.500000 0.499980 0.359340 0.977012
H1    H     H_    0.372780 0.114153 0.303484 0.155285
H2    H     H_    0.627480 0.885754 0.696418 0.157697
N1    N     N_R   0.500030 0.500030 0.852080 -0.195318
N2    N     N_R   0.499970 0.499970 0.147920 -0.191334
O1    O     O_R   0.499990 0.319660 0.618740 -0.576454
O2    O     O_R   0.500010 0.680340 0.381260 -0.579480
O3    O     O_R   0.499990 0.319630 0.381170 -0.558053
O4    O     O_R   0.500010 0.680370 0.618830 -0.554350
O5    O     O_R   0.320690 0.500020 0.575130 -0.549500
O6    O     O_R   0.679310 0.499980 0.424870 -0.560922
O7    O     O_R   0.320680 0.499990 0.337560 -0.561230
O8    O     O_R   0.679320 0.500010 0.662440 -0.548044
N3    N     N_3   0.882743 0.716937 0.477072 -0.615333
H3    H     H_    0.789465 0.720906 0.492998 0.202744
H4    H     H_    0.884537 0.727798 0.369376 0.240351
N4    N     N_3   0.160919 0.673921 0.614516 -0.561575
H5    H     H_    0.147059 0.652131 0.717030 0.245944
H6    H     H_    0.135596 0.765836 0.593949 0.220029
N5    N     N_3   0.347134 0.330120 0.122875 -0.528406
H7    H     H_    0.371396 0.240681 0.099199 0.202464
H8    H     H_    0.253661 0.343091 0.074862 0.220653
N6    N     N_3   0.652648 0.669912 0.876902 -0.520290
H9    H     H_    0.628466 0.759394 0.900517 0.198878
H10   H     H_    0.746143 0.656855 0.924793 0.227843
C19   C     C_2   0.938742 0.398546 0.654814 0.328519
H11   H     H_    0.881513 0.317777 0.674702 0.083451
O9    O     O_2   0.051796 0.399052 0.700301 -0.565091
C20   C     C_2   0.044350 0.454644 0.306273 0.309829
H12   H     H_    0.086843 0.386408 0.248390 0.084316
O10   O     O_2   0.932697 0.475479 0.269275 -0.542299
N7    N     N_3   0.354735 0.317726 0.835779 -0.591884
H13   H     H_    0.414818 0.249185 0.814368 0.240682
H14   H     H_    0.300747 0.351490 0.744335 0.300193
N8    N     N_3   0.644646 0.682292 0.163499 -0.616585
H15   H     H_    0.584579 0.750563 0.185617 0.241898
H16   H     H_    0.697227 0.646771 0.254423 0.279858
N9    N     N_3   0.350393 0.870732 0.271288 -0.578176
H17   H     H_    0.257057 0.896568 0.267413 0.218028
H18   H     H_    0.378865 0.899835 0.177277 0.213425
N10   N     N_3   0.649524 0.129169 0.728919 -0.586832
H19   H     H_    0.742862 0.103215 0.733116 0.214787
H20   H     H_    0.620784 0.100111 0.822803 0.217533

loop_
_geom_bond_atom_site_label_1
_geom_bond_atom_site_label_2
_ccdc_geom_bond_type
Cu1   N1    S    
C11   C12   S    
C1    O1    A    
C3    C9    S    
Cu2   O3    S    
C15   N9    S    
C6    N6    S    
Cu1   Cu2   S    
C14   H2    S    
C10   C19   S    
C13   C15   A    
N3    H3    S    
C1    C18   S    
C7    N7    S    
C2    O2    A    
Cu2   O6    S    
C19   H11   S    
C2    C17   S    
C3    O7    A    
Cu1   O4    S    
C9    C11   D    
C14   C17   A    
C3    O5    A    
N9    H17   S    
C4    O8    A    
C5    N2    A    
N6    H10   S    
C13   C18   A    
C12   N3    S    
C7    N1    A    
C6    N1    A    
C10   C12   D    
C16   C18   A    
C20   H12   S    
N3    H4    S    
C20   O10   D    
C5    C7    A    
C5    N5    S    
N10   H20   S    
Cu1   O1    S    
N8    H16   S    
N9    H18   S    
C2    O4    A    
N6    H9    S    
Cu1   O8    S    
N7    H14   S    
C13   H1    S    
N7    H13   S    
Cu1   O5    S    
N4    H6    S    
N5    H8    S    
C9    C20   S    
C1    O3    A    
C16   N10   S    
C19   O9    D    
C8    N8    S    
N5    H7    S    
C15   C17   A    
N8    H15   S    
N4    H5    S    
C6    C8    A    
C8    N2    A    
C14   C16   A    
C4    C10   S    
C4    O6    A    
Cu2   N2    S    
N10   H19   S    
Cu2   O2    S    
Cu2   O7    S    
C11   N4    S    
