data_mof_unit_65050.cif
_audit_creation_date              2013-03-05T16:51:58-0500
_audit_creation_method            fapswitch 2.2
_symmetry_space_group_name_H-M    P1
_symmetry_Int_Tables_number       1
_space_group_crystal_system       triclinic
_cell_length_a                    15.865987
_cell_length_b                    15.06155
_cell_length_c                    19.148914
_cell_angle_alpha                 90.000548
_cell_angle_beta                  89.998704
_cell_angle_gamma                 89.989802
_cell_volume                      4575.94613565

loop_
_atom_site_label
_atom_site_type_symbol
_atom_site_description
_atom_site_fract_x
_atom_site_fract_y
_atom_site_fract_z
_atom_type_partial_charge
O1    O     O_R   0.378020 0.573650 0.500020 -0.593181
O2    O     O_R   0.621980 0.426350 0.499980 -0.594848
O3    O     O_R   0.621980 0.573650 0.499980 -0.595338
O4    O     O_R   0.378020 0.426350 0.500020 -0.593675
C1    C     C_R   0.338917 0.500009 0.500197 0.898757
C2    C     C_R   0.661082 0.499991 0.499810 0.895503
O5    O     O_R   0.499990 0.573690 0.398140 -0.616326
O6    O     O_R   0.500010 0.426310 0.601860 -0.616182
O7    O     O_R   0.500010 0.573690 0.601860 -0.616632
O8    O     O_R   0.499990 0.426310 0.398140 -0.616771
C3    C     C_R   0.501217 0.499999 0.364967 0.866395
C4    C     C_R   0.501235 0.500000 0.635032 0.867996
Zn1   Zn    Zn3+2 0.500000 0.598370 0.500000 1.021100
Zn2   Zn    Zn3+2 0.500000 0.401630 0.500000 1.021097
C5    C     C_R   0.519853 0.580576 0.253487 -0.167924
C6    C     C_R   0.519867 0.419417 0.746512 -0.169430
C7    C     C_R   0.519863 0.580578 0.746515 -0.170203
C8    C     C_R   0.519902 0.419416 0.253492 -0.168742
H1    H     H_    0.514472 0.643614 0.280350 0.168529
H2    H     H_    0.514514 0.356381 0.719647 0.168381
H3    H     H_    0.514508 0.643616 0.719651 0.168192
H4    H     H_    0.514562 0.356380 0.280359 0.168356
C9    C     C_R   0.535933 0.580589 0.182312 -0.140705
C10   C     C_R   0.535933 0.419399 0.817689 -0.142256
C11   C     C_R   0.535930 0.580588 0.817691 -0.142478
C12   C     C_R   0.535982 0.419399 0.182318 -0.140968
H5    H     H_    0.541354 0.643734 0.155655 0.160964
H6    H     H_    0.541373 0.356252 0.844344 0.160721
H7    H     H_    0.541367 0.643733 0.844347 0.160654
H8    H     H_    0.541445 0.356253 0.155665 0.160900
C13   C     C_R   0.543912 0.499993 0.146191 0.077172
C14   C     C_R   0.543883 0.499992 0.853813 0.077544
C15   C     C_R   0.511830 0.499997 0.289459 -0.042270
C16   C     C_R   0.511829 0.500000 0.710544 -0.041271
N1    N     N_R   0.555851 0.422420 0.034634 -0.164851
N2    N     N_R   0.555858 0.577564 0.965369 -0.164973
N3    N     N_R   0.555841 0.422420 0.965368 -0.164924
N4    N     N_R   0.555867 0.577564 0.034634 -0.164798
C17   C     C_R   0.554556 0.499992 0.929532 0.300180
C18   C     C_R   0.554575 0.499992 0.070472 0.300558
C19   C     C_R   0.956037 0.581481 0.495445 0.199068
C20   C     C_R   0.043951 0.418533 0.504962 0.198894
C21   C     C_R   0.043955 0.581680 0.501191 0.198904
C22   C     C_R   0.956031 0.418340 0.499218 0.199071
C23   C     C_R   0.913104 0.499817 0.494567 -0.200667
C24   C     C_R   0.086890 0.500198 0.505798 -0.200425
C25   C     C_1   0.823992 0.499893 0.496106 0.167185
C26   C     C_1   0.176005 0.500116 0.504126 0.167539
C27   C     C_1   0.250718 0.500046 0.502170 -0.095555
C28   C     C_1   0.749279 0.499958 0.497945 -0.094390
H9    H     H_    0.404188 0.081938 0.420383 0.153884
H10   H     H_    0.595837 0.918061 0.579615 0.153333
H11   H     H_    0.595837 0.081906 0.579614 0.153681
H12   H     H_    0.404188 0.918095 0.420383 0.154232
C29   C     C_R   0.446288 0.953119 0.455361 -0.129797
C30   C     C_R   0.553738 0.046882 0.544636 -0.129901
C31   C     C_R   0.553738 0.953099 0.544636 -0.130421
C32   C     C_R   0.446288 0.046900 0.455361 -0.130320
C33   C     C_R   0.500012 0.905044 0.499999 0.061059
C34   C     C_R   0.500012 0.094956 0.499998 0.061059
C35   C     C_1   0.500007 0.807190 0.500000 0.092286
C36   C     C_1   0.500007 0.192810 0.500000 0.092282
N5    N     N_1   0.500000 0.270550 0.500000 -0.078554
N6    N     N_1   0.500000 0.729450 0.500000 -0.078553
N7    N     N_R   0.089724 0.664144 0.499304 0.248107
O9    O     O_R   0.147512 0.681012 0.545666 -0.349188
O10   O     O_R   0.073973 0.722554 0.450959 -0.298101
N8    N     N_R   0.910253 0.335884 0.501134 0.248063
O11   O     O_R   0.852559 0.318941 0.454708 -0.349974
O12   O     O_R   0.925914 0.277554 0.549558 -0.298437
N9    N     N_R   0.910266 0.663957 0.493541 0.248148
O13   O     O_R   0.852571 0.677428 0.446415 -0.350411
O14   O     O_R   0.925925 0.725790 0.539196 -0.297647
N10   N     N_R   0.089716 0.336051 0.506899 0.248184
O15   O     O_R   0.147487 0.322649 0.553973 -0.349587
O16   O     O_R   0.073974 0.274138 0.461332 -0.297305

loop_
_geom_bond_atom_site_label_1
_geom_bond_atom_site_label_2
_geom_bond_distance
_ccdc_geom_bond_type
C29   C33   1.407592 A    
C8    C12   1.386584 A    
O3    C2    1.271005 A    
C21   N7    1.439301 S    
C30   C31   1.412510 A    
O5    C3    1.278954 A    
N10   O16   1.301298 A    
O1    C1    1.270967 A    
N1    N3    1.326367 A    
C31   C33   1.407598 A    
C32   C34   1.407590 A    
C13   C18   1.459784 S    
C34   C36   1.473831 S    
C20   C24   1.406280 A    
C14   C17   1.459801 S    
O7    Zn1   1.985614 S    
C6    C16   1.401311 A    
N8    O11   1.301343 A    
N7    O10   1.301301 A    
C9    H5    1.082827 S    
C8    C15   1.401310 A    
O3    Zn1   1.970756 S    
C6    H2    1.083191 S    
C19   N9    1.439263 S    
C11   C14   1.402815 A    
C5    C9    1.386583 A    
C12   C13   1.402832 A    
C6    C10   1.386599 A    
C19   C21   1.399251 A    
C1    C27   1.399875 S    
O2    C2    1.270970 A    
C20   C22   1.399264 A    
O7    C4    1.278952 A    
C25   C28   1.185921 T    
C23   C25   1.414158 S    
C11   H7    1.082819 S    
C24   C26   1.414259 S    
C33   C35   1.473831 S    
C20   N10   1.439310 S    
N10   O15   1.301321 A    
C3    C15   1.455680 S    
H10   C31   1.083133 S    
N9    O14   1.301301 A    
C7    H3    1.083179 S    
C30   C34   1.407599 A    
C9    C13   1.402827 A    
C35   N6    1.170888 T    
C5    H1    1.083191 S    
C10   C14   1.402820 A    
C36   N5    1.170888 T    
O6    C4    1.278959 A    
H9    C32   1.083131 S    
C2    C28   1.399778 S    
C26   C27   1.185978 T    
C12   H8    1.082821 S    
O8    Zn2   1.985616 S    
C22   N8    1.439278 S    
O1    Zn1   1.970887 S    
C7    C16   1.401303 A    
C4    C16   1.455698 S    
C22   C23   1.406225 A    
H11   C30   1.083131 S    
H12   C29   1.083129 S    
O6    Zn2   1.985607 S    
C8    H4    1.083190 S    
N2    C17   1.355141 A    
C10   H6    1.082829 S    
O4    C1    1.271023 A    
C7    C11   1.386593 A    
N2    N4    1.326359 A    
N1    C18   1.355137 A    
N9    O13   1.301318 A    
N3    C17   1.355127 A    
N4    C18   1.355149 A    
Zn1   N6    1.974269 S    
Zn2   N5    1.974269 S    
O4    Zn2   1.970756 S    
O2    Zn2   1.970887 S    
C21   C24   1.406291 A    
O8    C3    1.278959 A    
O5    Zn1   1.985609 S    
N8    O12   1.301290 A    
N7    O9    1.301325 A    
C29   C32   1.412496 A    
C19   C23   1.406217 A    
C5    C15   1.401317 A    
