data_mof_unit_17523.cif
_audit_creation_date              2013-03-05T15:55:01-0500
_audit_creation_method            fapswitch 2.2
_symmetry_space_group_name_H-M    P1
_symmetry_Int_Tables_number       1
_space_group_crystal_system       triclinic
_cell_length_a                    6.933518
_cell_length_b                    14.550449
_cell_length_c                    16.201261
_cell_angle_alpha                 90.485214
_cell_angle_beta                  89.987719
_cell_angle_gamma                 90.155477
_cell_volume                      1634.41252086

loop_
_atom_site_label
_atom_site_type_symbol
_atom_site_description
_atom_site_fract_x
_atom_site_fract_y
_atom_site_fract_z
_atom_type_partial_charge
O1    O     O_R   0.505810 0.583360 0.413880 -0.601575
O2    O     O_R   0.175870 0.595480 0.585520 -0.605590
O3    O     O_R   0.005540 0.416640 0.586120 -0.590479
C1    C     C_R   0.345019 0.617660 0.614628 0.911843
O4    O     O_R   0.176100 0.594390 0.414490 -0.605067
O5    O     O_R   0.005770 0.415540 0.413870 -0.572574
C2    C     C_R   0.345294 0.616461 0.385726 0.920619
O6    O     O_R   0.505580 0.584460 0.586130 -0.605671
O7    O     O_3   0.339190 0.441320 0.500000 -0.225713
V1    V     V_3+5 0.064350 0.510890 0.500000 1.190031
O8    O     O_R   0.676050 0.404520 0.414480 -0.560109
C3    C     C_R   0.844512 0.381191 0.386360 0.968700
O9    O     O_R   0.675830 0.405610 0.585510 -0.597936
C4    C     C_R   0.844592 0.385463 0.614904 1.012337
V2    V     V_3+5 0.564340 0.489110 0.500000 1.219083
O10   O     O_3   0.839370 0.558680 0.500000 -0.296615
C5    C     C_2   0.728680 0.214904 0.790377 -0.245114
C6    C     C_2   0.888282 0.166577 0.811194 0.071229
H1    H     H_    0.601899 0.210777 0.829536 0.172058
C7    C     C_2   0.711011 0.275039 0.716697 0.022098
C8    C     C_2   0.859794 0.323718 0.686298 -0.412772
H2    H     H_    0.568161 0.283413 0.690377 0.167520
H3    H     H_    0.999735 0.320567 0.716026 0.182825
C9    C     C_R   0.024113 0.248702 0.198403 -0.121885
H4    H     H_    0.146334 0.252101 0.156885 0.126760
C10   C     C_R   0.009896 0.313171 0.262813 -0.073758
H5    H     H_    0.121191 0.365160 0.268775 0.151534
C11   C     C_R   0.853345 0.311702 0.318197 -0.305847
C12   C     C_R   0.709590 0.243126 0.307298 0.383535
C13   C     C_R   0.723610 0.179893 0.241665 -0.226753
H6    H     H_    0.612464 0.127901 0.234550 0.155913
C14   C     C_R   0.879884 0.182058 0.186580 -0.178382
C15   C     C_R   0.188447 0.723841 0.718620 -0.131227
C16   C     C_R   0.199712 0.786091 0.784962 -0.110431
H7    H     H_    0.067054 0.814367 0.809490 0.124001
C17   C     C_R   0.379288 0.811614 0.818948 -0.131657
C18   C     C_R   0.547277 0.773146 0.784527 -0.127320
C19   C     C_R   0.536012 0.710901 0.718182 -0.125807
H8    H     H_    0.668676 0.682648 0.693639 0.120892
C20   C     C_R   0.356430 0.685324 0.684233 -0.122837
C21   C     C_R   0.188574 0.723101 0.283841 -0.133632
H9    H     H_    0.047791 0.704647 0.307522 0.120653
C22   C     C_R   0.199730 0.786220 0.219126 -0.123961
H10   H     H_    0.067010 0.814552 0.195169 0.123391
C23   C     C_R   0.379289 0.812443 0.185954 -0.123185
C24   C     C_R   0.547374 0.773732 0.219481 -0.132937
C25   C     C_R   0.536216 0.710608 0.284199 -0.126546
H11   H     H_    0.668930 0.682276 0.308161 0.120933
C26   C     C_R   0.356651 0.684374 0.317359 -0.125691
O11   O     O_R   0.230120 0.912300 0.917180 -0.594341
O12   O     O_R   0.559740 0.902430 0.088770 -0.603137
O13   O     O_R   0.729930 0.081310 0.089370 -0.597434
C27   C     C_R   0.390583 0.880334 0.117566 0.914348
O14   O     O_R   0.559840 0.901330 0.917750 -0.600152
O15   O     O_R   0.730030 0.080210 0.917120 -0.594303
C28   C     C_R   0.390693 0.879192 0.888614 0.944770
O16   O     O_R   0.230020 0.913400 0.089430 -0.599976
O17   O     O_3   0.396460 0.055470 0.003290 -0.261298
V3    V     V_3+5 0.671360 0.985960 0.003250 1.168443
O18   O     O_R   0.059740 0.091300 0.917690 -0.550888
C29   C     C_R   0.891786 0.110644 0.887470 0.878156
O19   O     O_R   0.059640 0.092400 0.088720 -0.598713
C30   C     C_R   0.890872 0.114446 0.117594 0.947585
V4    V     V_3+5 0.171350 0.007820 0.003190 1.196021
O20   O     O_3   0.896380 0.938200 0.003220 -0.286859
H12   H     H_    0.688059 0.791174 0.808721 0.119716
H13   H     H_    0.688151 0.792194 0.195800 0.119548
N1    N     N_R   0.049603 0.159024 0.755494 0.245527
O21   O     O_R   0.225284 0.165189 0.783197 -0.418317
O22   O     O_R   0.021570 0.134612 0.678947 -0.343495
N2    N     N_R   0.553055 0.233606 0.364154 0.232191
O23   O     O_R   0.403589 0.286808 0.357746 -0.398954
O24   O     O_R   0.540056 0.159682 0.408406 -0.363940
H14   H     H_    0.047667 0.705827 0.694416 0.120618

loop_
_geom_bond_atom_site_label_1
_geom_bond_atom_site_label_2
_geom_bond_distance
_ccdc_geom_bond_type
C19   C20   1.409150 A    
O15   V3    2.005612 S    
O11   V4    2.002382 S    
C21   H9    1.082709 S    
C1    O6    1.297992 A    
C25   C26   1.408902 A    
C23   C24   1.406957 A    
C10   H5    1.082891 S    
C12   C13   1.403762 A    
C3    C11   1.492314 S    
C4    C8    1.474552 S    
C11   C12   1.418436 A    
C18   C19   1.401739 A    
C9    C10   1.400881 A    
O4    V1    2.004663 S    
O5    C3    1.300750 A    
C13   H6    1.083906 S    
C6    N1    1.440858 S    
V2    O10   2.156523 S    
C5    C7    1.491279 S    
C16   H7    1.082741 S    
O19   V4    2.002613 S    
O8    V2    2.002591 S    
C1    C20   1.492668 S    
N1    O21   1.300833 A    
O1    V2    2.006933 S    
O7    V1    2.160210 S    
C23   C27   1.492526 S    
O9    C4    1.298601 A    
C21   C22   1.401664 A    
C21   C26   1.406942 A    
C5    C6    1.356898 D    
O14   V3    1.999860 S    
O17   V4    1.706144 S    
O14   C28   1.302926 A    
C15   C20   1.406772 A    
C9    H4    1.083106 S    
C2    C26   1.492520 S    
N2    O24   1.300612 A    
C27   O16   1.298260 A    
O17   V3    2.160164 S    
O11   C28   1.297958 A    
O18   C29   1.295909 A    
O12   C27   1.302636 A    
O2    C1    1.302929 A    
C22   H10   1.082733 S    
C9    C14   1.403115 A    
O19   C30   1.300099 A    
C17   C28   1.492585 S    
O13   V3    2.000219 S    
C25   H11   1.082732 S    
C18   H12   1.082721 S    
C15   C16   1.401750 A    
C22   C23   1.408892 A    
O3    C4    1.291968 A    
C7    H2    1.085997 S    
O6    V2    2.002008 S    
C8    H3    1.084596 S    
O12   V3    2.004695 S    
O2    V1    1.999728 S    
O16   V4    2.010196 S    
O4    C2    1.302592 A    
C24   C25   1.401736 A    
C17   C18   1.406744 A    
O1    C2    1.298272 A    
C14   C30   1.484773 S    
O13   C30   1.296279 A    
O5    V1    2.000345 S    
O8    C3    1.298608 A    
C6    C29   1.485670 S    
C10   C11   1.408390 A    
O18   V4    2.006772 S    
V4    O20   2.156497 S    
O9    V2    2.006738 S    
O7    V2    1.707225 S    
C24   H13   1.082709 S    
O3    V1    2.005693 S    
V1    O10   1.709595 S    
V3    O20   1.709669 S    
C13   C14   1.404046 A    
C19   H8    1.082732 S    
O15   C29   1.298220 A    
C5    H1    1.085787 S    
C16   C17   1.409143 A    
C15   H14   1.082717 S    
N2    O23   1.299902 A    
C7    C8    1.345415 D    
N1    O22   1.301617 A    
C12   N2    1.430584 S    
