data_mof_unit_44455.cif
_audit_creation_date              2012-12-10T16:35:59-0500
_audit_creation_method            fapswitch 2.2
_symmetry_space_group_name_H-M    P1
_symmetry_Int_Tables_number       1
_space_group_crystal_system       triclinic
_cell_length_a                    14.204536
_cell_length_b                    16.462364
_cell_length_c                    12.936193
_cell_angle_alpha                 89.668671
_cell_angle_beta                  106.503083
_cell_angle_gamma                 90.055326
_cell_volume                      2900.33664575

loop_
_atom_site_label
_atom_site_type_symbol
_atom_type_description
_atom_site_fract_x
_atom_site_fract_y
_atom_site_fract_z
_atom_type_partial_charge
C1    C     C_R   0.314842 0.844634 0.476908 0.702085
C2    C     C_R   0.315248 0.155936 0.477052 0.714726
C3    C     C_R   0.814813 0.344649 0.476895 0.696428
C4    C     C_R   0.815219 0.655879 0.477413 0.712784
C5    C     C_2   0.236884 0.785982 0.463614 0.371027
C6    C     C_2   0.238520 0.215858 0.462746 0.367743
C7    C     C_2   0.736783 0.286048 0.463681 0.374911
C8    C     C_2   0.737579 0.714801 0.464860 0.367031
C9    C     C_R   0.685231 0.156463 0.522393 0.921123
C10   C     C_R   0.685304 0.843625 0.522794 0.917322
C11   C     C_R   0.185212 0.656489 0.522447 0.922641
C12   C     C_R   0.185287 0.343610 0.522808 0.917127
C13   C     C_R   0.546345 0.999546 0.786923 0.788778
C14   C     C_R   0.046364 0.499409 0.786905 0.786548
C15   C     C_R   0.454833 0.000308 0.213534 0.755572
C16   C     C_R   0.954809 0.500327 0.213560 0.758627
C17   C     C_2   0.449905 0.001624 0.096788 0.301688
C18   C     C_2   0.949827 0.501789 0.096837 0.304977
C19   C     C_2   0.511951 0.051482 0.063239 0.305097
C20   C     C_2   0.012922 0.550795 0.063750 0.306528
C21   C     C_2   0.561676 0.002542 0.906082 0.213220
C22   C     C_2   0.061856 0.501969 0.906084 0.213951
C23   C     C_2   0.505716 0.054402 0.944666 0.337202
C24   C     C_2   0.006615 0.554137 0.945174 0.337039
C25   C     C_2   0.757973 0.219473 0.526899 -0.444444
C26   C     C_2   0.759126 0.781640 0.526444 -0.441937
C27   C     C_2   0.257992 0.719468 0.526945 -0.439360
C28   C     C_2   0.256745 0.278844 0.531386 -0.443368
H1    H     H_    0.330727 0.711299 0.582987 0.116609
H2    H     H_    0.324958 0.281731 0.596254 0.115780
H3    H     H_    0.830641 0.211416 0.583125 0.112722
H4    H     H_    0.833026 0.791339 0.578927 0.115493
O1    O     O_3   0.500010 0.000000 0.500000 -0.493700
O2    O     O_3   0.000010 0.500000 0.500000 -0.494025
O3    O     O_R   0.376880 0.837120 0.424150 -0.648429
O4    O     O_R   0.376880 0.162880 0.424150 -0.631250
O5    O     O_R   0.876880 0.337120 0.424150 -0.655481
O6    O     O_R   0.876880 0.662880 0.424150 -0.655435
O7    O     O_R   0.603010 0.162890 0.452470 -0.553245
O8    O     O_R   0.603010 0.837110 0.452470 -0.565253
O9    O     O_R   0.103010 0.662890 0.452470 -0.552916
O10   O     O_R   0.103010 0.337110 0.452470 -0.564589
O11   O     O_R   0.316670 0.095240 0.537470 -0.654511
O12   O     O_R   0.316670 0.904760 0.537470 -0.648000
O13   O     O_R   0.816670 0.595240 0.537470 -0.628262
O14   O     O_R   0.816670 0.404760 0.537470 -0.647016
O15   O     O_R   0.703490 0.904800 0.585920 -0.662985
O16   O     O_R   0.703490 0.095200 0.585920 -0.658328
O17   O     O_R   0.203490 0.404800 0.585920 -0.662020
O18   O     O_R   0.203490 0.595200 0.585920 -0.656575
O19   O     O_R   0.458050 0.000000 0.725250 -0.578763
O20   O     O_R   0.958050 0.500000 0.725250 -0.578883
O21   O     O_R   0.461630 0.932310 0.264690 -0.647117
O22   O     O_R   0.461630 0.067690 0.264690 -0.609490
O23   O     O_R   0.961630 0.432310 0.264690 -0.637142
O24   O     O_R   0.961630 0.567690 0.264690 -0.614510
O25   O     O_R   0.618750 0.000000 0.745380 -0.684168
O26   O     O_R   0.118750 0.500000 0.745380 -0.685086
Zn1   Zn    Zn3+2 0.485630 0.096680 0.411850 1.025850
Zn2   Zn    Zn3+2 0.485630 0.903320 0.411850 0.988074
Zn3   Zn    Zn3+2 0.985630 0.596680 0.411850 1.016501
Zn4   Zn    Zn3+2 0.985630 0.403320 0.411850 0.989657
Zn5   Zn    Zn3+2 0.399590 0.000000 0.573760 0.989070
Zn6   Zn    Zn3+2 0.899590 0.500000 0.573760 0.996937
Zn7   Zn    Zn3+2 0.629190 0.000000 0.602520 0.957126
Zn8   Zn    Zn3+2 0.129190 0.500000 0.602520 0.958409
O27   O     O_3   0.449315 0.112150 0.873640 -0.633006
C29   C     C_3   0.392554 0.161912 0.921349 0.111467
H5    H     H_    0.440557 0.199493 0.986589 0.151742
H6    H     H_    0.342021 0.124737 0.953783 0.159389
C30   C     C_3   0.330491 0.218754 0.835827 -0.828537
H7    H     H_    0.283925 0.183093 0.767625 0.268203
H8    H     H_    0.282208 0.255807 0.870959 0.203841
H9    H     H_    0.378679 0.259883 0.805249 0.249082
O28   O     O_3   0.949929 0.611820 0.874287 -0.631454
C31   C     C_3   0.896054 0.663525 0.923122 0.106128
H10   H     H_    0.946222 0.700808 0.987033 0.149242
H11   H     H_    0.845529 0.628005 0.957576 0.158513
C32   C     C_3   0.834181 0.720648 0.837794 -0.816003
H12   H     H_    0.784719 0.685140 0.771441 0.270881
H13   H     H_    0.788836 0.759938 0.874110 0.202039
H14   H     H_    0.882418 0.759577 0.804217 0.248973
O29   O     O_3   0.574331 0.102722 0.138434 -0.622840
C33   C     C_3   0.652881 0.133104 0.102815 0.070553
H15   H     H_    0.625463 0.174149 0.031998 0.138849
H16   H     H_    0.696289 0.082562 0.082485 0.167006
C34   C     C_3   0.721117 0.181907 0.192919 -0.781523
H17   H     H_    0.749600 0.143109 0.265647 0.255041
H18   H     H_    0.783959 0.205307 0.166475 0.196393
H19   H     H_    0.680704 0.234064 0.213463 0.274316
O30   O     O_3   0.076860 0.600535 0.139688 -0.623764
C35   C     C_3   0.155974 0.629945 0.104300 0.068707
H20   H     H_    0.129429 0.672509 0.034994 0.136675
H21   H     H_    0.197488 0.579009 0.081805 0.168802
C36   C     C_3   0.226419 0.675950 0.195759 -0.778938
H22   H     H_    0.254722 0.635211 0.266550 0.255441
H23   H     H_    0.289254 0.699263 0.169219 0.197080
H24   H     H_    0.187834 0.727954 0.219492 0.273099
O31   O     O_3   0.619826 0.946308 0.977558 -0.637540
C37   C     C_3   0.706645 0.927062 0.950636 0.103441
H25   H     H_    0.744403 0.982935 0.933963 0.146729
H26   H     H_    0.689902 0.885857 0.879937 0.162651
C38   C     C_3   0.776750 0.883166 0.045476 -0.841996
H27   H     H_    0.742768 0.825978 0.063462 0.265296
H28   H     H_    0.845911 0.868216 0.025813 0.206600
H29   H     H_    0.794396 0.922546 0.117902 0.258510
O32   O     O_3   0.119462 0.445155 0.977079 -0.635740
C39   C     C_3   0.205603 0.424833 0.949383 0.098159
H30   H     H_    0.244315 0.480256 0.933023 0.146889
H31   H     H_    0.187717 0.384021 0.878258 0.161046
C40   C     C_3   0.275202 0.379829 0.043515 -0.825738
H32   H     H_    0.240253 0.323024 0.061136 0.269639
H33   H     H_    0.343874 0.364080 0.023281 0.203191
H34   H     H_    0.293918 0.418792 0.116351 0.259919
O33   O     O_3   0.391926 0.947534 0.022237 -0.626688
C41   C     C_3   0.302735 0.926402 0.044318 0.107370
H35   H     H_    0.313506 0.900214 0.125983 0.143698
H36   H     H_    0.268275 0.877146 0.987888 0.181226
C42   C     C_3   0.230216 0.997283 0.024216 -0.957261
H37   H     H_    0.216254 0.019805 0.940137 0.279342
H38   H     H_    0.159651 0.976508 0.036262 0.229259
H39   H     H_    0.259108 0.047590 0.081186 0.232199
O34   O     O_3   0.890403 0.448822 0.021791 -0.625427
C43   C     C_3   0.801001 0.428925 0.044186 0.111681
H40   H     H_    0.811607 0.402491 0.125720 0.142279
H41   H     H_    0.765270 0.380258 0.987414 0.181952
C44   C     C_3   0.730086 0.500908 0.025074 -0.961736
H42   H     H_    0.716688 0.524021 0.941327 0.282031
H43   H     H_    0.659048 0.481096 0.036811 0.228804
H44   H     H_    0.760107 0.550544 0.082762 0.228395
O35   O     O_3   0.642266 0.298716 0.394051 -0.574507
C45   C     C_3   0.632699 0.371572 0.333435 0.092852
H45   H     H_    0.686958 0.374063 0.286015 0.109535
H46   H     H_    0.642039 0.425118 0.387497 0.148770
C46   C     C_3   0.530396 0.375394 0.254489 -0.808245
H47   H     H_    0.474052 0.374105 0.298975 0.267714
H48   H     H_    0.521965 0.432423 0.206431 0.193272
H49   H     H_    0.518750 0.322823 0.198816 0.260767
O36   O     O_3   0.640684 0.697081 0.406803 -0.575932
C47   C     C_3   0.635215 0.643341 0.320437 0.118170
H50   H     H_    0.658353 0.581130 0.351348 0.116512
H51   H     H_    0.681615 0.665078 0.269400 0.130690
C48   C     C_3   0.529411 0.638935 0.250153 -0.798697
H52   H     H_    0.503762 0.700184 0.217751 0.267371
H53   H     H_    0.524209 0.597090 0.181724 0.192422
H54   H     H_    0.481283 0.616007 0.298189 0.254747
O37   O     O_3   0.142125 0.799157 0.394905 -0.574803
C49   C     C_3   0.134514 0.868760 0.328373 0.096631
H55   H     H_    0.189921 0.867478 0.282368 0.111636
H56   H     H_    0.143651 0.924938 0.377665 0.137004
C50   C     C_3   0.033190 0.870552 0.247282 -0.818177
H57   H     H_    0.975685 0.874268 0.290019 0.263402
H58   H     H_    0.026755 0.924242 0.193374 0.191042
H59   H     H_    0.021485 0.814688 0.197459 0.264985
O38   O     O_3   0.155327 0.214766 0.373392 -0.572016
C51   C     C_3   0.128051 0.135207 0.336102 0.107623
H60   H     H_    0.123862 0.094230 0.403537 0.131539
H61   H     H_    0.181043 0.110350 0.295433 0.121044
C52   C     C_3   0.026976 0.137877 0.254590 -0.795185
H62   H     H_    0.028614 0.177387 0.185232 0.263772
H63   H     H_    0.004469 0.075733 0.224649 0.191718
H64   H     H_    0.972251 0.162242 0.292992 0.260654

loop_
_geom_bond_atom_site_label_1
_geom_bond_atom_site_label_2
_ccdc_geom_bond_type
C25   H3    S    
C48   H54   S    
C34   H17   S    
C26   H4    S    
C5    O37   S    
C46   H49   S    
C36   H22   S    
C8    C26   D    
C40   H32   S    
C31   C32   S    
O9    Zn3   S    
C4    C8    S    
O4    Zn1   S    
O2    Zn8   S    
C44   H43   S    
O5    Zn4   S    
C36   H24   S    
O1    Zn7   S    
O34   C43   S    
C41   H35   S    
C17   O33   S    
C12   C28   S    
C8    O36   S    
C1    C5    S    
C15   O21   A    
C51   H60   S    
C31   H11   S    
C3    C7    S    
C45   C46   S    
C21   O31   S    
C27   H1    S    
C22   O32   S    
O23   Zn4   S    
C48   H53   S    
O2    Zn4   S    
C39   H30   S    
C10   O8    A    
C50   H59   S    
C23   O27   S    
C35   H20   S    
C12   O10   A    
O37   C49   S    
C13   O19   A    
O26   Zn8   S    
C9    O7    A    
C14   O20   A    
C52   H62   S    
C41   H36   S    
C29   H5    S    
C50   H57   S    
C52   H63   S    
O16   Zn7   S    
C38   H29   S    
O10   Zn4   S    
C7    O35   S    
C6    O38   S    
C18   O34   S    
O22   Zn1   S    
O6    Zn3   S    
C10   C26   S    
C50   H58   S    
O1    Zn1   S    
C5    C27   D    
C2    C6    S    
C19   O29   S    
O2    Zn6   S    
O21   Zn2   S    
C12   O17   A    
C4    O13   A    
C42   H38   S    
O12   Zn5   S    
C14   O26   A    
C20   O30   S    
C6    C28   D    
C10   O15   A    
O17   Zn8   S    
C9    C25   S    
O27   C29   S    
C15   O22   A    
C20   C24   S    
C46   H47   S    
C49   C50   S    
O19   Zn5   S    
C47   H50   S    
C40   H33   S    
O20   Zn6   S    
O25   Zn7   S    
O30   C35   S    
C32   H13   S    
C45   H45   S    
O2    Zn3   S    
O14   Zn6   S    
O3    Zn2   S    
C28   H2    S    
C37   C38   S    
C19   C23   S    
O28   C31   S    
C16   O24   A    
C30   H9    S    
C1    O12   A    
O29   C33   S    
C11   C27   S    
C2    O11   A    
O1    Zn5   S    
O7    Zn1   S    
C37   H26   S    
C52   H64   S    
C13   C21   S    
C38   H28   S    
C39   C40   S    
C33   H15   S    
C47   C48   S    
O18   Zn8   S    
C43   C44   S    
C45   H46   S    
C4    O6    A    
O1    Zn2   S    
C34   H18   S    
C22   C24   D    
O32   C39   S    
O35   C45   S    
C38   H27   S    
C1    O3    A    
C43   H41   S    
C42   H39   S    
C2    O4    A    
C46   H48   S    
C36   H23   S    
C3    O14   A    
C51   C52   S    
C49   H56   S    
C32   H14   S    
O36   C47   S    
C41   C42   S    
C24   O28   S    
C15   C17   S    
C47   H51   S    
C33   C34   S    
O13   Zn6   S    
C7    C25   D    
O31   C37   S    
C14   C22   S    
C21   C23   D    
C48   H52   S    
C44   H44   S    
C30   H7    S    
C11   O18   A    
C31   H10   S    
C35   H21   S    
C29   C30   S    
C51   H61   S    
C37   H25   S    
C17   C19   D    
C39   H31   S    
C11   O9    A    
C40   H34   S    
C18   C20   D    
C49   H55   S    
C35   C36   S    
C16   O23   A    
C32   H12   S    
O8    Zn2   S    
C13   O25   A    
C3    O5    A    
C9    O16   A    
C16   C18   S    
C42   H37   S    
O11   Zn5   S    
C34   H19   S    
C30   H8    S    
O38   C51   S    
C29   H6    S    
O24   Zn3   S    
C33   H16   S    
O33   C41   S    
O15   Zn7   S    
C44   H42   S    
C43   H40   S    
