data_mof_unit_61240.cif
_audit_creation_date              2012-12-10T19:21:17-0500
_audit_creation_method            fapswitch 2.2
_symmetry_space_group_name_H-M    P1
_symmetry_Int_Tables_number       1
_space_group_crystal_system       triclinic
_cell_length_a                    15.749772
_cell_length_b                    14.956638
_cell_length_c                    19.247452
_cell_angle_alpha                 90.20634
_cell_angle_beta                  90.141317
_cell_angle_gamma                 89.856859
_cell_volume                      4533.94258122

loop_
_atom_site_label
_atom_site_type_symbol
_atom_type_description
_atom_site_fract_x
_atom_site_fract_y
_atom_site_fract_z
_atom_type_partial_charge
C1    C     C_R   0.337877 0.500097 0.500139 0.936716
C2    C     C_R   0.507883 0.496835 0.069689 0.352328
C3    C     C_R   0.565263 0.548164 0.817294 -0.176129
C4    C     C_R   0.441405 0.451869 0.817986 -0.175830
C5    C     C_R   0.564289 0.548789 0.745244 0.219476
C6    C     C_R   0.439491 0.452151 0.745988 0.217743
C7    C     C_R   0.501248 0.500540 0.709445 -0.168560
C8    C     C_R   0.504166 0.499623 0.853955 -0.026211
C9    C     C_3   0.048787 0.579796 0.543854 -0.396073
C10   C     C_3   0.049397 0.411878 0.531557 -0.380136
C11   C     C_3   0.951392 0.411722 0.531485 -0.397792
C12   C     C_3   0.950771 0.579654 0.543767 -0.379780
C13   C     C_1   0.751039 0.499796 0.499960 -0.162912
C14   C     C_3   0.082446 0.500283 0.500073 0.340745
C15   C     C_3   0.917563 0.500019 0.499948 0.351627
C16   C     C_R   0.500201 0.499719 0.365440 0.940939
C17   C     C_3   0.950793 0.508866 0.424661 -0.404806
C18   C     C_3   0.048809 0.509023 0.424735 -0.387482
C19   C     C_1   0.826273 0.499862 0.499911 -0.118215
C20   C     C_1   0.173777 0.500367 0.500138 -0.107809
C21   C     C_1   0.249040 0.500301 0.500158 -0.139738
C22   C     C_3   0.431001 0.052508 0.547640 -0.485032
C23   C     C_3   0.431369 0.948235 0.547885 -0.503477
C24   C     C_3   0.587731 0.052805 0.522727 0.405776
C25   C     C_3   0.588116 0.947211 0.522495 0.392523
C26   C     C_3   0.499973 0.089747 0.498056 0.116851
C27   C     C_3   0.500197 0.910234 0.498120 0.111128
C28   C     C_3   0.481172 0.947522 0.424402 -0.340374
C29   C     C_3   0.481315 0.051839 0.424313 -0.378540
C30   C     C_1   0.499011 0.809387 0.498272 0.078248
C31   C     C_1   0.498947 0.190613 0.498233 0.078749
C32   C     C_R   0.662257 0.499917 0.500072 0.918504
C33   C     C_R   0.500283 0.500168 0.634509 0.968366
C34   C     C_R   0.551348 0.562890 0.254599 0.464839
C35   C     C_R   0.460718 0.430286 0.253335 0.460910
C36   C     C_R   0.552656 0.561989 0.182386 -0.254487
C37   C     C_R   0.461988 0.431046 0.181017 -0.262973
C38   C     C_R   0.507984 0.496389 0.145399 -0.062239
C39   C     C_R   0.503230 0.498372 0.290106 -0.272538
C40   C     C_R   0.505809 0.498574 0.929616 0.327052
H1    H     H_    0.926830 0.571888 0.400944 0.166749
H2    H     H_    0.927286 0.452315 0.392192 0.170108
H3    H     H_    0.443107 0.923953 0.601647 0.186756
H4    H     H_    0.442091 0.077740 0.601351 0.189836
H5    H     H_    0.595776 0.075693 0.577830 -0.007973
H6    H     H_    0.597337 0.925759 0.577705 -0.000799
H7    H     H_    0.418539 0.076636 0.405871 0.160012
H8    H     H_    0.418197 0.923072 0.406276 0.164580
H9    H     H_    0.529556 0.076294 0.386833 0.206976
H10   H     H_    0.529106 0.922258 0.386746 0.217924
H11   H     H_    0.367285 0.076977 0.531203 0.211610
H12   H     H_    0.367673 0.923367 0.531937 0.208172
H13   H     H_    0.588271 0.613199 0.155611 0.183922
H14   H     H_    0.425966 0.380954 0.152967 0.178258
H15   H     H_    0.614562 0.584768 0.844401 0.188029
H16   H     H_    0.393162 0.414861 0.845620 0.188553
H17   H     H_    0.927223 0.574714 0.598111 0.187822
H18   H     H_    0.927877 0.403956 0.585628 0.179492
H19   H     H_    0.072548 0.574895 0.598238 0.182837
H20   H     H_    0.073187 0.404175 0.585732 0.187481
H21   H     H_    0.073206 0.353772 0.500910 0.173772
H22   H     H_    0.072161 0.644084 0.522175 0.171217
H23   H     H_    0.927894 0.353534 0.500812 0.168440
H24   H     H_    0.926832 0.643864 0.522032 0.168508
H25   H     H_    0.072167 0.572129 0.401057 0.171932
H26   H     H_    0.072609 0.452551 0.392293 0.175892
N1    N     N_R   0.456238 0.440827 0.033870 -0.175519
N2    N     N_R   0.558661 0.553657 0.034293 -0.176266
N3    N     N_R   0.455189 0.441700 0.965029 -0.174294
N4    N     N_R   0.557699 0.554450 0.965382 -0.173625
N5    N     N_1   0.498630 0.731150 0.498610 -0.080458
N6    N     N_1   0.498630 0.268850 0.498610 -0.081996
O1    O     O_R   0.377210 0.574260 0.500070 -0.628212
O2    O     O_R   0.377210 0.425740 0.500070 -0.588147
O3    O     O_R   0.500060 0.574250 0.398210 -0.575964
O4    O     O_R   0.500060 0.425750 0.398210 -0.600064
O5    O     O_R   0.622930 0.574200 0.500080 -0.597844
O6    O     O_R   0.622930 0.425800 0.500080 -0.625870
O7    O     O_R   0.500080 0.574210 0.601940 -0.590452
O8    O     O_R   0.500080 0.425790 0.601940 -0.589015
Zn1   Zn    Zn3+2 0.500090 0.599130 0.500100 1.019376
Zn2   Zn    Zn3+2 0.500090 0.400870 0.500100 1.013831
O9    O     O_3   0.594620 0.629236 0.290096 -0.575079
C41   C     C_3   0.678468 0.599597 0.301912 -0.283892
H27   H     H_    0.679816 0.537234 0.333333 0.130339
H28   H     H_    0.712739 0.651785 0.331884 0.196237
H29   H     H_    0.712989 0.589360 0.252109 0.155202
O10   O     O_3   0.410764 0.368970 0.288140 -0.588722
C42   C     C_3   0.448407 0.283484 0.282893 -0.259007
H30   H     H_    0.413966 0.237257 0.317812 0.181447
H31   H     H_    0.516071 0.284191 0.299938 0.160439
H32   H     H_    0.443039 0.256427 0.229210 0.151064
O11   O     O_3   0.652362 0.086412 0.478475 -0.566712
C43   C     C_3   0.723103 0.115435 0.517484 -0.263762
H33   H     H_    0.706538 0.175508 0.548922 0.151621
H34   H     H_    0.774423 0.134469 0.481099 0.189647
H35   H     H_    0.747933 0.061340 0.551499 0.152848
O12   O     O_3   0.652866 0.914540 0.477502 -0.563820
C44   C     C_3   0.709498 0.857523 0.513161 -0.270309
H36   H     H_    0.675951 0.798239 0.534303 0.177834
H37   H     H_    0.742898 0.894063 0.555528 0.147810
H38   H     H_    0.758112 0.833067 0.476029 0.189579
Br1   Br    Br    0.653050 0.612662 0.698387 -0.542869
Br2   Br    Br    0.348925 0.388862 0.700298 -0.526870

loop_
_geom_bond_atom_site_label_1
_geom_bond_atom_site_label_2
_ccdc_geom_bond_type
C5    Br1   S    
C1    C21   S    
O11   C43   S    
C16   O3    A    
C14   C18   S    
C13   C32   S    
C10   H20   S    
C41   H29   S    
C4    C8    A    
C30   N5    T    
C29   H9    S    
C18   H25   S    
C15   C19   S    
C40   N4    A    
C29   H7    S    
C1    O2    A    
C28   C29   S    
C35   C37   A    
C41   H28   S    
C11   H23   S    
C12   H24   S    
C23   H3    S    
O6    Zn2   S    
C17   H2    S    
C36   H13   S    
C32   O5    A    
C3    H15   S    
C22   H4    S    
O9    C41   S    
C24   H5    S    
C23   C27   S    
C42   H31   S    
C11   H18   S    
C11   C15   S    
C26   C31   S    
C4    H16   S    
C27   C30   S    
C7    C33   S    
C28   H10   S    
O2    Zn2   S    
O1    Zn1   S    
C40   N3    A    
C13   C19   T    
C34   C39   A    
C14   C20   S    
C24   C25   S    
O8    Zn2   S    
C3    C8    A    
C10   C14   S    
O4    Zn2   S    
C5    C7    A    
O3    Zn1   S    
C43   H35   S    
C9    H22   S    
C9    H19   S    
C35   C39   A    
C9    C14   S    
C37   C38   A    
C35   O10   S    
C2    C38   S    
C44   H36   S    
C12   C15   S    
O5    Zn1   S    
C20   C21   T    
C17   C18   S    
C41   H27   S    
C42   H32   S    
C43   H34   S    
C12   H17   S    
C4    C6    A    
C31   N6    T    
C44   H37   S    
C2    N1    A    
C6    Br2   S    
C10   H21   S    
C18   H26   S    
C34   O9    S    
C37   H14   S    
O7    Zn1   S    
C15   C17   S    
C28   H8    S    
C16   O4    A    
C33   O7    A    
C24   C26   S    
C3    C5    A    
C33   O8    A    
C6    C7    A    
C25   C27   S    
C2    N2    A    
C1    O1    A    
C36   C38   A    
C24   O11   S    
C23   H12   S    
C34   C36   A    
C43   H33   S    
C9    C12   S    
C17   H1    S    
C10   C11   S    
C16   C39   S    
C32   O6    A    
C25   O12   S    
C44   H38   S    
O10   C42   S    
C26   C29   S    
N2    N4    A    
O12   C44   S    
C22   C26   S    
C27   C28   S    
C22   C23   S    
C8    C40   S    
N1    N3    A    
C42   H30   S    
C25   H6    S    
N6    Zn2   S    
C22   H11   S    
N5    Zn1   S    
