data_mof_unit_23847.cif
_audit_creation_date              2013-03-05T15:49:57-0500
_audit_creation_method            fapswitch 2.2
_symmetry_space_group_name_H-M    P1
_symmetry_Int_Tables_number       1
_space_group_crystal_system       triclinic
_cell_length_a                    13.566392
_cell_length_b                    13.592028
_cell_length_c                    27.680176
_cell_angle_alpha                 90.40502
_cell_angle_beta                  90.23748
_cell_angle_gamma                 119.956719
_cell_volume                      4421.90546171

loop_
_atom_site_label
_atom_site_type_symbol
_atom_site_description
_atom_site_fract_x
_atom_site_fract_y
_atom_site_fract_z
_atom_type_partial_charge
O1    O     O_R   0.302900 0.805360 0.446400 -0.504233
O2    O     O_R   0.522090 0.841370 0.450730 -0.493460
C1    C     C_R   0.619441 0.898399 0.431258 0.545811
O3    O     O_R   0.693280 0.995650 0.447220 -0.503158
O4    O     O_R   0.657260 0.178740 0.451050 -0.493177
C2    C     C_R   0.599659 0.218437 0.431281 0.544634
O5    O     O_R   0.502640 0.195380 0.446850 -0.504123
O6    O     O_R   0.319630 0.976590 0.450330 -0.492374
C3    C     C_R   0.279480 0.878838 0.430540 0.545458
O7    O     O_R   0.303680 0.807790 0.552740 -0.514070
O8    O     O_R   0.522820 0.843620 0.549310 -0.504072
C4    C     C_R   0.620475 0.900931 0.569063 0.541286
O9    O     O_R   0.694060 0.998080 0.553560 -0.521808
O10   O     O_R   0.657980 0.180990 0.549630 -0.507513
C5    C     C_R   0.601588 0.222276 0.568677 0.539191
O11   O     O_R   0.503420 0.197810 0.553190 -0.514961
O12   O     O_R   0.320350 0.978840 0.548910 -0.504315
C6    C     C_R   0.281326 0.882386 0.568652 0.544019
Cr1   Cr    Cr6+3 0.417720 0.831920 0.499820 1.027499
Cr2   Cr    Cr6+3 0.668190 0.085770 0.500360 1.026291
Cr3   Cr    Cr6+3 0.414060 0.082260 0.499840 1.033339
O13   O     O_3   0.499990 0.999990 0.500010 -0.249252
C7    C     C_1   0.630974 0.264339 0.383697 -0.010634
C8    C     C_R   0.722907 0.420966 0.272737 -0.103335
C9    C     C_R   0.733727 0.438498 0.222844 -0.100959
C10   C     C_R   0.631804 0.234872 0.208620 -0.102232
C11   C     C_R   0.621093 0.217341 0.258509 -0.100818
C12   C     C_R   0.666008 0.310283 0.290668 0.042127
C13   C     C_R   0.687724 0.345549 0.190674 0.042298
C14   C     C_1   0.694436 0.365468 0.139465 -0.051804
C15   C     C_1   0.650090 0.290252 0.341795 -0.054530
C16   C     C_1   0.701787 0.390921 0.097461 -0.004693
H1    H     H_    0.757668 0.493407 0.297184 0.103624
H2    H     H_    0.776672 0.524524 0.209318 0.097757
H3    H     H_    0.595419 0.162428 0.184160 0.106011
H4    H     H_    0.576643 0.131313 0.272015 0.098376
C17   C     C_1   0.232439 0.862808 0.382709 -0.010635
C18   C     C_R   0.276085 0.895874 0.257517 -0.100751
C19   C     C_R   0.257076 0.886489 0.207547 -0.102698
C20   C     C_R   0.053480 0.781691 0.221145 -0.100591
C21   C     C_R   0.072486 0.790965 0.271108 -0.103246
C22   C     C_R   0.183904 0.847662 0.289409 0.042135
C23   C     C_R   0.145669 0.828905 0.189245 0.042299
C24   C     C_1   0.124173 0.813858 0.137967 -0.052090
C25   C     C_1   0.205452 0.854274 0.340658 -0.054478
C26   C     C_1   0.096948 0.794493 0.095933 -0.006799
H5    H     H_    0.362686 0.939633 0.271300 0.098596
H6    H     H_    0.328969 0.922915 0.183311 0.105563
H7    H     H_    0.966906 0.736572 0.207357 0.098001
H8    H     H_    0.000615 0.753044 0.295332 0.103484
C27   C     C_1   0.634433 0.865948 0.383613 -0.010519
C28   C     C_R   0.701887 0.772434 0.272744 -0.103194
C29   C     C_R   0.709553 0.760589 0.222861 -0.100703
C30   C     C_R   0.607460 0.861869 0.208272 -0.102261
C31   C     C_R   0.599693 0.873612 0.258150 -0.100636
C32   C     C_R   0.647329 0.829429 0.290505 0.042008
C33   C     C_R   0.662831 0.805692 0.190504 0.042216
C34   C     C_1   0.675898 0.796813 0.139306 -0.052006
C35   C     C_1   0.642006 0.846129 0.341673 -0.054389
C36   C     C_1   0.693189 0.787043 0.097313 -0.006333
H9    H     H_    0.739299 0.738236 0.297327 0.103900
H10   H     H_    0.752971 0.717312 0.209500 0.098221
H11   H     H_    0.571433 0.897454 0.183686 0.105999
H12   H     H_    0.557535 0.918149 0.271503 0.098697
C37   C     C_R   0.639245 0.274104 0.616214 0.019176
C38   C     C_R   0.708413 0.244838 0.643259 -0.124530
C39   C     C_R   0.720525 0.264336 0.692402 -0.113676
C40   C     C_R   0.668112 0.318265 0.715169 0.050821
C41   C     C_R   0.607942 0.357620 0.687366 -0.078618
C42   C     C_R   0.591808 0.333759 0.638085 -0.107950
C43   C     C_R   0.577486 0.317067 0.792972 -0.095792
C44   C     C_R   0.584070 0.334934 0.842405 -0.154526
C45   C     C_R   0.773289 0.356081 0.843787 0.208823
C46   C     C_R   0.768019 0.344018 0.793742 -0.112472
C47   C     C_R   0.671753 0.327849 0.767955 -0.009995
C48   C     C_R   0.684810 0.362916 0.867647 0.008136
H13   H     H_    0.745246 0.197515 0.627429 0.140345
H14   H     H_    0.500012 0.299057 0.774215 0.188464
H15   H     H_    0.513253 0.335412 0.860122 0.152994
H16   H     H_    0.765343 0.230714 0.712650 0.108727
H17   H     H_    0.840388 0.349208 0.775113 0.139383
H18   H     H_    0.569742 0.402814 0.703937 0.112132
H19   H     H_    0.538605 0.357281 0.617632 0.131443
C49   C     C_R   0.235352 0.869541 0.617244 -0.019723
C50   C     C_R   0.272151 0.967432 0.646031 -0.107721
C51   C     C_R   0.256144 0.959408 0.695859 0.219795
C52   C     C_R   0.195826 0.850587 0.716630 0.009731
C53   C     C_R   0.154026 0.752849 0.687355 -0.165425
C54   C     C_R   0.174922 0.762196 0.638044 -0.140617
C55   C     C_R   0.193136 0.764309 0.795731 -0.098684
C56   C     C_R   0.158435 0.742960 0.843579 -0.101267
C57   C     C_R   0.083222 0.871387 0.837191 -0.118849
C58   C     C_R   0.116136 0.891091 0.789277 -0.065174
C59   C     C_R   0.169873 0.836585 0.768186 0.065980
C60   C     C_R   0.100934 0.794451 0.864227 0.018002
H20   H     H_    0.322606 0.050885 0.630483 0.173230
H21   H     H_    0.235261 0.722228 0.779773 0.120443
H22   H     H_    0.172655 0.683146 0.863789 0.160560
H23   H     H_    0.096358 0.945959 0.768177 0.135304
H24   H     H_    0.037701 0.911093 0.852046 0.140751
H25   H     H_    0.106248 0.669044 0.702882 0.125584
H26   H     H_    0.146897 0.685894 0.616434 0.136876
C61   C     C_R   0.638491 0.863073 0.615975 0.021073
C62   C     C_R   0.546193 0.771362 0.638671 -0.122309
C63   C     C_R   0.552054 0.751898 0.687428 -0.117130
C64   C     C_R   0.651019 0.822385 0.714071 0.034554
C65   C     C_R   0.746604 0.908191 0.690527 -0.120722
C66   C     C_R   0.740233 0.928821 0.641790 -0.128690
C67   C     C_R   0.709740 0.903539 0.797056 -0.109708
C68   C     C_R   0.722683 0.889903 0.845960 -0.116606
C69   C     C_R   0.613809 0.685260 0.835156 -0.123360
C70   C     C_R   0.602622 0.698862 0.786162 -0.121111
C71   C     C_R   0.653693 0.808051 0.766487 0.031409
C72   C     C_R   0.678148 0.780640 0.864901 0.021076
H27   H     H_    0.466451 0.719104 0.619698 0.135985
H28   H     H_    0.746598 0.988678 0.782891 0.120950
H29   H     H_    0.772131 0.964489 0.868450 0.150611
H30   H     H_    0.477121 0.685308 0.704706 0.110917
H31   H     H_    0.559351 0.623848 0.763357 0.107064
H32   H     H_    0.579780 0.599961 0.848849 0.136287
H33   H     H_    0.825199 0.961349 0.710104 0.111325
H34   H     H_    0.812793 0.999556 0.625045 0.130812
O14   O     O_R   0.819150 0.845650 0.033320 -0.498647
O15   O     O_R   0.006060 0.815720 0.028680 -0.493981
C73   C     C_R   0.049322 0.761132 0.048243 0.540992
O16   O     O_R   0.028100 0.664460 0.032550 -0.502208
O17   O     O_R   0.811290 0.477490 0.029660 -0.486152
C74   C     C_R   0.714366 0.435832 0.049739 0.547828
O18   O     O_R   0.638120 0.455970 0.034270 -0.504341
O19   O     O_R   0.667540 0.672320 0.030160 -0.493333
C75   C     C_R   0.723630 0.770737 0.049558 0.547503
O20   O     O_R   0.814460 0.840990 0.926980 -0.512585
O21   O     O_R   0.001710 0.811400 0.930110 -0.506978
C76   C     C_R   0.043952 0.755803 0.910575 0.537725
O22   O     O_R   0.023410 0.659800 0.926210 -0.486341
O23   O     O_R   0.806940 0.473170 0.931090 -0.439371
C77   C     C_R   0.706829 0.426028 0.913223 0.556324
O24   O     O_R   0.633420 0.451310 0.927930 -0.532932
O25   O     O_R   0.663190 0.668000 0.931580 -0.503010
C78   C     C_R   0.717061 0.765097 0.911942 0.540631
Cr4   Cr    Cr6+3 0.908000 0.821090 0.979770 1.042507
Cr5   Cr    Cr6+3 0.912420 0.571130 0.979880 1.107724
Cr6   Cr    Cr6+3 0.657970 0.566940 0.980940 1.035761
O26   O     O_3   0.826130 0.653050 0.980200 -0.266761
N1    N     N_R   0.869355 0.363844 0.869432 0.090138
O27   O     O_R   0.853812 0.307574 0.909202 -0.325296
O28   O     O_R   0.969547 0.412960 0.849784 -0.355481
N2    N     N_R   0.308115 0.061592 0.724862 0.061850
O29   O     O_R   0.321133 0.155928 0.707343 -0.382035
O30   O     O_R   0.356366 0.064565 0.766001 -0.345624

loop_
_geom_bond_atom_site_label_1
_geom_bond_atom_site_label_2
_geom_bond_distance
_ccdc_geom_bond_type
C43   C47   1.399324 A    
C52   C53   1.404143 A    
C58   C59   1.399251 A    
C54   H26   1.083286 S    
C21   C22   1.400017 A    
C26   C73   1.434411 S    
C69   C70   1.387897 A    
C44   C48   1.403522 A    
C74   O18   1.268446 A    
N1    O27   1.301549 A    
C55   C56   1.390738 A    
O4    Cr2   1.921359 S    
C48   C77   1.463660 S    
C40   C47   1.464436 S    
C4    O9    1.272564 A    
O8    Cr1   1.920715 S    
C10   C11   1.398771 A    
O11   Cr3   2.041555 S    
C73   O16   1.269330 A    
N2    O30   1.301375 A    
C18   C22   1.404102 A    
C44   H15   1.083339 S    
C51   N2    1.439513 S    
C28   H9    1.083488 S    
O4    C2    1.273935 A    
C50   H20   1.083655 S    
Cr6   O26   1.977082 S    
C30   H11   1.083497 S    
C34   C36   1.206230 T    
C5    O11   1.272393 A    
C5    C37   1.452778 S    
C52   C59   1.462153 S    
C36   C75   1.434850 S    
C45   C46   1.391093 A    
C62   C63   1.386682 A    
O23   Cr5   1.923579 S    
C41   H18   1.082683 S    
C67   H28   1.083090 S    
O25   Cr6   1.920617 S    
O22   Cr5   2.039180 S    
C40   C41   1.407631 A    
C6    C49   1.459510 S    
C65   C66   1.390918 A    
C61   C66   1.401893 A    
C72   C78   1.458879 S    
C58   H23   1.083496 S    
C55   H21   1.083422 S    
C67   C71   1.404342 A    
C9    H2    1.083727 S    
C38   C39   1.377377 A    
Cr3   O13   1.977706 S    
C68   H29   1.083392 S    
C70   C71   1.402440 A    
N1    O28   1.301552 A    
C24   C26   1.206004 T    
C55   C59   1.401500 A    
C20   C23   1.404039 A    
C9    C13   1.403784 A    
O1    Cr1   2.038375 S    
C46   C47   1.402439 A    
C64   C71   1.467979 S    
C39   C40   1.399185 A    
O10   Cr2   1.926091 S    
Cr1   O13   1.979326 S    
O1    C3    1.270056 A    
C8    C9    1.398942 A    
C4    C61   1.463928 S    
Cr4   O26   1.979253 S    
C1    C27   1.434852 S    
C51   C52   1.412459 A    
O6    C3    1.275363 A    
C19   C23   1.400071 A    
C50   C51   1.393698 A    
O16   Cr5   2.040662 S    
C60   C76   1.460025 S    
O12   Cr3   1.921885 S    
C1    O3    1.269496 A    
C45   N1    1.437881 S    
C69   H32   1.083560 S    
O17   Cr5   1.922875 S    
C7    C15   1.205682 T    
C23   C24   1.440286 S    
C13   C14   1.439689 S    
O19   Cr6   1.926090 S    
C62   H27   1.083176 S    
C29   H10   1.083736 S    
O7    Cr1   2.041003 S    
O8    C4    1.272100 A    
C31   H12   1.083745 S    
O14   Cr4   2.042343 S    
C31   C32   1.403833 A    
C3    C17   1.434476 S    
O12   C6    1.271615 A    
C49   C50   1.404565 A    
C42   H19   1.083199 S    
C18   H5    1.083904 S    
C2    O5    1.269244 A    
C20   C21   1.398993 A    
Cr2   O13   1.977129 S    
O21   C76   1.273233 A    
C45   C48   1.415169 A    
Cr5   O26   1.977873 S    
C63   H30   1.082865 S    
C27   C35   1.206238 T    
C49   C54   1.397704 A    
C65   H33   1.082980 S    
C46   H17   1.081823 S    
C17   C25   1.206022 T    
O17   C74   1.274929 A    
C21   H8    1.083680 S    
C61   C62   1.405420 A    
C28   C29   1.399282 A    
C57   H24   1.083303 S    
C77   O24   1.272312 A    
O20   Cr4   2.037581 S    
C38   H13   1.083627 S    
C68   C72   1.401066 A    
C30   C31   1.399152 A    
C29   C33   1.403886 A    
O9    Cr2   2.037291 S    
O14   C75   1.269490 A    
O2    Cr1   1.924712 S    
C12   C15   1.439727 S    
C53   H25   1.083624 S    
C39   H16   1.082105 S    
C8    C12   1.399785 A    
C66   H34   1.083098 S    
O23   C77   1.273006 A    
O6    Cr3   1.924112 S    
C70   H31   1.082919 S    
O25   C78   1.273391 A    
C76   O22   1.270226 A    
O18   Cr6   2.038565 S    
C11   H4    1.083744 S    
O20   C78   1.269425 A    
C63   C64   1.400546 A    
O21   Cr4   1.924118 S    
C8    H1    1.083511 S    
C32   C35   1.440639 S    
O24   Cr6   2.043193 S    
C16   C74   1.433851 S    
O2    C1    1.274763 A    
C43   C44   1.382718 A    
O5    Cr3   2.039800 S    
C67   C68   1.389848 A    
C14   C16   1.205656 T    
C33   C34   1.440624 S    
C18   C19   1.399167 A    
O7    C6    1.271163 A    
C2    C7    1.433914 S    
C57   C58   1.385866 A    
O19   C75   1.275388 A    
C69   C72   1.403323 A    
N2    O29   1.301458 A    
C57   C60   1.404198 A    
C56   H22   1.083183 S    
C41   C42   1.390775 A    
O15   Cr4   1.921303 S    
C56   C60   1.402955 A    
O3    Cr2   2.043275 S    
C28   C32   1.399961 A    
C10   H3    1.083527 S    
C53   C54   1.388976 A    
C10   C13   1.399736 A    
C37   C38   1.403693 A    
C64   C65   1.404926 A    
C11   C12   1.403709 A    
O10   C5    1.267305 A    
O15   C73   1.275194 A    
C37   C42   1.398392 A    
C22   C25   1.440287 S    
C43   H14   1.082075 S    
C20   H7    1.083885 S    
C19   H6    1.083661 S    
C30   C33   1.399916 A    
