data_mof_unit_19760.cif
_audit_creation_date              2012-12-10T17:37:19-0500
_audit_creation_method            fapswitch 2.2
_symmetry_space_group_name_H-M    P1
_symmetry_Int_Tables_number       1
_space_group_crystal_system       triclinic
_cell_length_a                    12.322137
_cell_length_b                    13.109972
_cell_length_c                    15.842405
_cell_angle_alpha                 77.875325
_cell_angle_beta                  101.038238
_cell_angle_gamma                 116.462203
_cell_volume                      2225.93840964

loop_
_atom_site_label
_atom_site_type_symbol
_atom_type_description
_atom_site_fract_x
_atom_site_fract_y
_atom_site_fract_z
_atom_type_partial_charge
C1    C     C_R   0.855040 0.286489 0.505280 0.804433
C2    C     C_3   0.998109 0.499829 0.916959 0.118581
C3    C     C_3   0.115815 0.552161 0.035875 -0.240868
C4    C     C_3   0.000199 0.499194 0.083039 0.122102
C5    C     C_3   0.050750 0.608930 0.960740 -0.216991
C6    C     C_3   0.935754 0.556661 0.009551 -0.120171
C7    C     C_1   0.998016 0.499718 0.825195 -0.011210
C8    C     C_1   0.000876 0.499376 0.174819 -0.053773
C9    C     C_R   0.273732 0.031970 0.396271 -0.304846
C10   C     C_R   0.227763 0.837142 0.468270 -0.149248
C11   C     C_R   0.818080 0.081100 0.542080 -0.290301
C12   C     C_R   0.999390 0.499781 0.659968 0.818602
C13   C     C_R   0.740905 0.963635 0.548502 0.533414
C14   C     C_R   0.616114 0.928609 0.524019 -0.258733
C15   C     C_R   0.567623 0.009346 0.484960 0.021285
C16   C     C_R   0.649999 0.126159 0.465162 0.073724
C17   C     C_R   0.440173 0.977976 0.463813 0.106096
C18   C     C_R   0.398687 0.060113 0.415329 0.105118
C19   C     C_R   0.482507 0.169790 0.385360 -0.217615
C20   C     C_R   0.606300 0.201654 0.408339 -0.175210
C21   C     C_R   0.352714 0.868431 0.491770 -0.338226
C22   C     C_R   0.186132 0.919458 0.420712 0.507624
C23   C     C_R   0.145145 0.714204 0.486849 0.828013
C24   C     C_R   0.773660 0.163395 0.502155 -0.173367
C25   C     C_R   0.345575 0.327076 0.637239 -0.293785
C26   C     C_R   0.759664 0.645377 0.383098 0.085831
C27   C     C_R   0.663903 0.678179 0.358033 -0.284838
C28   C     C_R   0.560745 0.623958 0.402381 -0.185208
C29   C     C_R   0.552002 0.535410 0.472623 0.004436
C30   C     C_R   0.653172 0.505489 0.496418 0.284667
C31   C     C_R   0.447294 0.475573 0.520086 -0.035553
C32   C     C_R   0.446281 0.387538 0.589845 0.173276
C33   C     C_R   0.545859 0.360384 0.612280 -0.272553
C34   C     C_R   0.000521 0.500112 0.340037 0.813115
C35   C     C_R   0.647068 0.418371 0.566986 -0.172821
C36   C     C_R   0.342572 0.498586 0.501677 0.021714
C37   C     C_R   0.245877 0.353936 0.615865 0.081716
C38   C     C_3   0.946805 0.389483 0.039443 -0.242909
C39   C     C_3   0.883095 0.447559 0.964259 -0.218423
C40   C     C_1   0.998391 0.499742 0.749612 -0.162071
C41   C     C_1   0.001052 0.499660 0.250423 -0.185427
C42   C     C_3   0.061220 0.443549 0.991195 0.571775
Cu1   Cu    Cu3+1 0.098270 0.475420 0.519690 0.938375
Cu2   Cu    Cu3+1 0.901730 0.524580 0.480310 0.936495
H1    H     H_    0.379825 0.805297 0.532980 0.179675
H2    H     H_    0.912520 0.107630 0.569516 0.168431
H3    H     H_    0.560449 0.837109 0.533328 0.155044
H4    H     H_    0.666604 0.285291 0.378816 0.173919
H5    H     H_    0.167723 0.307588 0.652125 0.130706
H6    H     H_    0.545869 0.293516 0.665857 0.152379
H7    H     H_    0.344078 0.259543 0.690553 0.139982
H8    H     H_    0.335284 0.563833 0.449841 0.122552
H9    H     H_    0.904813 0.299817 0.072944 0.133885
H10   H     H_    0.669710 0.745908 0.304090 0.139784
H11   H     H_    0.718676 0.391715 0.590050 0.206448
H12   H     H_    0.092310 0.698500 0.926983 0.152359
H13   H     H_    0.210934 0.594454 0.066467 0.135925
H14   H     H_    0.452302 0.231673 0.344214 0.141175
N1    N     N_R   0.246280 0.438200 0.549540 -0.181606
N2    N     N_R   0.754330 0.561180 0.450980 -0.211222
O1    O     O_R   0.972510 0.318130 0.524770 -0.583083
O2    O     O_R   0.806530 0.359650 0.491510 -0.608806
O3    O     O_R   0.082970 0.479240 0.637550 -0.565812
O4    O     O_R   0.916990 0.520750 0.604290 -0.597637
O5    O     O_R   0.193470 0.640350 0.508490 -0.595329
O6    O     O_R   0.027490 0.681870 0.475230 -0.535261
O7    O     O_R   0.083010 0.479250 0.395710 -0.581252
O8    O     O_R   0.917030 0.520760 0.362450 -0.589925
H15   H     H_    0.788083 0.405646 0.933367 0.151049
O9    O     O_3   0.783811 0.881686 0.587000 -0.589001
C43   C     C_3   0.859542 0.878312 0.532144 -0.235007
H16   H     H_    0.947825 0.956186 0.531874 0.166494
H17   H     H_    0.813776 0.868281 0.464630 0.163680
H18   H     H_    0.880047 0.802443 0.557387 0.211268
H19   H     H_    0.839145 0.687413 0.348164 0.154081
H20   H     H_    0.489455 0.652900 0.380261 0.133443
H21   H     H_    0.883817 0.603497 0.018832 0.140218
O10   O     O_3   0.125980 0.385186 0.975154 -0.574602
C44   C     C_3   0.174118 0.341667 0.054857 -0.333986
H22   H     H_    0.100446 0.278005 0.094438 0.152071
H23   H     H_    0.239497 0.412102 0.092258 0.156801
H24   H     H_    0.225029 0.296379 0.041230 0.193624
O11   O     O_3   0.060781 0.888245 0.404561 -0.579803
C45   C     C_3   0.027223 0.945625 0.325347 -0.390171
H25   H     H_    0.928291 0.897267 0.306447 0.176424
H26   H     H_    0.075988 0.949336 0.271610 0.165030
H27   H     H_    0.041305 0.032915 0.333557 0.171110
H28   H     H_    0.245636 0.098466 0.362199 0.138702

loop_
_geom_bond_atom_site_label_1
_geom_bond_atom_site_label_2
_ccdc_geom_bond_type
C3    C42   S    
C5    H12   S    
Cu2   O6    S    
C2    C7    S    
C45   H27   S    
C4    C8    S    
C36   N1    A    
C1    O2    A    
C27   H10   S    
Cu1   O3    S    
Cu2   O4    S    
C26   C27   A    
C30   C35   A    
C23   O6    A    
C16   C20   A    
C45   H26   S    
C38   C42   S    
C9    H28   S    
C38   C39   S    
C12   O4    A    
C9    C22   A    
C13   O9    S    
C15   C16   A    
C11   C24   A    
C18   C19   A    
C25   C37   A    
C2    C39   S    
C31   C32   A    
C30   N2    A    
C7    C40   T    
O9    C43   S    
C36   H8    S    
Cu1   N1    S    
C25   C32   A    
C19   H14   S    
C13   C14   A    
C34   C41   S    
C17   C18   A    
C21   H1    S    
C10   C21   A    
Cu2   N2    S    
C35   H11   S    
C45   H25   S    
C4    C6    S    
C34   O8    A    
C44   H23   S    
C12   O3    A    
O10   C44   S    
C6    H21   S    
Cu2   O2    S    
C33   H6    S    
C10   C22   A    
C17   C21   A    
C12   C40   S    
Cu1   Cu2   S    
C25   H7    S    
C29   C30   A    
C44   H24   S    
C37   H5    S    
O11   C45   S    
C14   C15   A    
Cu1   O5    S    
C26   H19   S    
C39   H15   S    
C20   H4    S    
C8    C41   T    
C37   N1    A    
C3    H13   S    
Cu1   O7    S    
C4    C38   S    
C42   O10   S    
Cu2   O8    S    
C2    C5    S    
C3    C4    S    
C28   H20   S    
Cu1   O1    S    
C43   H17   S    
C15   C17   A    
C28   C29   A    
C6    C39   S    
C3    C5    S    
C1    O1    A    
C34   O7    A    
C43   H18   S    
C14   H3    S    
C10   C23   S    
C22   O11   S    
C23   O5    A    
C19   C20   A    
C43   H16   S    
C29   C31   A    
C32   C33   A    
C11   C13   A    
C5    C6    S    
C38   H9    S    
C2    C42   S    
C33   C35   A    
C44   H22   S    
C9    C18   A    
C1    C24   S    
C16   C24   A    
C27   C28   A    
C31   C36   A    
C11   H2    S    
C26   N2    A    
