data_mof_unit_7705.cif
_audit_creation_date              2012-12-11T17:07:48-0500
_audit_creation_method            fapswitch 2.2
_symmetry_space_group_name_H-M    P1
_symmetry_Int_Tables_number       1
_space_group_crystal_system       triclinic
_cell_length_a                    17.18975
_cell_length_b                    17.246255
_cell_length_c                    17.373516
_cell_angle_alpha                 90.315614
_cell_angle_beta                  89.507811
_cell_angle_gamma                 89.965904
_cell_volume                      5150.26267212

loop_
_atom_site_label
_atom_site_type_symbol
_atom_type_description
_atom_site_fract_x
_atom_site_fract_y
_atom_site_fract_z
_atom_type_partial_charge
C1    C     C_R   0.394254 0.303272 0.897540 -0.089534
C2    C     C_R   0.171107 0.920865 0.356225 -0.097389
C3    C     C_R   0.683397 0.773832 0.345803 -0.159533
C4    C     C_R   0.139964 0.223961 0.800605 -0.167918
C5    C     C_R   0.234127 0.848215 0.782716 -0.155521
C6    C     C_R   0.860018 0.777291 0.799039 -0.160007
C7    C     C_R   0.682674 0.220344 0.656041 -0.180994
C8    C     C_R   0.638862 0.263101 0.708455 -0.126900
C9    C     C_R   0.814405 0.729251 0.845665 -0.149305
C10   C     C_R   0.272639 0.809154 0.840906 -0.166037
C11   C     C_R   0.184728 0.270580 0.849216 -0.158183
C12   C     C_R   0.636969 0.725865 0.299809 -0.166332
C13   C     C_R   0.104902 0.196562 0.396001 -0.079385
C14   C     C_R   0.815198 0.282157 0.160403 -0.176661
C15   C     C_R   0.361127 0.280669 0.302385 -0.174264
C16   C     C_R   0.182194 0.720153 0.156703 -0.160845
C17   C     C_2   0.887136 0.406658 0.613748 0.607061
C18   C     C_2   0.663567 0.976571 0.758961 0.581791
C19   C     C_2   0.043325 0.644924 0.730025 0.540467
C20   C     C_2   0.354621 0.050599 0.724713 0.565528
C21   C     C_2   0.896161 0.727872 0.227624 0.551166
C22   C     C_2   0.814225 0.033491 0.142305 0.632010
C23   C     C_2   0.118005 0.244408 0.216563 0.632034
C24   C     C_R   0.827525 0.080673 0.358073 -0.117774
C25   C     C_2   0.179724 0.966057 0.132245 0.630098
C26   C     C_2   0.384970 0.906629 0.109692 0.582503
C27   C     C_2   0.149491 0.456341 0.231649 0.583974
C28   C     C_2   0.609941 0.095397 0.121564 0.578944
C29   C     C_2   0.833936 0.525739 0.256921 0.560486
C30   C     C_2   0.382877 0.263146 0.716757 0.619227
C31   C     C_2   0.248473 0.584998 0.737367 0.618544
C32   C     C_2   0.597203 0.774512 0.736736 0.624646
C33   C     C_2   0.682246 0.467275 0.636410 0.639165
C34   C     C_R   0.893741 0.197819 0.601861 -0.140129
C35   C     C_R   0.171663 0.080041 0.641366 -0.137204
C36   C     C_R   0.092044 0.813727 0.626370 -0.151772
C37   C     C_R   0.829357 0.924585 0.643323 -0.146199
C38   C     C_3   0.802369 0.385374 0.613994 -0.335030
C39   C     C_3   0.681273 0.893104 0.740072 -0.325152
C40   C     C_3   0.128369 0.664031 0.720762 -0.307230
C41   C     C_R   0.671564 0.420378 0.856634 -0.116205
C42   C     C_3   0.322382 0.131359 0.716494 -0.338148
C43   C     C_3   0.864745 0.666023 0.280549 -0.330157
C44   C     C_3   0.742024 0.069182 0.177135 -0.340849
C45   C     C_3   0.133217 0.315906 0.264628 -0.361432
C46   C     C_3   0.252556 0.933342 0.167085 -0.340760
C47   C     C_3   0.300392 0.884658 0.111133 -0.327239
C48   C     C_3   0.180776 0.375387 0.220984 -0.334816
C49   C     C_3   0.694900 0.115946 0.120228 -0.318787
C50   C     C_3   0.814610 0.608355 0.237179 -0.251538
C51   C     C_3   0.368410 0.190069 0.762194 -0.339210
C52   C     C_R   0.603819 0.696687 0.895623 -0.071583
C53   C     C_3   0.178155 0.619789 0.777024 -0.344223
C54   C     C_3   0.631590 0.837380 0.786546 -0.354513
C55   C     C_3   0.754624 0.433144 0.670809 -0.335603
C56   C     C_R   0.393658 0.696217 0.895210 -0.049198
C57   C     C_R   0.303142 0.395216 0.894302 -0.032679
C58   C     C_R   0.579613 0.328112 0.857178 -0.077601
C59   C     C_R   0.696581 0.606515 0.893915 -0.100345
C60   C     C_R   0.419965 0.330374 0.144392 -0.110906
C61   C     C_R   0.301843 0.607311 0.100767 -0.157916
C62   C     C_R   0.579486 0.670629 0.144232 -0.104459
C63   C     C_R   0.302487 0.604317 0.899885 -0.086204
C64   C     C_R   0.697747 0.392938 0.100622 -0.140648
C65   C     C_R   0.919566 0.172965 0.358436 -0.080543
C66   C     C_R   0.803252 0.894456 0.394317 -0.089545
C67   C     C_R   0.079031 0.828863 0.356602 -0.114565
C68   C     C_R   0.197032 0.105919 0.394184 -0.114470
C69   C     C_R   0.914526 0.827097 0.641892 -0.107256
C70   C     C_R   0.801859 0.107471 0.600452 -0.139169
C71   C     C_R   0.080948 0.172686 0.642826 -0.113960
C72   C     C_R   0.185426 0.903028 0.627713 -0.141480
C73   C     C_R   0.318271 0.318378 0.878471 0.022349
C74   C     C_R   0.393570 0.697769 0.102037 -0.143272
C75   C     C_R   0.639288 0.360452 0.813801 0.074061
C76   C     C_R   0.680258 0.683141 0.876276 0.034655
C77   C     C_R   0.316405 0.679764 0.880842 0.008702
C78   C     C_R   0.315626 0.684791 0.115843 0.073780
C79   C     C_R   0.637982 0.635876 0.187478 0.050583
C80   C     C_R   0.683461 0.315747 0.116318 0.071597
C81   C     C_R   0.361036 0.365874 0.187539 0.046816
C82   C     C_R   0.818369 0.817643 0.376926 0.043301
C83   C     C_R   0.138506 0.861411 0.313020 0.066584
C84   C     C_R   0.181244 0.182278 0.376564 0.047638
C85   C     C_R   0.667596 0.575234 0.144395 -0.146710
C86   C     C_R   0.859166 0.141417 0.316019 0.074302
C87   C     C_R   0.815803 0.184969 0.615380 0.071632
C88   C     C_R   0.141778 0.140174 0.684066 0.048102
C89   C     C_R   0.157173 0.837512 0.664000 0.062365
C90   C     C_R   0.856683 0.863439 0.685486 0.048555
C91   C     C_R   0.740687 0.359391 0.714010 0.015805
C92   C     C_R   0.705296 0.814371 0.826516 0.039485
C93   C     C_R   0.192590 0.696698 0.816418 0.036288
C94   C     C_R   0.298275 0.195774 0.814092 0.051148
C95   C     C_R   0.745291 0.638258 0.282344 -0.010304
C96   C     C_R   0.605863 0.302526 0.102123 -0.142221
C97   C     C_R   0.712208 0.186783 0.167829 0.013998
C98   C     C_R   0.247498 0.358344 0.274569 0.017837
C99   C     C_R   0.284666 0.816140 0.161871 0.017051
C100  C     C_R   0.239430 0.860620 0.212308 0.031435
C101  C     C_R   0.202433 0.307502 0.316073 0.044618
C102  C     C_R   0.756536 0.143949 0.218934 0.019155
C103  C     C_R   0.791722 0.688170 0.323455 0.035384
C104  C     C_R   0.254201 0.146523 0.770415 0.005882
C105  C     C_R   0.150789 0.736900 0.763314 0.001790
C106  C     C_R   0.750825 0.863481 0.783317 0.017712
C107  C     C_R   0.331829 0.425818 0.144601 -0.141796
C108  C     C_R   0.785690 0.315687 0.662917 0.011567
C109  C     C_R   0.669564 0.330911 0.741113 0.045920
C110  C     C_R   0.734005 0.743113 0.851915 0.051349
C111  C     C_R   0.258128 0.729845 0.850596 0.054212
C112  C     C_R   0.265708 0.260236 0.850302 0.048317
C113  C     C_R   0.670852 0.662815 0.259998 0.073271
C114  C     C_R   0.739706 0.258247 0.141263 0.049001
C115  C     C_R   0.325425 0.339054 0.258632 0.068918
C116  C     C_R   0.258320 0.743190 0.137982 0.043731
C117  C     C_R   0.168384 0.832213 0.239853 0.029180
C118  C     C_R   0.894550 0.803138 0.396313 -0.159277
C119  C     C_R   0.234160 0.241500 0.349397 0.045750
C120  C     C_R   0.827593 0.172436 0.245320 0.041455
C121  C     C_R   0.763686 0.759040 0.351057 0.059621
C122  C     C_R   0.176755 0.167044 0.754765 0.066987
C123  C     C_R   0.180614 0.807501 0.736989 0.069353
C124  C     C_R   0.824746 0.838502 0.758986 0.064846
C125  C     C_R   0.758778 0.243482 0.637490 0.053137
C126  C     C_R   0.137794 0.764124 0.207735 -0.148846
C127  C     C_R   0.315305 0.231893 0.348345 -0.175785
C128  C     C_R   0.858271 0.240275 0.212964 -0.125624
H1    H     H_    0.421108 0.246967 0.903712 0.101177
H2    H     H_    0.219096 0.957805 0.339887 0.102757
H3    H     H_    0.077327 0.252633 0.402045 0.096427
H4    H     H_    0.778938 0.044328 0.342612 0.105553
H5    H     H_    0.922280 0.253385 0.597922 0.109229
H6    H     H_    0.219340 0.044152 0.656027 0.119116
H7    H     H_    0.060824 0.760643 0.632003 0.129563
H8    H     H_    0.786666 0.966979 0.660110 0.133878
H9    H     H_    0.777199 0.380228 0.555270 0.163719
H10   H     H_    0.682817 0.879992 0.677221 0.162212
H11   H     H_    0.149683 0.662109 0.660001 0.161082
H12   H     H_    0.719655 0.457262 0.840444 0.106953
H13   H     H_    0.311965 0.148474 0.655680 0.163168
H14   H     H_    0.909597 0.639554 0.318031 0.144486
H15   H     H_    0.707419 0.028061 0.212856 0.152850
H16   H     H_    0.080955 0.339460 0.295019 0.160928
H17   H     H_    0.286447 0.976864 0.200484 0.153703
H18   H     H_    0.274868 0.877747 0.052715 0.161131
H19   H     H_    0.192370 0.359506 0.159701 0.162314
H20   H     H_    0.720274 0.119224 0.061076 0.162219
H21   H     H_    0.811914 0.619501 0.174171 0.181485
H22   H     H_    0.420712 0.166523 0.791380 0.158185
H23   H     H_    0.575280 0.752138 0.902295 0.107717
H24   H     H_    0.145473 0.578295 0.814056 0.154750
H25   H     H_    0.588845 0.865953 0.826041 0.171243
H26   H     H_    0.788693 0.475529 0.705443 0.161450
H27   H     H_    0.421764 0.752282 0.894942 0.118009
H28   H     H_    0.247210 0.423951 0.894905 0.099515
H29   H     H_    0.542703 0.279796 0.842551 0.120285
H30   H     H_    0.753370 0.579779 0.896398 0.088721
H31   H     H_    0.455324 0.281403 0.160549 0.098178
H32   H     H_    0.245858 0.579654 0.094863 0.136326
H33   H     H_    0.543476 0.719481 0.160437 0.095962
H34   H     H_    0.246872 0.576047 0.907358 0.100002
H35   H     H_    0.753810 0.420662 0.095138 0.135194
H36   H     H_    0.956011 0.221774 0.344206 0.119903
H37   H     H_    0.746947 0.922288 0.396843 0.082030
H38   H     H_    0.041699 0.781018 0.341513 0.096319
H39   H     H_    0.253694 0.078825 0.396253 0.091468
H40   H     H_    0.942738 0.773569 0.655846 0.122519
H41   H     H_    0.745851 0.079858 0.594522 0.132697
H42   H     H_    0.045006 0.221609 0.659052 0.100182
H43   H     H_    0.242275 0.928087 0.635054 0.139552
H44   H     H_    0.082814 0.740760 0.226809 0.175783
H45   H     H_    0.421969 0.753406 0.098098 0.108612
H46   H     H_    0.342275 0.182927 0.376239 0.127097
H47   H     H_    0.912809 0.264512 0.231680 0.177882
H48   H     H_    0.658020 0.826048 0.369956 0.121473
H49   H     H_    0.079138 0.237945 0.792874 0.124503
H50   H     H_    0.251940 0.906732 0.768940 0.122108
H51   H     H_    0.919584 0.760628 0.787103 0.115323
H52   H     H_    0.659365 0.165558 0.636609 0.172929
H53   H     H_    0.584215 0.238961 0.727612 0.177802
H54   H     H_    0.840435 0.677464 0.869055 0.123906
H55   H     H_    0.319859 0.837954 0.870319 0.142151
H56   H     H_    0.709765 0.532945 0.161463 0.129443
H57   H     H_    0.157451 0.318816 0.879057 0.126738
H58   H     H_    0.577754 0.743566 0.288588 0.120698
H59   H     H_    0.838870 0.336513 0.140472 0.176006
H60   H     H_    0.422184 0.267106 0.294501 0.123446
H61   H     H_    0.159208 0.664799 0.138443 0.170273
H62   H     H_    0.918921 0.410500 0.667391 0.010856
H63   H     H_    0.668050 0.997801 0.817722 0.029226
H64   H     H_    0.014866 0.650858 0.785787 0.005108
H65   H     H_    0.359980 0.024604 0.781220 0.024771
H66   H     H_    0.874819 0.787005 0.230666 0.064466
H67   H     H_    0.577309 0.246946 0.098759 0.113111
H68   H     H_    0.852946 0.067878 0.106487 0.022420
H69   H     H_    0.165391 0.216230 0.185500 0.050260
H70   H     H_    0.141589 0.929274 0.098470 0.019067
H71   H     H_    0.417061 0.912436 0.162987 -0.002411
H72   H     H_    0.142290 0.480813 0.288998 0.021354
H73   H     H_    0.577867 0.093888 0.175666 -0.008298
H74   H     H_    0.830167 0.505994 0.316085 0.029014
H75   H     H_    0.335434 0.290969 0.686571 0.034900
H76   H     H_    0.288143 0.621477 0.704763 0.031473
H77   H     H_    0.634420 0.739390 0.699643 0.043252
H78   H     H_    0.288482 0.467510 0.161711 0.133060
H79   H     H_    0.643923 0.431589 0.601709 0.017357
H80   H     H_    0.921526 0.747006 0.402771 0.107533
N1    N     N_R   0.425360 0.368540 0.922560 -0.043842
N2    N     N_R   0.131460 0.925360 0.422560 -0.046900
N3    N     N_R   0.074640 0.131460 0.422560 -0.042833
N4    N     N_R   0.868540 0.074640 0.422560 -0.048248
N5    N     N_R   0.925360 0.131460 0.577440 -0.042700
N6    N     N_R   0.131460 0.074640 0.577440 -0.043125
N7    N     N_R   0.074640 0.868540 0.577440 -0.039921
N8    N     N_R   0.868540 0.925360 0.577440 -0.043071
N9    N     N_R   0.425340 0.631500 0.922560 -0.045279
N10   N     N_R   0.368500 0.425340 0.922560 -0.044352
N11   N     N_R   0.574660 0.368500 0.922560 -0.049569
N12   N     N_R   0.631460 0.425360 0.922560 -0.047756
N13   N     N_R   0.631500 0.574660 0.922560 -0.042531
N14   N     N_R   0.425340 0.368500 0.077440 -0.045140
N15   N     N_R   0.368500 0.574660 0.077440 -0.044215
N16   N     N_R   0.574660 0.631500 0.077440 -0.045507
N17   N     N_R   0.631500 0.425340 0.077440 -0.045231
N18   N     N_R   0.925340 0.131500 0.422560 -0.049596
N19   N     N_R   0.868500 0.925340 0.422560 -0.039859
N20   N     N_R   0.074660 0.868500 0.422560 -0.044017
N21   N     N_R   0.131500 0.074660 0.422560 -0.041260
N22   N     N_R   0.925340 0.868500 0.577440 -0.041061
N23   N     N_R   0.574640 0.631460 0.922560 -0.043069
N24   N     N_R   0.868500 0.074660 0.577440 -0.046172
N25   N     N_R   0.074660 0.131500 0.577440 -0.044883
N26   N     N_R   0.131500 0.925340 0.577440 -0.040937
N27   N     N_R   0.368540 0.574640 0.922560 -0.040421
N28   N     N_R   0.425360 0.631460 0.077440 -0.043309
N29   N     N_R   0.631460 0.574640 0.077440 -0.043400
N30   N     N_R   0.574640 0.368540 0.077440 -0.042117
N31   N     N_R   0.368540 0.425360 0.077440 -0.047848
N32   N     N_R   0.925360 0.868540 0.422560 -0.037447
Ni1   Ni    Ni4+2 0.500000 0.369720 0.000000 0.230483
Ni2   Ni    Ni4+2 0.630280 0.500000 0.000000 0.222605
Ni3   Ni    Ni4+2 0.500000 0.630280 0.000000 0.231220
Ni4   Ni    Ni4+2 0.369720 0.500000 0.000000 0.225213
Ni5   Ni    Ni4+2 1.000000 0.869720 0.500000 0.236377
Ni6   Ni    Ni4+2 0.130280 0.000000 0.500000 0.232990
Ni7   Ni    Ni4+2 1.000000 0.130280 0.500000 0.228898
Ni8   Ni    Ni4+2 0.869720 0.000000 0.500000 0.219993
O1    O     O_2   0.920890 0.419590 0.553096 -0.578499
O2    O     O_2   0.131388 0.494813 0.175848 -0.598745
O3    O     O_2   0.576372 0.080402 0.061700 -0.569313
O4    O     O_2   0.854894 0.480573 0.206594 -0.606198
O5    O     O_2   0.447554 0.291943 0.713973 -0.611623
O6    O     O_2   0.261095 0.515513 0.741522 -0.587623
O7    O     O_2   0.527203 0.762755 0.737760 -0.574260
O8    O     O_2   0.666060 0.535329 0.647622 -0.579071
O9    O     O_2   0.643257 0.020823 0.708403 -0.609820
O10   O     O_2   0.006032 0.621645 0.675101 -0.584355
O11   O     O_2   0.375599 0.014060 0.667875 -0.579700
O12   O     O_2   0.945538 0.711232 0.179449 -0.575163
O13   O     O_2   0.829843 0.965645 0.154461 -0.587203
O14   O     O_2   0.052671 0.217361 0.212516 -0.599949
O15   O     O_2   0.162964 0.034186 0.142044 -0.579686
O16   O     O_2   0.418247 0.917845 0.048435 -0.575530

loop_
_geom_bond_atom_site_label_1
_geom_bond_atom_site_label_2
_ccdc_geom_bond_type
C44   C49   S    
C33   C55   S    
C55   H26   S    
C30   C51   S    
C81   C107  A    
C67   C83   A    
C23   C45   S    
C6    H51   S    
C39   C106  S    
C13   N3    A    
C118  H80   S    
C66   C82   A    
C60   H31   S    
C6    C124  A    
C4    H49   S    
N4    Ni8   S    
C81   C115  S    
C46   H17   S    
N9    N27   A    
C54   H25   S    
N9    Ni3   S    
N2    N20   A    
C24   N4    A    
C63   N27   A    
C14   C128  A    
C65   C86   A    
C68   N21   A    
C30   H75   S    
C13   C84   A    
C86   C120  S    
C63   H34   S    
N29   Ni2   S    
C28   H73   S    
N2    Ni6   S    
N28   Ni3   S    
C27   O2    D    
C1    H1    S    
C84   C119  S    
C36   N7    A    
C52   N23   A    
C25   O15   D    
C59   H30   S    
C50   C95   S    
C39   C54   S    
C41   C75   A    
C57   N10   A    
C22   O13   D    
C57   C73   A    
C40   H11   S    
N14   N31   A    
C47   C99   S    
C105  C123  A    
C77   C111  S    
C28   C49   S    
N3    Ni7   S    
N5    Ni7   S    
C56   N9    A    
C107  H78   S    
C55   C91   S    
C9    H54   S    
C59   N13   A    
C93   C105  A    
N19   Ni8   S    
C21   C43   S    
C96   H67   S    
C22   C44   S    
C38   C55   S    
C51   H22   S    
C41   H12   S    
N11   N12   A    
C66   N19   A    
C65   N18   A    
C53   H24   S    
N8    N22   A    
C53   C93   S    
N31   Ni4   S    
C25   H70   S    
N10   Ni4   S    
C108  C125  A    
C80   C96   A    
N16   N29   A    
C61   C78   A    
C82   C121  S    
C74   C78   A    
C97   C102  A    
C31   O6    D    
C19   H64   S    
N13   Ni2   S    
N4    N18   A    
C127  H46   S    
C71   N25   A    
C3    C12   A    
C39   H10   S    
C94   C104  A    
C15   C127  A    
N17   N30   A    
C64   C80   A    
C22   H68   S    
C2    C83   A    
N7    N26   A    
C90   C124  S    
C6    C9    A    
C56   H27   S    
C70   C87   A    
C16   C116  A    
C35   H6    S    
C32   C54   S    
C64   N17   A    
N14   Ni1   S    
C95   C103  A    
C58   C75   A    
C43   C103  S    
C29   C50   S    
C5    H50   S    
C57   H28   S    
C18   H63   S    
C2    N2    A    
C75   C109  S    
C1    N1    A    
C68   C84   A    
C29   O4    D    
C62   C79   A    
C7    C8    A    
C104  C122  A    
C21   O12   D    
C88   C122  S    
C19   C40   S    
C61   H32   S    
N1    Ni1   S    
C99   C116  A    
C44   C102  S    
C91   C109  A    
N25   Ni7   S    
N20   Ni5   S    
C89   C123  S    
C23   O14   D    
N17   Ni2   S    
C14   C114  A    
C107  N31   A    
C58   H29   S    
C31   C53   S    
C56   C77   A    
N11   Ni1   S    
C49   H20   S    
C42   C104  S    
N24   Ni8   S    
C35   C88   A    
C101  C119  A    
C20   O11   D    
C43   H14   S    
N23   Ni3   S    
C18   C39   S    
C61   N15   A    
C54   C92   S    
C19   O10   D    
C37   N8    A    
C45   H16   S    
C60   C81   A    
C24   H4    S    
C99   C100  A    
N30   Ni1   S    
C79   C85   A    
N15   Ni4   S    
C12   H58   S    
N13   N23   A    
C42   H13   S    
C13   H3    S    
C71   H42   S    
C4    C122  A    
C10   C111  A    
N6    Ni6   S    
N15   N28   A    
C7    C125  A    
C4    C11   A    
C26   H71   S    
N22   Ni5   S    
C31   H76   S    
N5    N24   A    
C45   C101  S    
C26   C47   S    
C74   H45   S    
C58   N11   A    
N21   Ni6   S    
C37   C90   A    
C67   H38   S    
C92   C106  A    
C93   C111  A    
N7    Ni5   S    
C85   H56   S    
C62   N16   A    
C79   C113  S    
C36   C89   A    
C47   H18   S    
N32   Ni5   S    
C21   H66   S    
C15   C115  A    
N6    N25   A    
C65   H36   S    
N1    N10   A    
C74   N28   A    
C69   C90   A    
C103  C121  A    
C43   C50   S    
C20   H65   S    
C87   C125  S    
C41   N12   A    
C102  C120  A    
C72   H43   S    
C73   C112  S    
C12   C113  A    
C63   C77   A    
C45   C48   S    
C118  N32   A    
C9    C110  A    
C36   H7    S    
C46   C100  S    
C46   C47   S    
C33   H79   S    
C128  H47   S    
C37   H8    S    
C29   H74   S    
N3    N21   A    
C66   H37   S    
C11   C112  A    
C11   H57   S    
C96   N30   A    
C91   C108  A    
C70   H41   S    
C33   O8    D    
C78   C116  S    
C27   H72   S    
C80   C114  S    
C52   C76   A    
C34   N5    A    
C60   N14   A    
C23   H69   S    
C20   C42   S    
C120  C128  A    
N16   Ni3   S    
C42   C51   S    
C30   O5    D    
C17   H62   S    
N8    Ni8   S    
C98   C101  A    
C48   C98   S    
C15   H60   S    
C5    C123  A    
C34   H5    S    
C8    H53   S    
C1    C73   A    
C44   H15   S    
C83   C117  S    
C97   C114  A    
C69   H40   S    
C5    C10   A    
C69   N22   A    
N26   Ni6   S    
N18   Ni7   S    
C14   H59   S    
C50   H21   S    
C92   C110  A    
C98   C115  A    
N12   Ni2   S    
C67   N20   A    
C95   C113  A    
C52   H23   S    
N19   N32   A    
C59   C76   A    
C32   O7    D    
C17   O1    D    
C2    H2    S    
C38   H9    S    
C72   N26   A    
C7    H52   S    
C85   N29   A    
C34   C87   A    
C18   O9    D    
C27   C48   S    
C38   C108  S    
C35   N6    A    
C70   N24   A    
N27   Ni4   S    
C28   O3    D    
C126  H44   S    
C16   H61   S    
C51   C94   S    
C49   C97   S    
C71   C88   A    
C62   H33   S    
C68   H39   S    
C3    H48   S    
C26   O16   D    
C17   C38   S    
C76   C110  S    
C40   C53   S    
C10   H55   S    
C106  C124  A    
C82   C118  A    
C40   C105  S    
C117  C126  A    
C72   C89   A    
C100  C117  A    
C32   H77   S    
C8    C109  A    
C24   C86   A    
C25   C46   S    
C16   C126  A    
C94   C112  A    
C3    C121  A    
C119  C127  A    
C48   H19   S    
C64   H35   S    
