data_mof_unit_12962.cif
_audit_creation_date              2012-12-10T20:28:40-0500
_audit_creation_method            fapswitch 2.2
_symmetry_space_group_name_H-M    P1
_symmetry_Int_Tables_number       1
_space_group_crystal_system       triclinic
_cell_length_a                    10.741308
_cell_length_b                    10.856728
_cell_length_c                    9.895911
_cell_angle_alpha                 87.45775
_cell_angle_beta                  88.110836
_cell_angle_gamma                 92.169029
_cell_volume                      1151.3604371

loop_
_atom_site_label
_atom_site_type_symbol
_atom_type_description
_atom_site_fract_x
_atom_site_fract_y
_atom_site_fract_z
_atom_type_partial_charge
C1    C     C_R   0.501162 0.259614 0.502104 0.972411
C2    C     C_R   0.057064 0.510642 0.627580 0.110008
C3    C     C_R   0.129258 0.535136 0.507634 -0.148151
C4    C     C_R   0.071932 0.556414 0.385272 -0.222703
C5    C     C_R   0.945146 0.535247 0.375993 -0.035057
C6    C     C_R   0.875245 0.488371 0.492854 -0.192031
C7    C     C_R   0.528748 0.054838 0.619432 0.057761
C8    C     C_R   0.511298 0.127367 0.501845 -0.096730
C9    C     C_R   0.513350 0.069550 0.376436 -0.112269
C10   C     C_R   0.515623 0.941710 0.372329 -0.154687
C11   C     C_R   0.515577 0.870822 0.493780 -0.055414
C12   C     C_R   0.261402 0.514484 0.502117 0.950010
C13   C     C_R   0.529808 0.929601 0.614229 0.002514
C14   C     C_3   0.479130 0.903791 0.755446 -0.353198
C15   C     C_3   0.477442 0.044739 0.763639 0.253381
C16   C     C_R   0.461990 0.396091 0.076743 0.185685
C17   C     C_R   0.557716 0.593350 0.065426 -0.061317
C18   C     C_R   0.561187 0.591099 0.921422 -0.071491
C19   C     C_R   0.449016 0.404455 0.936195 0.292929
C20   C     C_3   0.317859 0.359180 0.944789 -0.521131
C21   C     C_3   0.343706 0.315170 0.088278 -0.287495
C22   C     C_R   0.502807 0.739551 0.497363 0.886260
C23   C     C_R   0.740397 0.493114 0.497658 0.859592
C24   C     C_R   0.099474 0.532889 0.758069 -0.190732
C25   C     C_R   0.028111 0.491735 0.872774 -0.140062
C26   C     C_R   0.921526 0.417433 0.858793 -0.061370
C27   C     C_R   0.876520 0.401328 0.730272 -0.113291
C28   C     C_R   0.935498 0.464152 0.615833 0.070251
H1    H     H_    0.127273 0.583951 0.294449 0.204631
H2    H     H_    0.548574 0.859807 0.820377 0.169991
H3    H     H_    0.601731 0.670047 0.114146 0.146370
H4    H     H_    0.610980 0.664056 0.862081 0.137100
H5    H     H_    0.257153 0.438939 0.940615 0.215801
H6    H     H_    0.293959 0.289768 0.873428 0.244476
H7    H     H_    0.368444 0.216525 0.090907 0.220760
H8    H     H_    0.183979 0.586835 0.772527 0.196051
H9    H     H_    0.057422 0.514897 0.972051 0.215413
H10   H     H_    0.871177 0.376282 0.946973 0.221816
H11   H     H_    0.793426 0.343734 0.721090 0.213481
H12   H     H_    0.507401 0.122062 0.281552 0.210716
H13   H     H_    0.510658 0.899007 0.275664 0.192910
N1    N     N_R   0.499160 0.499140 0.142800 -0.126475
N2    N     N_R   0.499160 0.499180 0.857150 -0.110623
O1    O     O_R   0.500020 0.316790 0.614690 -0.585621
O2    O     O_R   0.500000 0.316760 0.385350 -0.612724
O3    O     O_R   0.316770 0.500020 0.614690 -0.628584
O4    O     O_R   0.316760 0.499980 0.385350 -0.604473
O5    O     O_R   0.500000 0.683240 0.614650 -0.638442
O6    O     O_R   0.499980 0.683210 0.385310 -0.638832
O7    O     O_R   0.683240 0.500020 0.614650 -0.625399
O8    O     O_R   0.683230 0.499980 0.385310 -0.588376
Zn1   Zn    Zn3+2 0.500010 0.500020 0.653130 1.002196
Zn2   Zn    Zn3+2 0.499990 0.499980 0.346870 1.017413
C29   C     C_2   0.347532 0.090267 0.786103 0.872230
O9    O     O_2   0.293138 0.067670 0.895514 -0.591636
O10   O     O_R   0.285165 0.147461 0.679894 -0.788666
H14   H     H_    0.196254 0.166873 0.706206 0.360278
S1    S     S_3+6 0.590883 0.098758 0.879307 -0.002897
O11   O     O_2   0.617890 0.234317 0.855218 -0.320748
O12   O     O_2   0.542916 0.073485 0.022543 -0.351136
O13   O     O_3   0.725212 0.026232 0.855416 -0.532048
H15   H     H_    0.726842 0.962593 0.930167 0.367410
C30   C     C_2   0.241430 0.329336 0.192180 1.023653
O14   O     O_2   0.251447 0.282312 0.305616 -0.591554
O15   O     O_R   0.127368 0.374380 0.154120 -0.832727
H16   H     H_    0.059244 0.355343 0.225952 0.353899
C31   C     C_2   0.893722 0.557713 0.240246 0.933529
O16   O     O_2   0.838358 0.474314 0.185161 -0.627666
O17   O     O_R   0.915681 0.672369 0.172031 -0.789616
H17   H     H_    0.878136 0.675968 0.079315 0.334004
C32   C     C_2   0.353092 0.835058 0.765589 0.983841
O18   O     O_2   0.327554 0.765059 0.863520 -0.626248
O19   O     O_R   0.266170 0.852826 0.664903 -0.787831
H18   H     H_    0.185222 0.803424 0.684833 0.340681

loop_
_geom_bond_atom_site_label_1
_geom_bond_atom_site_label_2
_ccdc_geom_bond_type
C7    C13   A    
O7    Zn1   S    
C24   C25   A    
C30   O15   S    
C16   C21   S    
C21   H7    S    
O3    Zn1   S    
C1    C8    S    
C9    C10   A    
C11   C22   S    
C23   O8    A    
C19   C20   S    
C5    C31   S    
O4    Zn2   S    
C20   H6    S    
O1    Zn1   S    
S1    O13   S    
C7    C15   S    
C17   C18   A    
S1    O11   D    
O2    Zn2   S    
C7    C8    A    
C4    H1    S    
C18   N2    A    
O10   H14   S    
C10   H13   S    
C2    C24   A    
C4    C5    A    
C11   C13   A    
C1    O2    A    
C26   C27   A    
C24   H8    S    
C23   O7    A    
C14   H2    S    
C12   O4    A    
O6    Zn2   S    
C5    C6    A    
C12   O3    A    
C19   N2    A    
C22   O5    A    
C2    C3    A    
O17   H17   S    
C22   O6    A    
N1    Zn2   S    
C16   C19   A    
O13   H15   S    
C17   H3    S    
C15   S1    S    
C29   O10   S    
N2    Zn1   S    
C21   C30   S    
C18   H4    S    
C10   C11   A    
C6    C23   S    
S1    O12   D    
C30   O14   D    
C15   C29   S    
C16   N1    A    
O5    Zn1   S    
C32   O18   D    
C20   C21   S    
C20   H5    S    
O15   H16   S    
C14   C32   S    
C17   N1    A    
C31   O17   S    
C27   C28   A    
C32   O19   S    
C29   O9    D    
C26   H10   S    
O19   H18   S    
C2    C28   A    
C3    C12   S    
C1    O1    A    
C13   C14   S    
C25   H9    S    
C25   C26   A    
C14   C15   S    
C9    H12   S    
C6    C28   A    
C3    C4    A    
C31   O16   D    
C27   H11   S    
C8    C9    A    
O8    Zn2   S    
