data_mof_unit_23006.cif
_audit_creation_date              2012-12-11T14:08:07-0500
_audit_creation_method            fapswitch 2.2
_symmetry_space_group_name_H-M    P1
_symmetry_Int_Tables_number       1
_space_group_crystal_system       triclinic
_cell_length_a                    10.896939
_cell_length_b                    11.029905
_cell_length_c                    18.570767
_cell_angle_alpha                 90.318034
_cell_angle_beta                  89.903404
_cell_angle_gamma                 60.375479
_cell_volume                      1940.23894607

loop_
_atom_site_label
_atom_site_type_symbol
_atom_type_description
_atom_site_fract_x
_atom_site_fract_y
_atom_site_fract_z
_atom_type_partial_charge
C1    C     C_R   0.226242 0.650889 0.604512 0.532313
C2    C     C_3   0.676534 0.522267 0.817621 0.183558
C3    C     C_3   0.676544 0.663357 0.819530 0.073510
C4    C     C_3   0.636203 0.616548 0.686083 -0.000989
C5    C     C_3   0.756574 0.652490 0.690568 -0.310055
C6    C     C_3   0.672013 0.487506 0.735370 0.164325
C7    C     C_2   0.692662 0.123172 0.660186 -0.079388
C8    C     C_2   0.744641 0.029059 0.812728 -0.145721
C9    C     C_2   0.828974 0.063920 0.775851 -0.180885
C10   C     C_2   0.802927 0.110655 0.699229 -0.122152
C11   C     C_2   0.134450 0.689889 0.667050 -0.122880
C12   C     C_R   0.624271 0.586088 0.609357 0.614836
C13   C     C_2   0.094302 0.722863 0.822585 -0.117963
C14   C     C_2   0.092815 0.620020 0.784824 -0.191935
C15   C     C_2   0.130496 0.593604 0.708481 -0.190781
C16   C     C_2   0.650622 0.646534 0.317193 -0.090966
C17   C     C_2   0.632313 0.664353 0.158951 -0.112520
C18   C     C_2   0.708406 0.546414 0.195203 -0.166742
C19   C     C_2   0.690911 0.537533 0.271957 -0.151065
C20   C     C_2   0.599599 0.264760 0.312428 -0.104449
C21   C     C_2   0.630071 0.214893 0.159688 -0.119004
C22   C     C_2   0.506983 0.259460 0.194012 -0.155125
C23   C     C_R   0.632561 0.219888 0.599013 0.597220
C24   C     C_2   0.488434 0.309389 0.268451 -0.163123
C25   C     C_2   0.119413 0.681414 0.345878 -0.106474
C26   C     C_2   0.112918 0.692212 0.191135 -0.089712
C27   C     C_2   0.039592 0.803898 0.234639 -0.144870
C28   C     C_2   0.071163 0.800089 0.310396 -0.159828
C29   C     C_R   0.734833 0.028518 0.891820 0.545968
C30   C     C_R   0.719597 0.687231 0.890087 0.539693
C31   C     C_R   0.055505 0.743620 0.898391 0.555035
C32   C     C_R   0.672042 0.115581 0.100873 0.555760
C33   C     C_R   0.691822 0.688688 0.094444 0.545346
C34   C     C_R   0.215225 0.651258 0.404854 0.547854
C35   C     C_R   0.086569 0.713685 0.115285 0.562929
C36   C     C_R   0.641946 0.621158 0.392832 0.552451
C37   C     C_R   0.578543 0.297052 0.388046 0.568398
C38   C     C_3   0.530602 0.784665 0.792872 0.181900
C39   C     C_3   0.501465 0.747107 0.716394 -0.206441
C40   C     C_3   0.793046 0.654823 0.768593 -0.348644
Cr1   Cr    Cr6+3 0.393010 0.398050 0.501480 1.010547
Cr2   Cr    Cr6+3 0.398820 0.707980 0.501630 1.013569
Cr3   Cr    Cr6+3 0.708140 0.393940 0.496850 1.017347
Cr4   Cr    Cr6+3 0.937950 0.938450 0.008940 0.975444
Cr5   Cr    Cr6+3 0.626180 0.937030 0.994750 0.985318
Cr6   Cr    Cr6+3 0.937790 0.625760 0.001410 0.973620
H1    H     H_    0.541149 0.880105 0.788877 0.090133
H2    H     H_    0.784708 0.413004 0.722185 0.103899
H3    H     H_    0.854768 0.575514 0.662154 0.166178
H4    H     H_    0.863249 0.157711 0.679149 0.144729
H5    H     H_    0.667241 0.012081 0.785162 0.080394
H6    H     H_    0.631287 0.076033 0.677709 0.076311
H7    H     H_    0.076288 0.543827 0.812823 0.151280
H8    H     H_    0.171922 0.487267 0.689108 0.140612
H9    H     H_    0.121982 0.794713 0.797895 0.099705
H10   H     H_    0.085897 0.798008 0.684388 0.115096
H11   H     H_    0.797845 0.456750 0.170454 0.146765
H12   H     H_    0.726026 0.433534 0.292524 0.144827
H13   H     H_    0.538772 0.751325 0.182701 0.113479
H14   H     H_    0.424601 0.242868 0.171299 0.154063
H15   H     H_    0.381662 0.369314 0.289704 0.136272
H16   H     H_    0.708807 0.239529 0.179783 0.090333
H17   H     H_    0.707475 0.199808 0.293824 0.099535
H18   H     H_    0.965910 0.905608 0.212795 0.156155
H19   H     H_    0.409237 0.730667 0.716010 0.139721
H20   H     H_    0.074648 0.889258 0.333241 0.157068
H21   H     H_    0.188224 0.589313 0.210695 0.081407
H22   H     H_    0.107086 0.596173 0.324275 0.107915
H23   H     H_    0.471644 0.839286 0.681572 0.100227
H24   H     H_    0.813099 0.743396 0.777516 0.136268
H25   H     H_    0.779224 0.438907 0.838645 0.077890
O1    O     O_R   0.507110 0.256280 0.580300 -0.522451
O2    O     O_R   0.524640 0.695370 0.425100 -0.487687
O3    O     O_R   0.735890 0.504390 0.415980 -0.518419
O4    O     O_R   0.690560 0.277820 0.422350 -0.511220
O5    O     O_3   0.499990 0.499990 0.499980 -0.287567
O6    O     O_R   0.089190 0.825870 0.932320 -0.516315
O7    O     O_R   0.819070 0.053960 0.931440 -0.534226
O8    O     O_R   0.607070 0.076440 0.916460 -0.554438
O9    O     O_R   0.647110 0.806550 0.917690 -0.505218
O10   O     O_R   0.837080 0.593860 0.915300 -0.567488
O11   O     O_R   0.064770 0.636080 0.932550 -0.503916
O12   O     O_R   0.280830 0.527190 0.577940 -0.502755
O13   O     O_R   0.068250 0.829200 0.092940 -0.510427
O14   O     O_R   0.799650 0.057040 0.080330 -0.512786
O15   O     O_R   0.586130 0.079760 0.077080 -0.509678
O16   O     O_R   0.627700 0.809630 0.066580 -0.491944
O17   O     O_R   0.816140 0.597180 0.075920 -0.525085
O18   O     O_R   0.045360 0.639170 0.081440 -0.485514
O19   O     O_3   0.833980 0.833750 0.001700 -0.276144
O20   O     O_R   0.261360 0.738990 0.584270 -0.531327
O21   O     O_R   0.532590 0.694780 0.574370 -0.510402
O22   O     O_R   0.744470 0.503750 0.577000 -0.525378
O23   O     O_R   0.698520 0.277230 0.571620 -0.485447
O24   O     O_R   0.498530 0.256920 0.419280 -0.499894
O25   O     O_R   0.272880 0.527780 0.428680 -0.522682
O26   O     O_R   0.252780 0.739630 0.423250 -0.508015
H26   H     H_    0.889603 0.554203 0.778829 0.121406
H27   H     H_    0.906788 0.079129 0.804918 0.125397
O27   O     O_3   0.420375 0.807621 0.841570 -0.521931
C41   C     C_3   0.300076 0.941196 0.832129 -0.005253
H28   H     H_    0.205741 0.932498 0.845575 0.171594
H29   H     H_    0.285847 0.979003 0.775570 0.090338
C42   C     C_3   0.303980 0.048476 0.883355 -0.247384
H30   H     H_    0.326588 0.006190 0.938922 0.186722
H31   H     H_    0.389010 0.069803 0.866277 0.174566
C43   C     C_3   0.163644 0.185373 0.883374 -0.495603
H32   H     H_    0.139683 0.230584 0.828464 0.130759
H33   H     H_    0.169942 0.261227 0.920598 0.150483
H34   H     H_    0.076555 0.167872 0.901743 0.145390
H35   H     H_    0.615035 0.751780 0.298511 0.101365
H36   H     H_    0.723291 0.755839 0.665694 0.142628
O28   O     O_3   0.561426 0.530975 0.858292 -0.552814
C44   C     C_3   0.586159 0.506970 0.933379 0.017890
H37   H     H_    0.483024 0.535385 0.958861 0.150449
H38   H     H_    0.614783 0.578930 0.959861 0.167523
C45   C     C_3   0.688510 0.353759 0.951794 -0.283386
H39   H     H_    0.626616 0.303882 0.969497 0.179735
H40   H     H_    0.751978 0.295260 0.904355 0.178758
C46   C     C_3   0.790155 0.339714 0.011576 -0.449475
H41   H     H_    0.853954 0.388029 0.995071 0.181430
H42   H     H_    0.864226 0.228068 0.022242 0.173294
H43   H     H_    0.730182 0.389912 0.061528 0.138719
O29   O     O_3   0.604975 0.410120 0.714268 -0.595571
C47   C     C_3   0.471480 0.447581 0.744050 0.058512
H44   H     H_    0.407059 0.443717 0.699465 0.154200
H45   H     H_    0.412817 0.554759 0.765887 0.188162
C48   C     C_3   0.487913 0.335790 0.798109 -0.216240
H46   H     H_    0.491798 0.246467 0.768516 0.130978
H47   H     H_    0.588763 0.298752 0.826380 0.223759
C49   C     C_3   0.371699 0.384371 0.854750 -0.435485
H48   H     H_    0.333241 0.494093 0.870854 0.201363
H49   H     H_    0.411860 0.320590 0.903952 0.169945
H50   H     H_    0.285641 0.368443 0.834140 0.128710

loop_
_geom_bond_atom_site_label_1
_geom_bond_atom_site_label_2
_ccdc_geom_bond_type
C7    C10   D    
C24   H15   S    
C43   H33   S    
C1    C11   S    
C6    O29   S    
C49   H50   S    
C48   H46   S    
C34   O26   A    
C42   H31   S    
C44   H37   S    
Cr6   O18   S    
C25   C28   D    
C26   C27   D    
C41   H28   S    
C31   O11   A    
C40   H24   S    
C26   H21   S    
Cr4   O6    S    
Cr5   O16   S    
C33   O17   A    
C34   O25   A    
C7    H6    S    
Cr2   O20   S    
C45   H40   S    
C40   H26   S    
C38   C39   S    
C2    O28   S    
Cr1   O25   S    
Cr1   O12   S    
Cr3   O23   S    
C37   O24   A    
C18   C19   S    
Cr6   O11   S    
C11   C15   D    
C29   O7    A    
C20   C24   D    
C3    C38   S    
C8    C9    D    
C47   C48   S    
C43   H32   S    
C4    C12   S    
C9    C10   S    
C46   H43   S    
C12   O21   A    
C25   C34   S    
C30   O9    A    
Cr3   O3    S    
C37   O4    A    
C1    O20   A    
C21   C22   D    
C39   H19   S    
C5    H3    S    
C2    C6    S    
C25   H22   S    
C17   C33   S    
C42   H30   S    
C46   H42   S    
C31   O6    A    
Cr6   O17   S    
C19   H12   S    
Cr3   O4    S    
C21   C32   S    
C15   H8    S    
C4    C6    S    
C36   O2    A    
C45   C46   S    
C49   H49   S    
C3    C30   S    
C28   H20   S    
Cr6   O10   S    
C18   H11   S    
C29   O8    A    
C4    C39   S    
C32   O15   A    
C17   C18   D    
C39   H23   S    
Cr5   O8    S    
C2    H25   S    
Cr5   O19   S    
C8    H5    S    
C38   H1    S    
C6    H2    S    
C36   O3    A    
C17   H13   S    
Cr1   O1    S    
C35   O18   A    
C38   O27   S    
C3    C40   S    
C41   C42   S    
C47   H44   S    
C43   H34   S    
C22   C24   S    
C12   O22   A    
Cr2   O26   S    
C8    C29   S    
Cr4   O14   S    
C10   H4    S    
C48   C49   S    
Cr4   O19   S    
C46   H41   S    
O28   C44   S    
Cr3   O5    S    
Cr2   O2    S    
C23   O1    A    
C13   C31   S    
C4    C5    S    
Cr4   O13   S    
C48   H47   S    
C44   H38   S    
C35   O13   A    
Cr6   O19   S    
C5    H36   S    
C1    O12   A    
C9    H27   S    
Cr2   O5    S    
C23   O23   A    
C30   O10   A    
Cr4   O7    S    
C2    C3    S    
C33   O16   A    
C45   H39   S    
C16   C36   S    
Cr1   O5    S    
C22   H14   S    
C20   C37   S    
Cr1   O24   S    
C20   H17   S    
C16   C19   D    
C7    C23   S    
C32   O14   A    
O27   C41   S    
Cr3   O22   S    
Cr5   O15   S    
Cr5   O9    S    
Cr2   O21   S    
C44   C45   S    
C27   H18   S    
C26   C35   S    
C14   H7    S    
C41   H29   S    
C5    C40   S    
C27   C28   S    
C47   H45   S    
C14   C15   S    
C21   H16   S    
C13   C14   D    
C42   C43   S    
C11   H10   S    
C49   H48   S    
C16   H35   S    
O29   C47   S    
C13   H9    S    
