data_mof_unit_39459.cif
_audit_creation_date              2012-12-10T19:44:55-0500
_audit_creation_method            fapswitch 2.2
_symmetry_space_group_name_H-M    P1
_symmetry_Int_Tables_number       1
_space_group_crystal_system       triclinic
_cell_length_a                    15.097158
_cell_length_b                    11.020026
_cell_length_c                    13.666106
_cell_angle_alpha                 90.556686
_cell_angle_beta                  90.267921
_cell_angle_gamma                 87.858615
_cell_volume                      2271.92855848

loop_
_atom_site_label
_atom_site_type_symbol
_atom_type_description
_atom_site_fract_x
_atom_site_fract_y
_atom_site_fract_z
_atom_type_partial_charge
C1    C     C_R   0.497057 0.262028 0.499704 0.813684
C2    C     C_R   0.502226 0.737928 0.500454 0.865533
C3    C     C_R   0.054370 0.280694 0.519368 -0.192098
C4    C     C_R   0.946154 0.718130 0.480240 -0.226927
C5    C     C_R   0.380095 0.207598 0.189871 -0.137677
C6    C     C_R   0.623634 0.781083 0.802483 -0.134392
C7    C     C_R   0.395368 0.164131 0.284442 -0.131912
C8    C     C_R   0.604995 0.826578 0.709211 -0.118545
C9    C     C_R   0.480364 0.120943 0.312738 0.168954
C10   C     C_R   0.520980 0.879150 0.687481 0.193393
C11   C     C_R   0.549813 0.123070 0.244749 -0.158784
C12   C     C_R   0.456020 0.884963 0.760987 -0.109325
C13   C     C_R   0.533689 0.163042 0.149382 -0.154192
C14   C     C_R   0.475519 0.841670 0.854736 -0.158736
C15   C     C_R   0.448967 0.205683 0.121997 -0.097943
C16   C     C_R   0.559248 0.789758 0.875487 -0.103830
C17   C     C_R   0.500440 0.934526 0.410965 0.115670
C18   C     C_R   0.495323 0.064345 0.589827 0.106868
C19   C     C_R   0.503754 0.871736 0.501027 -0.139071
C20   C     C_R   0.494025 0.128152 0.499565 -0.151012
C21   C     C_R   0.504119 0.937731 0.590628 -0.059365
C22   C     C_R   0.494027 0.061877 0.409750 -0.081479
C23   C     C_R   0.328943 0.502521 0.499979 0.823668
C24   C     C_R   0.671130 0.496862 0.500100 0.881749
C25   C     C_R   0.570299 0.447912 0.793268 0.002648
C26   C     C_R   0.429790 0.552443 0.206761 0.024851
C27   C     C_R   0.429306 0.551125 0.793357 0.030606
C28   C     C_R   0.571165 0.450292 0.206607 0.040575
C29   C     C_R   0.427266 0.551426 0.896428 0.000153
C30   C     C_R   0.573427 0.450764 0.103548 -0.002488
C31   C     C_R   0.500020 0.500168 0.948176 0.075031
C32   C     C_R   0.500534 0.501638 0.051818 0.072900
C33   C     C_R   0.572449 0.447986 0.896328 -0.003147
C34   C     C_R   0.427989 0.553449 0.103681 -0.009013
C35   C     C_R   0.355200 0.603449 0.948712 -0.221483
C36   C     C_R   0.645783 0.399560 0.051258 -0.223480
C37   C     C_R   0.355590 0.604539 0.051493 -0.215737
C38   C     C_R   0.645151 0.397766 0.948499 -0.215487
C39   C     C_R   0.809373 0.606840 0.491282 0.077024
C40   C     C_R   0.190454 0.391948 0.511610 0.075975
C41   C     C_R   0.767627 0.496199 0.500132 -0.105831
C42   C     C_R   0.232583 0.502474 0.500230 -0.141631
C43   C     C_R   0.817351 0.386073 0.506788 -0.125651
C44   C     C_R   0.182957 0.612276 0.491019 -0.102006
C45   C     C_R   0.910706 0.387087 0.507872 0.076592
C46   C     C_R   0.089631 0.611351 0.490006 0.070303
C47   C     C_R   0.953299 0.498583 0.498936 0.030405
C48   C     C_R   0.046945 0.500036 0.499293 0.009535
C49   C     C_R   0.902584 0.608636 0.489866 0.075691
C50   C     C_R   0.097608 0.390288 0.510013 0.118534
C51   C     C_R   0.962558 0.278999 0.518149 -0.225823
C52   C     C_R   0.037915 0.719477 0.480198 -0.194690
Cu1   Cu    Cu3+1 0.500010 0.499980 0.597420 0.939641
Cu2   Cu    Cu3+1 0.499990 0.500020 0.402580 0.967422
H1    H     H_    0.624989 0.406706 0.752502 0.121701
H2    H     H_    0.374979 0.593342 0.247558 0.126687
H3    H     H_    0.374744 0.592837 0.752737 0.127292
H4    H     H_    0.625876 0.408857 0.247157 0.127043
H5    H     H_    0.298788 0.643835 0.910122 0.134207
H6    H     H_    0.702403 0.359736 0.089845 0.134325
H7    H     H_    0.299268 0.645192 0.090131 0.134095
H8    H     H_    0.701506 0.357202 0.909863 0.134818
H9    H     H_    0.932828 0.191829 0.526141 0.165674
H10   H     H_    0.067702 0.806641 0.472393 0.162314
H11   H     H_    0.091219 0.195142 0.527655 0.180166
H12   H     H_    0.910071 0.804213 0.472606 0.146433
H13   H     H_    0.436812 0.237569 0.048305 0.134526
H14   H     H_    0.574038 0.755680 0.947995 0.134936
H15   H     H_    0.314457 0.240702 0.168680 0.127001
H16   H     H_    0.688344 0.740278 0.818453 0.127365
H17   H     H_    0.340541 0.161918 0.334567 0.097945
H18   H     H_    0.656104 0.821315 0.654246 0.108126
H19   H     H_    0.615620 0.089891 0.264329 0.112325
H20   H     H_    0.391231 0.926066 0.746606 0.117055
H21   H     H_    0.586983 0.160983 0.096678 0.138795
H22   H     H_    0.425669 0.848403 0.911371 0.137852
N1    N     N_R   0.499960 0.499900 0.743810 -0.183832
N2    N     N_R   0.500040 0.500100 0.256190 -0.182539
O1    O     O_R   0.500000 0.319630 0.582270 -0.599603
O2    O     O_R   0.500000 0.680370 0.417730 -0.539685
O3    O     O_R   0.499990 0.319660 0.417730 -0.571447
O4    O     O_R   0.500010 0.680340 0.582270 -0.586735
O5    O     O_R   0.370260 0.499960 0.582280 -0.599823
O6    O     O_R   0.629740 0.500040 0.417720 -0.590319
O7    O     O_R   0.370250 0.499990 0.417740 -0.594014
O8    O     O_R   0.629750 0.500010 0.582260 -0.594015
N3    N     N_3   0.755591 0.716646 0.485196 -0.621469
H23   H     H_    0.768276 0.758904 0.418819 0.217215
H24   H     H_    0.773515 0.773491 0.542997 0.203191
N4    N     N_3   0.241765 0.281076 0.525510 -0.627732
H25   H     H_    0.278821 0.288926 0.589924 0.222417
H26   H     H_    0.285719 0.270334 0.467112 0.200320
N5    N     N_3   0.502676 0.867959 0.319712 -0.553572
H27   H     H_    0.560633 0.886323 0.282102 0.213524
H28   H     H_    0.447294 0.892190 0.277070 0.217104
N6    N     N_3   0.488826 0.125166 0.683387 -0.600135
H29   H     H_    0.545234 0.174682 0.697432 0.245450
H30   H     H_    0.430336 0.178864 0.686983 0.233665
C53   C     C_R   0.772207 0.269462 0.509319 0.102840
C54   C     C_R   0.744644 0.222763 0.598786 -0.145463
C55   C     C_R   0.713091 0.105398 0.602589 -0.154881
C56   C     C_R   0.708591 0.035059 0.517218 -0.111039
C57   C     C_R   0.735806 0.081208 0.428086 -0.153938
C58   C     C_R   0.767002 0.198618 0.423754 -0.152708
H31   H     H_    0.749996 0.275791 0.665540 0.117015
H32   H     H_    0.692793 0.068586 0.671724 0.133798
H33   H     H_    0.683390 0.945063 0.519645 0.130854
H34   H     H_    0.734013 0.025091 0.362804 0.116454
H35   H     H_    0.789751 0.232973 0.354634 0.123379
C59   C     C_R   0.228103 0.728834 0.487576 0.103808
C60   C     C_R   0.239443 0.795961 0.574193 -0.161391
C61   C     C_R   0.268801 0.914367 0.570074 -0.146825
C62   C     C_R   0.287693 0.965415 0.479910 -0.091899
C63   C     C_R   0.278071 0.898176 0.393527 -0.147428
C64   C     C_R   0.248500 0.779762 0.397194 -0.141322
H36   H     H_    0.222461 0.758140 0.644216 0.124275
H37   H     H_    0.275127 0.967650 0.636398 0.125722
H38   H     H_    0.310126 0.056921 0.477401 0.133235
H39   H     H_    0.292131 0.938407 0.323693 0.122997
H40   H     H_    0.238597 0.729402 0.329826 0.118218

loop_
_geom_bond_atom_site_label_1
_geom_bond_atom_site_label_2
_ccdc_geom_bond_type
C4    H12   S    
N3    H23   S    
C55   C56   A    
C12   H20   S    
C27   C29   A    
C34   C37   A    
C18   N6    S    
C60   C61   A    
C39   N3    S    
Cu2   O6    S    
C63   C64   A    
C47   C49   A    
Cu1   Cu2   S    
C54   H31   S    
N5    H27   S    
C23   C42   S    
C23   O5    A    
C4    C52   A    
C25   N1    A    
Cu1   O1    S    
C43   C53   S    
C7    H17   S    
C58   H35   S    
C9    C22   S    
C45   C51   A    
C1    O3    A    
C18   C21   A    
C46   C52   A    
C35   H5    S    
C59   C60   A    
C5    H15   S    
C26   C34   A    
C13   H21   S    
N6    H30   S    
C31   C33   A    
C60   H36   S    
C16   H14   S    
C28   N2    A    
C63   H39   S    
C48   C50   A    
C53   C58   A    
N5    H28   S    
C24   C41   S    
C41   C43   A    
C3    H11   S    
C42   C44   A    
C61   C62   A    
C3    C50   A    
C44   C46   A    
Cu2   O2    S    
C45   C47   A    
C10   C21   S    
C46   C48   A    
C8    H18   S    
C25   H1    S    
C51   H9    S    
C39   C41   A    
C11   H19   S    
C5    C7    A    
C3    C51   A    
C6    C8    A    
C36   H6    S    
C38   H8    S    
Cu1   O4    S    
C32   C34   A    
Cu1   N1    S    
C43   C45   A    
N4    H26   S    
C47   C48   A    
C15   H13   S    
N6    H29   S    
C56   H33   S    
C26   N2    A    
C9    C11   A    
Cu1   O8    S    
C10   C12   A    
C39   C49   A    
C12   C14   A    
C13   C15   A    
C27   H3    S    
C1    O1    A    
C14   C16   A    
C2    O4    A    
C17   N5    S    
C36   C38   A    
C35   C37   A    
C62   C63   A    
C55   H32   S    
C6    H16   S    
C1    C20   S    
C19   C21   A    
C2    C19   S    
C31   C32   A    
C33   C38   A    
C20   C22   A    
C27   N1    A    
C26   H2    S    
Cu2   O7    S    
C37   H7    S    
C28   H4    S    
C29   C35   A    
C17   C22   A    
C52   H10   S    
C53   C54   A    
C30   C36   A    
C4    C49   A    
Cu1   O5    S    
C28   C30   A    
C24   O6    A    
C29   C31   A    
C30   C32   A    
C11   C13   A    
N4    H25   S    
C61   H37   S    
C40   C50   A    
C40   C42   A    
C54   C55   A    
C17   C19   A    
C18   C20   A    
C56   C57   A    
C5    C15   A    
C2    O2    A    
C6    C16   A    
C62   H38   S    
C7    C9    A    
C8    C10   A    
C64   H40   S    
C23   O7    A    
C25   C33   A    
C57   C58   A    
N3    H24   S    
C57   H34   S    
C40   N4    S    
C24   O8    A    
C59   C64   A    
Cu2   O3    S    
C14   H22   S    
Cu2   N2    S    
C44   C59   S    
