data_mof_unit_5303.cif
_audit_creation_date              2012-12-11T15:13:52-0500
_audit_creation_method            fapswitch 2.2
_symmetry_space_group_name_H-M    P1
_symmetry_Int_Tables_number       1
_space_group_crystal_system       triclinic
_cell_length_a                    6.946788
_cell_length_b                    13.490625
_cell_length_c                    20.129578
_cell_angle_alpha                 104.092905
_cell_angle_beta                  89.939933
_cell_angle_gamma                 90.703985
_cell_volume                      1829.55329305

loop_
_atom_site_label
_atom_site_type_symbol
_atom_type_description
_atom_site_fract_x
_atom_site_fract_y
_atom_site_fract_z
_atom_type_partial_charge
O1    O     O_R   0.506780 0.600060 0.449950 -0.534415
O2    O     O_R   0.179840 0.597110 0.589410 -0.545012
O3    O     O_R   0.004570 0.399940 0.550050 -0.540505
C1    C     C_R   0.348610 0.618756 0.616855 0.678153
O4    O     O_R   0.177380 0.612160 0.452890 -0.539888
O5    O     O_R   0.002100 0.415100 0.412560 -0.526985
C2    C     C_R   0.347081 0.638932 0.436171 0.713777
O6    O     O_R   0.509250 0.584900 0.587440 -0.541019
O7    O     O_3   0.337570 0.435330 0.486930 -0.369095
V1    V     V_3+5 0.064650 0.512000 0.502430 1.434105
O8    O     O_R   0.672090 0.402890 0.410590 -0.544778
C3    C     C_R   0.840519 0.381287 0.383046 0.692777
O9    O     O_R   0.674540 0.387840 0.547110 -0.543158
C4    C     C_R   0.842731 0.360442 0.562970 0.689571
V2    V     V_3+5 0.564040 0.488000 0.497570 1.428227
O10   O     O_3   0.840990 0.564670 0.513070 -0.369626
C5    C     C_R   0.871886 0.105387 0.604580 -0.137645
H1    H     H_    0.863697 0.156567 0.511770 0.100207
H2    H     H_    0.899055 0.978851 0.684644 0.125770
H3    H     H_    0.882130 0.025803 0.577184 0.125037
C6    C     C_R   0.849896 0.282154 0.601433 -0.031806
C7    C     C_R   0.847033 0.316180 0.930247 -0.190465
C8    C     C_R   0.834766 0.392073 0.895004 -0.102840
C9    C     C_R   0.837476 0.367243 0.823864 -0.144872
C10   C     C_R   0.853804 0.264485 0.785471 0.032152
C11   C     C_R   0.867941 0.185723 0.821723 0.067290
C12   C     C_R   0.856539 0.237974 0.712267 0.069680
C13   C     C_R   0.870494 0.133752 0.676507 0.111616
C14   C     C_R   0.885498 0.058217 0.712333 -0.258890
C15   C     C_R   0.886919 0.082344 0.783679 0.139559
C16   C     C_R   0.846876 0.311468 0.672896 -0.203093
C17   C     C_R   0.861518 0.179340 0.567236 -0.177476
C18   C     C_R   0.862992 0.213857 0.894839 -0.077680
H4    H     H_    0.838305 0.392249 0.695652 0.087538
H5    H     H_    0.843293 0.337355 0.985763 0.109808
H6    H     H_    0.825968 0.430913 0.800784 0.100866
H7    H     H_    0.822083 0.471109 0.923092 0.130662
C19   C     C_3   0.680859 0.209496 0.231937 -0.110198
C20   C     C_3   0.797768 0.195921 0.294770 -0.185590
H8    H     H_    0.748322 0.152430 0.331985 0.105740
H9    H     H_    0.536588 0.175282 0.216685 0.107285
C21   C     C_3   0.849222 0.311091 0.312520 -0.018551
C22   C     C_3   0.732899 0.325310 0.250266 -0.164987
C23   C     C_3   0.915979 0.303021 0.204899 -0.144828
C24   C     C_3   0.028020 0.288047 0.267354 0.253151
C25   C     C_3   0.981414 0.172961 0.249530 -0.181980
C26   C     C_3   0.864314 0.187972 0.187611 -0.031281
H10   H     H_    0.086314 0.111341 0.249056 0.110801
C27   C     C_3   0.539020 0.736840 0.726149 -0.174538
C28   C     C_3   0.433175 0.840651 0.747877 -0.191810
H11   H     H_    0.493090 0.916562 0.746029 0.122013
H12   H     H_    0.689574 0.725679 0.707498 0.113319
C29   C     C_3   0.356279 0.811010 0.812579 -0.021280
C30   C     C_3   0.458720 0.708738 0.790424 0.248330
C31   C     C_3   0.278701 0.657983 0.751781 -0.136391
C32   C     C_3   0.174237 0.762090 0.773379 -0.169514
C33   C     C_3   0.250864 0.791326 0.708071 -0.130725
C34   C     C_3   0.356099 0.688330 0.687409 -0.029416
H13   H     H_    0.218035 0.582155 0.753584 0.104057
H14   H     H_    0.024200 0.772377 0.792653 0.114704
H15   H     H_    0.164462 0.825534 0.673164 0.106424
C35   C     C_R   0.446504 0.890261 0.390670 -0.169314
H16   H     H_    0.473799 0.014061 0.307387 0.112266
H17   H     H_    0.484947 0.968595 0.415779 0.122288
C36   C     C_R   0.362167 0.718980 0.398386 -0.078450
C37   C     C_R   0.326757 0.682114 0.067641 -0.267543
C38   C     C_R   0.337737 0.602697 0.100770 0.276972
C39   C     C_R   0.371288 0.624325 0.171790 0.186704
C40   C     C_R   0.374956 0.728337 0.211777 -0.011965
C41   C     C_R   0.381088 0.807413 0.175604 0.036310
C42   C     C_R   0.380332 0.757908 0.285459 0.089810
C43   C     C_R   0.424787 0.860950 0.319225 0.102778
C44   C     C_R   0.443380 0.934959 0.281840 -0.200124
C45   C     C_R   0.415565 0.909429 0.211599 -0.167369
C46   C     C_R   0.334251 0.690732 0.327294 -0.278921
C47   C     C_R   0.420600 0.819774 0.430614 0.203515
C48   C     C_R   0.356201 0.783119 0.103672 -0.114774
H18   H     H_    0.273236 0.616165 0.306261 0.134284
H19   H     H_    0.305383 0.664786 0.012637 0.127470
H20   H     H_    0.424633 0.970706 0.185542 0.107038
O11   O     O_R   0.203580 0.914920 0.912610 -0.536032
O12   O     O_R   0.535710 0.887810 0.047120 -0.539364
O13   O     O_R   0.710730 0.084950 0.087430 -0.544577
C49   C     C_R   0.366390 0.861610 0.064357 0.717809
O14   O     O_R   0.533010 0.902850 0.910600 -0.539026
O15   O     O_R   0.708010 0.100090 0.949930 -0.535895
C50   C     C_R   0.364161 0.880834 0.883211 0.704895
O16   O     O_R   0.206300 0.899780 0.050100 -0.541615
O17   O     O_3   0.375170 0.064580 0.013100 -0.373939
V3    V     V_3+5 0.648200 0.988020 0.997570 1.445728
O18   O     O_R   0.038030 0.112330 0.952840 -0.535407
C51   C     C_R   0.869846 0.138971 0.936344 0.778704
O19   O     O_R   0.040730 0.097300 0.089360 -0.547802
C52   C     C_R   0.872477 0.118414 0.117004 0.680823
V4    V     V_3+5 0.148780 0.012220 0.002360 1.438292
O20   O     O_3   0.871930 0.935430 0.986900 -0.366016
H21   H     H_    0.631090 0.388231 0.251107 0.136855
H22   H     H_    0.967583 0.346913 0.168178 0.107025
N1    N     N_3   0.218077 0.332422 0.286356 -0.674497
H23   H     H_    0.303370 0.313405 0.242479 0.216112
H24   H     H_    0.276474 0.295825 0.321734 0.230245
N2    N     N_3   0.571366 0.663198 0.836031 -0.684815
H25   H     H_    0.622599 0.593582 0.806923 0.214760
H26   H     H_    0.691875 0.710278 0.851465 0.225527
N3    N     N_3   0.451882 0.853777 0.503354 -0.673076
H27   H     H_    0.430522 0.794978 0.528103 0.208552
H28   H     H_    0.348422 0.908826 0.522942 0.221423
N4    N     N_3   0.433579 0.540006 0.197929 -0.664467
H29   H     H_    0.536317 0.562870 0.236682 0.231225
H30   H     H_    0.314759 0.502633 0.213006 0.232216
N5    N     N_3   0.325528 0.498084 0.062009 -0.630640
H31   H     H_    0.310248 0.494076 0.009735 0.222973
H32   H     H_    0.199837 0.466232 0.077124 0.218872
N6    N     N_3   0.914030 0.000417 0.816390 -0.656450
H33   H     H_    0.046773 0.967421 0.800562 0.230486
H34   H     H_    0.806586 0.945107 0.799719 0.217838

loop_
_geom_bond_atom_site_label_1
_geom_bond_atom_site_label_2
_ccdc_geom_bond_type
C31   C32   S    
C47   N3    S    
C31   H13   S    
C44   C45   A    
N5    H31   S    
C1    O6    A    
N6    H33   S    
C29   C30   S    
C32   C33   S    
C7    H5    S    
N3    H28   S    
O19   C52   A    
C36   C47   A    
C4    C6    S    
C13   C14   A    
O5    C3    A    
C19   C20   S    
O11   V4    S    
V2    O10   S    
C5    H3    S    
N4    H29   S    
C40   C42   A    
C3    C21   S    
C30   C31   S    
C23   H22   S    
V4    O20   S    
C39   C40   A    
C41   C45   A    
C35   H17   S    
C8    C9    A    
O1    V2    S    
O7    V1    S    
C23   C26   S    
C37   C38   A    
O16   V4    S    
O19   V4    S    
C45   H20   S    
O9    C4    A    
C41   C48   A    
C28   C33   S    
C35   C47   A    
N2    H25   S    
O8    V2    S    
O4    V1    S    
C20   C21   S    
O14   C50   A    
C6    C17   A    
C25   H10   S    
C28   C29   S    
C12   C16   A    
C38   C39   A    
C49   O16   A    
C9    C10   A    
C19   H9    S    
C29   C50   S    
C24   N1    S    
C18   C51   S    
C20   H8    S    
O4    C2    A    
H16   C44   S    
C48   C49   S    
C10   C11   A    
C8    H7    S    
O13   C52   A    
V3    O20   S    
O13   V3    S    
C27   C34   S    
C32   H14   S    
C21   C24   S    
O17   V4    S    
O2    C1    A    
C22   C23   S    
C14   C15   A    
C37   H19   S    
C2    C36   S    
C6    C16   A    
C11   C18   A    
N1    H23   S    
O14   V3    S    
C27   H12   S    
C28   H11   S    
C16   H4    S    
C35   C43   A    
N5    H32   S    
C9    H6    S    
N2    H26   S    
C19   C26   S    
O11   C50   A    
O3    C4    A    
C20   C25   S    
C38   N5    S    
N1    H24   S    
C11   C15   A    
O6    V2    S    
O12   C49   A    
O9    V2    S    
O15   V3    S    
H1    C17   S    
C21   C22   S    
O2    V1    S    
O18   C51   A    
C23   C24   S    
C15   N6    S    
C29   C32   S    
C7    C18   A    
C25   C26   S    
O1    C2    A    
C5    C13   A    
C30   N2    S    
C22   H21   S    
C43   C44   A    
C36   C46   A    
O5    V1    S    
N6    H34   S    
O8    C3    A    
C33   H15   S    
C10   C12   A    
N3    H27   S    
O12   V3    S    
O7    V2    S    
C19   C22   S    
O3    V1    S    
V1    O10   S    
C42   C46   A    
C33   C34   S    
C26   C52   S    
N4    H30   S    
C37   C48   A    
C40   C41   A    
C46   H18   S    
O18   V4    S    
C24   C25   S    
C42   C43   A    
C27   C28   S    
C31   C34   S    
C1    C34   S    
C12   C13   A    
C5    C17   A    
C7    C8    A    
O15   C51   A    
C39   N4    S    
O17   V3    S    
C27   C30   S    
H2    C14   S    
