data_mof_unit_23756.cif
_audit_creation_date              2012-10-26T18:33:26-0400
_audit_creation_method            fapswitch 2.2
_symmetry_space_group_name_H-M    P1
_symmetry_Int_Tables_number       1
_space_group_crystal_system       triclinic
_cell_length_a                    15.078124
_cell_length_b                    13.737233
_cell_length_c                    10.810076
_cell_angle_alpha                 90.205288
_cell_angle_beta                  88.566612
_cell_angle_gamma                 90.083421
_cell_volume                      2238.39233229

loop_
_atom_site_label
_atom_site_type_symbol
_atom_type_description
_atom_site_fract_x
_atom_site_fract_y
_atom_site_fract_z
_atom_type_partial_charge
C1    C     C_R   0.328483 0.500199 0.504227 0.612730
C2    C     C_R   0.041253 0.425293 0.718799 0.281773
C3    C     C_R   0.091081 0.472055 0.623280 -0.036449
C4    C     C_R   0.498927 0.499853 0.260014 0.670708
C5    C     C_R   0.045903 0.518756 0.527304 -0.130957
C6    C     C_R   0.094107 0.563258 0.429372 -0.048240
C7    C     C_R   0.049973 0.624946 0.346975 0.284308
C8    C     C_R   0.957804 0.624282 0.345564 0.436083
C9    C     C_R   0.185088 0.475475 0.621518 0.240232
C10   C     C_R   0.231241 0.502505 0.511875 0.025201
C11   C     C_R   0.184662 0.541344 0.413035 0.218047
C12   C     C_3   0.599185 0.486900 0.927212 0.759772
C13   C     C_R   0.433174 0.792910 0.561224 0.464522
C14   C     C_R   0.434077 0.207374 0.563246 0.473305
C15   C     C_R   0.564693 0.793511 0.436082 0.512555
C16   C     C_R   0.564302 0.206358 0.435370 0.503131
C17   C     C_R   0.566566 0.896528 0.436457 -0.066570
C18   C     C_R   0.566374 0.103402 0.436170 -0.062997
C19   C     C_R   0.671390 0.500172 0.501009 0.642076
C20   C     C_R   0.499197 0.948260 0.501820 -0.177856
C21   C     C_R   0.499275 0.051862 0.502137 -0.179567
C22   C     C_R   0.430463 0.896265 0.563165 -0.038293
C23   C     C_R   0.817965 0.548971 0.413516 0.237786
C24   C     C_R   0.431307 0.103992 0.565439 -0.041591
C25   C     C_R   0.633339 0.948932 0.371942 0.446926
C26   C     C_R   0.633147 0.050858 0.371606 0.441062
C27   C     C_R   0.361461 0.051659 0.625722 0.302627
C28   C     C_R   0.360204 0.948453 0.622411 0.298171
C29   C     C_R   0.501638 0.499653 0.740285 0.619495
C30   C     C_3   0.453495 0.593318 0.072356 0.102752
C31   C     C_3   0.451990 0.404746 0.074778 0.106121
C32   C     C_3   0.466608 0.598683 0.929382 0.065493
C33   C     C_3   0.440323 0.415115 0.933502 0.072393
C34   C     C_R   0.768173 0.502199 0.507205 -0.001463
C35   C     C_3   0.596646 0.496883 0.071093 0.621729
C36   C     C_3   0.498863 0.498982 0.122254 -0.017894
C37   C     C_3   0.502794 0.498282 0.878365 -0.072951
C38   C     C_3   0.096854 0.282161 0.785864 -0.029393
C39   C     C_3   0.229068 0.543681 0.799989 -0.087539
C40   C     C_3   0.191679 0.482327 0.216770 -0.017435
C41   C     C_3   0.124729 0.766941 0.322374 -0.056419
C42   C     C_3   0.298135 0.118654 0.801970 -0.070366
C43   C     C_3   0.281832 0.885230 0.789514 -0.054272
C44   C     C_3   0.327647 0.688225 0.112664 -0.101728
C45   C     C_R   0.810345 0.462482 0.609689 0.399989
C46   C     C_3   0.350590 0.289939 0.149886 -0.107581
C47   C     C_3   0.487933 0.765793 0.891090 -0.057701
C48   C     C_3   0.506947 0.261464 0.869088 -0.011139
C49   C     C_3   0.807355 0.496202 0.216002 0.092860
C50   C     C_R   0.903253 0.468265 0.618492 -0.000378
C51   C     C_R   0.952578 0.518716 0.526265 -0.166141
C52   C     C_R   0.908975 0.565420 0.428892 -0.033390
C53   C     C_R   0.948139 0.424545 0.716434 0.450466
Cu1   Cu    Cu3+1 0.499990 0.597420 0.500010 1.200862
Cu2   Cu    Cu3+1 0.499990 0.402580 0.500010 1.201751
F1    F     F_    0.916562 0.680354 0.261165 -0.511713
F2    F     F_    0.655365 0.556805 0.875828 -0.468219
F3    F     F_    0.635492 0.398536 0.892760 -0.546292
F4    F     F_    0.760595 0.416878 0.698550 -0.483333
F5    F     F_    0.902412 0.379212 0.809594 -0.512871
F6    F     F_    0.369520 0.740847 0.621791 -0.633026
F7    F     F_    0.370919 0.259954 0.624139 -0.565222
F8    F     F_    0.626619 0.742589 0.369838 -0.483277
F9    F     F_    0.625680 0.257121 0.368148 -0.523482
F10   F     F_    0.699309 0.901972 0.308231 -0.473758
F11   F     F_    0.698921 0.097689 0.307525 -0.501064
F12   F     F_    0.638921 0.582210 0.105537 -0.524769
F13   F     F_    0.641169 0.419096 0.122118 -0.595782
H1    H     H_    0.487659 0.657109 0.114416 0.210331
H2    H     H_    0.250136 0.526895 0.894728 0.142253
H3    H     H_    0.228178 0.485571 0.126970 0.218634
H4    H     H_    0.121375 0.497072 0.195493 0.131356
H5    H     H_    0.197310 0.407462 0.254292 0.111243
H6    H     H_    0.173615 0.749846 0.394600 0.149593
H7    H     H_    0.067752 0.808413 0.363475 0.166808
H8    H     H_    0.158377 0.814726 0.253243 0.127177
H9    H     H_    0.355457 0.081359 0.844458 0.057945
H10   H     H_    0.236936 0.095330 0.852582 0.102366
H11   H     H_    0.304609 0.198023 0.817789 0.225955
H12   H     H_    0.497535 0.344535 0.097462 0.169779
H13   H     H_    0.342813 0.908831 0.837659 0.041700
H14   H     H_    0.271515 0.806628 0.808310 0.152464
H15   H     H_    0.223942 0.924081 0.831042 0.139523
H16   H     H_    0.332069 0.725244 0.021843 0.055051
H17   H     H_    0.360484 0.731705 0.185515 0.129485
H18   H     H_    0.256113 0.684310 0.137324 0.214799
H19   H     H_    0.396698 0.256585 0.216338 0.134504
H20   H     H_    0.354156 0.250739 0.059810 0.136573
H21   H     H_    0.282425 0.280167 0.188169 0.126584
H22   H     H_    0.471879 0.794666 0.984947 0.096522
H23   H     H_    0.401352 0.611458 0.886202 0.117733
H24   H     H_    0.428437 0.764061 0.833378 0.132289
H25   H     H_    0.535636 0.817049 0.846400 0.169796
H26   H     H_    0.546191 0.262748 0.953539 0.167532
H27   H     H_    0.551155 0.273111 0.787135 0.222850
H28   H     H_    0.481899 0.185992 0.860796 0.089313
H29   H     H_    0.777925 0.424511 0.241336 0.187697
H30   H     H_    0.880705 0.488523 0.208438 0.088334
H31   H     H_    0.786456 0.516517 0.122217 0.280068
H32   H     H_    0.372812 0.445213 0.925043 0.202584
H33   H     H_    0.129900 0.246650 0.864287 0.137730
H34   H     H_    0.141365 0.274308 0.702704 0.167516
H35   H     H_    0.033129 0.243250 0.771419 0.161793
H36   H     H_    0.161107 0.574835 0.810970 0.143242
H37   H     H_    0.274683 0.599316 0.759445 0.141235
N1    N     N_R   0.499930 0.743810 0.499950 -0.256337
N2    N     N_R   0.499930 0.256190 0.499950 -0.268442
O1    O     O_R   0.370250 0.582280 0.500040 -0.460935
O2    O     O_3   0.231647 0.457661 0.727597 -0.511181
O3    O     O_3   0.227070 0.552102 0.298934 -0.519277
O4    O     O_3   0.095990 0.681872 0.261827 -0.523905
O5    O     O_3   0.287890 0.100229 0.674148 -0.501751
O6    O     O_3   0.283599 0.899836 0.660067 -0.493488
O7    O     O_3   0.361946 0.592645 0.105814 -0.555511
O8    O     O_3   0.368497 0.390489 0.135767 -0.544577
O9    O     O_3   0.528475 0.673734 0.897806 -0.467260
O10   O     O_3   0.433250 0.325243 0.867166 -0.541461
O11   O     O_3   0.779308 0.568930 0.301655 -0.420837
O12   O     O_R   0.370250 0.417720 0.500040 -0.448886
O13   O     O_R   0.499970 0.582270 0.317700 -0.474911
O14   O     O_R   0.499970 0.417730 0.317700 -0.469416
O15   O     O_R   0.629730 0.582260 0.499980 -0.428340
O16   O     O_R   0.629730 0.417740 0.499980 -0.437070
O17   O     O_R   0.500000 0.582270 0.682320 -0.464162
O18   O     O_R   0.500000 0.417730 0.682320 -0.446326
O19   O     O_3   0.082631 0.380898 0.816353 -0.510092

loop_
_geom_bond_atom_site_label_1
_geom_bond_atom_site_label_2
_ccdc_geom_bond_type
Cu2   O14   S    
C19   O15   A    
C33   O10   S    
C48   H27   S    
Cu1   O13   S    
C18   C21   A    
C43   H15   S    
C47   H24   S    
C35   C36   S    
C18   C26   A    
C24   C27   A    
C8    F1    S    
C23   O11   S    
C4    C36   S    
C7    C8    A    
C46   H21   S    
Cu2   O12   S    
C19   O16   A    
C48   H26   S    
C46   O8    S    
C35   F13   S    
C15   N1    A    
C40   H3    S    
C38   H33   S    
C29   O18   A    
C5    C6    A    
C32   H23   S    
C41   H7    S    
C14   F7    S    
C29   O17   A    
C17   C20   A    
C40   H5    S    
C15   C17   A    
C1    O12   A    
C14   C24   A    
C12   C37   S    
C42   O5    S    
C16   N2    A    
C49   H30   S    
Cu2   O18   S    
C4    O14   A    
C31   C33   S    
C48   H28   S    
C9    C10   A    
C8    C52   A    
C12   F3    S    
C41   H6    S    
C44   O7    S    
C42   H11   S    
C22   C28   A    
C11   O3    S    
C44   H18   S    
C31   O8    S    
C38   O19   S    
C53   F5    S    
C46   H20   S    
C9    O2    S    
C47   O9    S    
Cu2   O16   S    
C50   C53   A    
Cu1   N1    S    
C51   C52   A    
C26   F11   S    
C39   H36   S    
C25   F10   S    
C31   H12   S    
C28   O6    S    
C6    C11   A    
C40   O3    S    
C44   H16   S    
C25   C26   A    
C19   C34   S    
C33   C37   S    
Cu2   N2    S    
C38   H35   S    
C3    C9    A    
C49   H31   S    
C49   O11   S    
C35   F12   S    
C23   C34   A    
C50   C51   A    
C47   H25   S    
C34   C45   A    
C32   C37   S    
C32   O9    S    
C12   C35   S    
C6    C7    A    
C12   F2    S    
C2    O19   S    
C14   N2    A    
C20   C22   A    
C27   O5    S    
C42   H10   S    
C43   H13   S    
C47   H22   S    
C44   H17   S    
C30   H1    S    
C46   H19   S    
C30   O7    S    
C39   H37   S    
Cu1   O17   S    
Cu1   Cu2   S    
C45   F4    S    
C40   H4    S    
C4    O13   A    
C1    C10   S    
C13   N1    A    
C3    C5    A    
C2    C53   A    
C48   O10   S    
C30   C36   S    
Cu1   O1    S    
C33   H32   S    
C17   C25   A    
C2    C3    A    
C38   H34   S    
C43   O6    S    
C41   H8    S    
C30   C32   S    
C23   C52   A    
C45   C50   A    
C39   H2    S    
C7    O4    S    
C13   C22   A    
Cu1   O15   S    
C10   C11   A    
C1    O1    A    
C49   H29   S    
C39   O2    S    
C13   F6    S    
C20   C21   A    
C42   H9    S    
C16   C18   A    
C41   O4    S    
C21   C24   A    
C29   C37   S    
C27   C28   A    
C43   H14   S    
C15   F8    S    
C31   C36   S    
C5    C51   A    
C16   F9    S    
