data_mof_unit_25940.cif
_audit_creation_date              2012-12-11T15:39:10-0500
_audit_creation_method            fapswitch 2.2
_symmetry_space_group_name_H-M    P1
_symmetry_Int_Tables_number       1
_space_group_crystal_system       triclinic
_cell_length_a                    14.350804
_cell_length_b                    14.77031
_cell_length_c                    33.186037
_cell_angle_alpha                 97.808566
_cell_angle_beta                  89.983832
_cell_angle_gamma                 118.781939
_cell_volume                      6090.90203843

loop_
_atom_site_label
_atom_site_type_symbol
_atom_type_description
_atom_site_fract_x
_atom_site_fract_y
_atom_site_fract_z
_atom_type_partial_charge
C1    C     C_R   0.617319 0.910122 0.437104 0.540349
C2    C     C_R   0.740139 0.425714 0.188245 0.010442
C3    C     C_R   0.751578 0.856620 0.636847 -0.169321
C4    C     C_R   0.664133 0.787656 0.656393 0.042171
C5    C     C_R   0.632424 0.861182 0.586315 -0.020773
C6    C     C_R   0.052625 0.781679 0.063578 0.545899
C7    C     C_R   0.744061 0.487252 0.066329 0.545826
C8    C     C_R   0.742726 0.789291 0.066390 0.552446
C9    C     C_R   0.023659 0.733310 0.947988 0.533230
C10   C     C_R   0.712290 0.436856 0.949487 0.531758
C11   C     C_R   0.743557 0.716348 0.945926 0.565883
C12   C     C_R   0.831699 0.451402 0.166949 -0.129969
C13   C     C_R   0.830955 0.464321 0.126187 -0.130627
C14   C     C_R   0.775768 0.353398 0.246171 -0.093326
C15   C     C_R   0.770385 0.341477 0.287163 -0.092779
C16   C     C_R   0.735547 0.398121 0.314638 0.039506
C17   C     C_R   0.712756 0.471699 0.301001 -0.096175
C18   C     C_R   0.718423 0.483730 0.260008 -0.080875
C19   C     C_R   0.746075 0.421761 0.232175 0.039832
C20   C     C_R   0.610517 0.350844 0.369722 -0.119495
C21   C     C_R   0.594228 0.205700 0.456649 0.541993
C22   C     C_R   0.575226 0.302885 0.404186 -0.129472
C23   C     C_R   0.741102 0.299234 0.412730 -0.123924
C24   C     C_R   0.776331 0.347190 0.378270 -0.113213
C25   C     C_R   0.709624 0.369682 0.355629 0.033007
C26   C     C_R   0.638517 0.272944 0.425033 0.021476
C27   C     C_R   0.246203 0.879941 0.393456 0.021171
C28   C     C_R   0.273711 0.971059 0.376469 -0.180943
C29   C     C_R   0.245706 0.965195 0.335831 -0.149477
C30   C     C_R   0.186582 0.868338 0.311459 -0.018766
C31   C     C_R   0.150297 0.775605 0.328448 0.002699
C32   C     C_R   0.295432 0.892753 0.434486 0.571800
C33   C     C_R   0.183742 0.780962 0.369280 0.241820
C34   C     C_R   0.200130 0.815771 0.163382 -0.112251
C35   C     C_R   0.177685 0.798106 0.121114 -0.016853
C36   C     C_R   0.071233 0.885978 0.130933 -0.136996
C37   C     C_R   0.093734 0.902786 0.172985 -0.114054
C38   C     C_R   0.154516 0.863963 0.189252 0.026673
C39   C     C_1   0.163924 0.866616 0.232423 -0.013532
C40   C     C_1   0.171967 0.866754 0.268476 -0.013042
C41   C     C_R   0.107864 0.828556 0.104676 0.007332
C42   C     C_R   0.639470 0.877977 0.395801 0.021683
C43   C     C_R   0.613101 0.905255 0.551882 0.544844
C44   C     C_R   0.557676 0.794214 0.369546 -0.133801
C45   C     C_R   0.569469 0.780803 0.327760 -0.117471
C46   C     C_R   0.663504 0.850213 0.312069 0.039121
C47   C     C_R   0.748491 0.928283 0.338338 -0.113590
C48   C     C_R   0.736801 0.941996 0.380042 -0.123634
C49   C     C_R   0.776935 0.918778 0.174889 -0.115988
C50   C     C_R   0.792147 0.906766 0.133365 -0.130682
C51   C     C_R   0.617916 0.751835 0.121585 -0.115449
C52   C     C_R   0.602797 0.764233 0.163018 -0.108257
C53   C     C_R   0.683914 0.845302 0.189838 0.037484
C54   C     C_R   0.588016 0.197459 0.571222 0.545407
C55   C     C_1   0.675746 0.847116 0.232858 -0.029386
C56   C     C_1   0.669938 0.847418 0.268953 -0.029382
C57   C     C_R   0.714760 0.820252 0.106682 0.020555
C58   C     C_R   0.611163 0.235256 0.615548 -0.037154
C59   C     C_R   0.523603 0.200812 0.639783 -0.154220
C60   C     C_R   0.538288 0.215619 0.681928 -0.160359
C61   C     C_R   0.640792 0.268944 0.701005 0.030204
C62   C     C_R   0.730035 0.313760 0.677773 0.273486
C63   C     C_R   0.715472 0.292166 0.634763 -0.014093
C64   C     C_R   0.757981 0.327134 0.847036 -0.125441
C65   C     C_R   0.289240 0.887470 0.548758 0.547139
C66   C     C_R   0.770045 0.361342 0.888993 -0.132704
C67   C     C_R   0.590808 0.338213 0.886720 -0.125728
C68   C     C_R   0.578963 0.303916 0.844809 -0.114756
C69   C     C_R   0.663958 0.302283 0.824759 0.027572
C70   C     C_1   0.658400 0.286713 0.781108 -0.018803
C71   C     C_1   0.652147 0.277824 0.744548 0.012856
C72   C     C_R   0.688355 0.372021 0.908905 0.020304
C73   C     C_R   0.080831 0.762005 0.911328 0.002458
C74   C     C_R   0.126720 0.865483 0.903941 -0.140670
C75   C     C_R   0.162634 0.889681 0.865948 -0.156690
C76   C     C_R   0.738415 0.451763 0.106052 0.005014
C77   C     C_R   0.152438 0.810752 0.834679 0.024915
C78   C     C_R   0.112200 0.707360 0.842793 0.016821
C79   C     C_R   0.077704 0.684048 0.881251 -0.140359
C80   C     C_R   0.239072 0.811351 0.768830 0.280913
C81   C     C_R   0.236134 0.815132 0.727228 -0.142981
C82   C     C_R   0.175181 0.853305 0.710106 -0.025368
C83   C     C_R   0.120127 0.892950 0.735482 0.256779
C84   C     C_R   0.114343 0.878820 0.776402 -0.162000
C85   C     C_R   0.170998 0.835540 0.792961 -0.035413
C86   C     C_R   0.209337 0.948744 0.651141 -0.089955
C87   C     C_R   0.644708 0.419369 0.126585 -0.126181
C88   C     C_R   0.233250 0.955225 0.610819 -0.137256
C89   C     C_R   0.185590 0.772040 0.598989 -0.135404
C90   C     C_R   0.157601 0.764662 0.639115 -0.137426
C91   C     C_R   0.175159 0.854469 0.665969 0.060309
C92   C     C_R   0.229569 0.869096 0.585398 0.022101
C93   C     C_R   0.726094 0.700592 0.901272 0.015094
C94   C     C_R   0.624768 0.658702 0.881043 -0.125022
C95   C     C_R   0.615211 0.657035 0.838859 -0.118520
C96   C     C_R   0.706476 0.694415 0.816565 0.049128
C97   C     C_R   0.806155 0.728105 0.836506 -0.077238
C98   C     C_R   0.644848 0.406032 0.167436 -0.004746
C99   C     C_R   0.815898 0.733187 0.878497 -0.141482
C100  C     C_R   0.759920 0.817227 0.765825 0.259204
C101  C     C_R   0.750138 0.839282 0.726915 -0.090146
C102  C     C_R   0.681814 0.760057 0.695937 0.000553
C103  C     C_R   0.626314 0.656537 0.703761 -0.098738
C104  C     C_R   0.634633 0.633070 0.742680 -0.052671
C105  C     C_R   0.700725 0.713877 0.774253 0.005729
C106  C     C_R   0.559680 0.752238 0.639937 0.272341
C107  C     C_R   0.544984 0.790331 0.605210 -0.118995
C108  C     C_R   0.735892 0.893430 0.602229 -0.141933
Cr1   Cr    Cr6+3 0.424820 0.846020 0.489780 1.005964
Cr2   Cr    Cr6+3 0.657880 0.078580 0.505700 1.037965
Cr3   Cr    Cr6+3 0.417280 0.075360 0.504550 1.009107
Cr4   Cr    Cr6+3 0.903360 0.812540 0.006510 1.007349
Cr5   Cr    Cr6+3 0.914630 0.587050 0.006280 1.024194
Cr6   Cr    Cr6+3 0.673560 0.582680 0.008540 1.020201
H1    H     H_    0.572296 0.408040 0.111269 0.135759
H2    H     H_    0.496038 0.284015 0.413062 0.125141
H3    H     H_    0.905116 0.465705 0.182402 0.131787
H4    H     H_    0.792291 0.278345 0.428551 0.127661
H5    H     H_    0.249326 0.787922 0.176243 0.116335
H6    H     H_    0.322712 0.047941 0.393987 0.145000
H7    H     H_    0.058931 0.941039 0.192874 0.115439
H8    H     H_    0.017421 0.910098 0.119375 0.132152
H9    H     H_    0.904493 0.489515 0.111153 0.141959
H10   H     H_    0.273187 0.036834 0.323040 0.130870
H11   H     H_    0.867539 0.960549 0.122798 0.123415
H12   H     H_    0.839971 0.982010 0.195569 0.107871
H13   H     H_    0.821820 0.981859 0.326373 0.109103
H14   H     H_    0.801588 0.006834 0.399485 0.129569
H15   H     H_    0.482329 0.743316 0.380852 0.110435
H16   H     H_    0.530324 0.707384 0.174401 0.117329
H17   H     H_    0.556690 0.684746 0.101709 0.134593
H18   H     H_    0.503523 0.719635 0.307546 0.108971
H19   H     H_    0.846105 0.386552 0.905168 0.128412
H20   H     H_    0.853686 0.362400 0.368234 0.112574
H21   H     H_    0.824053 0.325766 0.831686 0.119898
H22   H     H_    0.442828 0.156448 0.626034 0.138481
H23   H     H_    0.505740 0.284463 0.827695 0.121621
H24   H     H_    0.526389 0.345345 0.901080 0.131831
H25   H     H_    0.469236 0.183606 0.699660 0.121552
H26   H     H_    0.130262 0.926776 0.926960 0.127068
H27   H     H_    0.041542 0.603705 0.886762 0.126886
H28   H     H_    0.130265 0.690894 0.650135 0.105208
H29   H     H_    0.787274 0.283392 0.296832 0.102767
H30   H     H_    0.283962 0.790501 0.708328 0.140471
H31   H     H_    0.193700 0.969345 0.860248 0.106679
H32   H     H_    0.062102 0.897547 0.794930 0.140243
H33   H     H_    0.227170 0.019724 0.671319 0.105903
H34   H     H_    0.264652 0.030736 0.600891 0.121271
H35   H     H_    0.179957 0.704058 0.579664 0.129044
H36   H     H_    0.554270 0.632867 0.898004 0.130001
H37   H     H_    0.798107 0.305715 0.225042 0.107783
H38   H     H_    0.894486 0.765819 0.893367 0.127354
H39   H     H_    0.832299 0.883968 0.649032 0.136792
H40   H     H_    0.793522 0.919264 0.721262 0.110756
H41   H     H_    0.537574 0.631679 0.824008 0.126832
H42   H     H_    0.575983 0.594159 0.679550 0.134972
H43   H     H_    0.464857 0.768689 0.594232 0.130435
H44   H     H_    0.877380 0.756431 0.819888 0.139449
H45   H     H_    0.804503 0.948250 0.588290 0.141832
H46   H     H_    0.687062 0.517110 0.321766 0.108521
H47   H     H_    0.697865 0.538844 0.249700 0.117493
H48   H     H_    0.557147 0.366588 0.352555 0.109682
O1    O     O_R   0.318160 0.824460 0.443680 -0.493519
O2    O     O_R   0.645130 0.163230 0.552140 -0.479541
O3    O     O_R   0.498360 0.178430 0.555780 -0.520628
O4    O     O_R   0.328690 0.978040 0.538950 -0.504771
O5    O     O_3   0.499990 0.999990 0.500010 -0.242849
O6    O     O_R   0.828710 0.851830 0.052170 -0.515084
O7    O     O_R   0.005980 0.823990 0.047210 -0.504069
O8    O     O_R   0.031900 0.688850 0.050170 -0.494781
O9    O     O_R   0.830940 0.518420 0.048680 -0.498480
O10   O     O_R   0.668160 0.499860 0.053480 -0.514612
O11   O     O_R   0.689170 0.693840 0.050110 -0.493298
O12   O     O_R   0.525040 0.857250 0.449830 -0.508224
O13   O     O_R   0.803860 0.812940 0.962540 -0.507860
O14   O     O_R   0.982950 0.787950 0.964120 -0.528210
O15   O     O_R   0.007050 0.649970 0.960540 -0.508314
O16   O     O_R   0.807910 0.482370 0.965590 -0.505263
O17   O     O_R   0.643310 0.460980 0.963840 -0.522424
O18   O     O_R   0.666140 0.657800 0.967020 -0.496352
O19   O     O_3   0.830520 0.660760 0.007110 -0.266131
O20   O     O_R   0.684760 0.998800 0.456360 -0.517895
O21   O     O_R   0.647540 0.166310 0.470260 -0.498339
O22   O     O_R   0.500960 0.181750 0.467450 -0.523105
O23   O     O_R   0.331100 0.981120 0.457080 -0.510309
O24   O     O_R   0.315560 0.821140 0.532010 -0.520309
O25   O     O_R   0.522630 0.854180 0.531710 -0.506638
O26   O     O_R   0.682160 0.995480 0.544690 -0.502825
C109  C     C_1   0.223906 0.745296 0.095557 0.209193
N1    N     N_1   0.261035 0.703019 0.075107 -0.295270
C110  C     C_1   0.078743 0.675650 0.304318 0.213274
N2    N     N_1   0.021387 0.595775 0.285012 -0.312025
O27   O     O_3   0.150188 0.690858 0.386516 -0.554159
C111  C     C_3   0.211925 0.642746 0.373409 0.027121
H49   H     H_    0.298713 0.700375 0.376266 0.133447
H50   H     H_    0.188177 0.604567 0.341096 0.136057
C112  C     C_3   0.192744 0.559056 0.399761 -0.241722
H51   H     H_    0.215897 0.595896 0.432254 0.185485
H52   H     H_    0.106519 0.500372 0.396867 0.169772
C113  C     C_3   0.257026 0.503744 0.387005 -0.494264
H53   H     H_    0.234519 0.465485 0.354682 0.150639
H54   H     H_    0.240440 0.442928 0.406476 0.146717
H55   H     H_    0.343717 0.560458 0.390734 0.142986
O28   O     O_3   0.831999 0.373578 0.696686 -0.559038
C114  C     C_3   0.847289 0.473313 0.714135 0.012292
H56   H     H_    0.908735 0.503939 0.740000 0.181566
H57   H     H_    0.774912 0.471383 0.727265 0.131825
C115  C     C_3   0.887148 0.549265 0.683079 -0.280850
H58   H     H_    0.963079 0.556056 0.672131 0.181743
H59   H     H_    0.827527 0.519629 0.656564 0.162042
C116  C     C_3   0.905087 0.656749 0.702083 -0.455297
H60   H     H_    0.828622 0.652187 0.710916 0.158649
H61   H     H_    0.938493 0.711863 0.679713 0.188468
H62   H     H_    0.961237 0.686368 0.729637 0.164539
C117  C     C_1   0.807541 0.330181 0.610976 0.240582
N3    N     N_1   0.881332 0.360735 0.591976 -0.318578
O29   O     O_3   0.304225 0.777880 0.784813 -0.548330
C118  C     C_3   0.393274 0.864377 0.807661 0.015404
H63   H     H_    0.425091 0.833886 0.829706 0.153779
H64   H     H_    0.372011 0.919623 0.826323 0.126610
C119  C     C_3   0.481574 0.922421 0.779910 -0.273654
H65   H     H_    0.512061 0.870019 0.765833 0.184540
H66   H     H_    0.449826 0.945869 0.755137 0.166278
C120  C     C_3   0.572989 0.020785 0.804004 -0.492547
H67   H     H_    0.544466 0.075882 0.816575 0.163011
H68   H     H_    0.637502 0.059917 0.783754 0.152067
H69   H     H_    0.605142 0.000295 0.829544 0.138726
O30   O     O_3   0.062023 0.934005 0.719477 -0.565095
C121  C     C_3   0.113304 0.044017 0.731838 -0.001279
H70   H     H_    0.117493 0.080319 0.704208 0.144166
H71   H     H_    0.197183 0.078907 0.745188 0.109938
C122  C     C_3   0.048168 0.074060 0.761810 -0.252598
H72   H     H_    0.966209 0.042414 0.747850 0.194545
H73   H     H_    0.043726 0.040687 0.790158 0.181934
C123  C     C_3   0.097940 0.192544 0.772840 -0.482439
H74   H     H_    0.179486 0.226238 0.787734 0.152812
H75   H     H_    0.048421 0.211781 0.794319 0.152003
H76   H     H_    0.102097 0.228307 0.745066 0.164821
C124  C     C_1   0.097591 0.622335 0.811600 0.219412
N4    N     N_1   0.086282 0.554146 0.786720 -0.295085
O31   O     O_3   0.832268 0.896124 0.795161 -0.594535
C125  C     C_3   0.784374 0.952341 0.814768 -0.003369
H77   H     H_    0.705541 0.898765 0.825450 0.141129
H78   H     H_    0.773935 0.999575 0.793552 0.130943
C126  C     C_3   0.857534 0.025810 0.851889 -0.255269
H79   H     H_    0.868838 0.979018 0.873041 0.184823
H80   H     H_    0.936693 0.079479 0.841891 0.160394
C127  C     C_3   0.811845 0.090770 0.874588 -0.480872
H81   H     H_    0.868299 0.144522 0.900720 0.152558
H82   H     H_    0.799825 0.138250 0.854023 0.149245
H83   H     H_    0.734750 0.039048 0.886543 0.153394
C128  C     C_1   0.577291 0.525432 0.749203 0.177403
N5    N     N_1   0.531421 0.439164 0.754429 -0.327297
O32   O     O_3   0.474131 0.694714 0.662004 -0.572120
C129  C     C_3   0.393933 0.603370 0.637648 0.000141
H84   H     H_    0.383223 0.534877 0.651489 0.151480
H85   H     H_    0.413202 0.590224 0.605507 0.111085
C130  C     C_3   0.289232 0.606791 0.638292 -0.267589
H86   H     H_    0.266649 0.611757 0.670240 0.190454
H87   H     H_    0.300645 0.677688 0.626340 0.161842
C131  C     C_3   0.199222 0.510348 0.612519 -0.469909
H88   H     H_    0.218795 0.505678 0.580179 0.147669
H89   H     H_    0.124509 0.515371 0.614017 0.169167
H90   H     H_    0.185963 0.438361 0.624191 0.162831
C132  C     C_1   0.546496 0.372380 0.187314 0.182955
N6    N     N_1   0.467723 0.345417 0.203244 -0.308280

loop_
_geom_bond_atom_site_label_1
_geom_bond_atom_site_label_2
_ccdc_geom_bond_type
C65   C92   S    
Cr5   O15   S    
C21   C26   S    
C129  H85   S    
C78   C124  S    
C104  C128  S    
C7    O9    A    
C21   O22   A    
C73   C74   A    
C106  O32   S    
C111  H50   S    
C95   C96   A    
C55   C56   T    
Cr1   O24   S    
C2    C12   A    
C86   H33   S    
C23   H4    S    
Cr4   O19   S    
C81   C82   A    
C68   H23   S    
Cr5   O9    S    
Cr4   O7    S    
C79   H27   S    
C77   C78   A    
C75   H31   S    
C2    C98   A    
Cr6   O10   S    
C49   H12   S    
Cr2   O26   S    
C100  C105  A    
O32   C129  S    
C42   C44   A    
C32   O23   A    
C118  C119  S    
C83   C84   A    
C10   O17   A    
C101  H40   S    
C28   C29   A    
C124  N4    T    
C18   C19   A    
C119  C120  S    
C86   C91   A    
C113  H55   S    
C6    O8    A    
C131  H88   S    
C13   H9    S    
C18   H47   S    
C86   C88   A    
C111  C112  S    
C106  C107  A    
C98   C132  S    
C15   C16   A    
Cr4   O6    S    
C32   O1    A    
C31   C110  S    
C59   H22   S    
C3    H39   S    
C9    O14   A    
O31   C125  S    
C23   C26   A    
C112  H52   S    
C17   H46   S    
C119  H65   S    
C34   H5    S    
C22   C26   A    
Cr1   O5    S    
C77   C85   S    
C107  H43   S    
C65   O24   A    
C81   H30   S    
Cr5   O19   S    
C88   C92   A    
C113  H53   S    
C67   H24   S    
C6    C41   S    
C4    C102  S    
C14   H37   S    
C125  H78   S    
C123  H74   S    
C31   C33   A    
C70   C71   T    
Cr3   O3    S    
C29   C30   A    
C8    O6    A    
C132  N6    T    
C93   C99   A    
C87   H1    S    
C61   C62   A    
C127  H83   S    
C87   C98   A    
C11   C93   S    
C89   H35   S    
Cr5   O16   S    
C5    C43   S    
C129  C130  S    
C33   O27   S    
C59   C60   A    
C35   C109  S    
C7    O10   A    
C120  H67   S    
C123  H75   S    
C36   C41   A    
C112  H51   S    
C9    C73   S    
C37   H7    S    
C34   C35   A    
C104  C105  A    
C97   C99   A    
C121  H70   S    
C127  H82   S    
C17   C18   A    
C83   O30   S    
C53   C55   S    
C73   C79   A    
C16   C25   S    
C66   C72   A    
C1    O12   A    
Cr3   O23   S    
C125  C126  S    
C74   C75   A    
C110  N2    T    
C10   O16   A    
C101  C102  A    
C67   C72   A    
C24   C25   A    
Cr1   O1    S    
C115  H58   S    
C80   O29   S    
C108  H45   S    
Cr2   O2    S    
Cr1   O12   S    
C16   C17   A    
O29   C118  S    
C45   C46   A    
C4    C106  A    
C65   O4    A    
C82   C83   A    
C122  C123  S    
Cr1   O25   S    
C82   C91   S    
C67   C68   A    
C60   C61   A    
C64   C66   A    
C37   C38   A    
C112  C113  S    
C36   H8    S    
C117  N3    T    
C116  H60   S    
C80   C85   A    
C8    C57   S    
C48   H14   S    
C66   H19   S    
Cr2   O5    S    
C1    C42   S    
C118  H64   S    
C47   C48   A    
C13   C76   A    
C43   O25   A    
C30   C31   A    
C23   C24   A    
C20   H48   S    
C96   C97   A    
C116  H62   S    
C62   C63   A    
C122  H73   S    
C125  H77   S    
C88   H34   S    
C30   C40   S    
C94   C95   A    
C50   H11   S    
C42   C48   A    
C52   C53   A    
C84   C85   A    
C89   C92   A    
C29   H10   S    
C75   C77   A    
C76   C87   A    
C62   O28   S    
C90   H28   S    
C51   C57   A    
C109  N1    T    
C69   C70   S    
C116  H61   S    
C20   C22   A    
Cr2   O21   S    
C49   C50   A    
Cr6   O18   S    
C126  H80   S    
C28   H6    S    
C54   C58   S    
C123  H76   S    
C15   H29   S    
Cr6   O11   S    
C130  C131  S    
Cr3   O5    S    
C54   O3    A    
C90   C91   A    
C3    C4    A    
C120  H69   S    
C130  H87   S    
C39   C40   T    
C9    O15   A    
C127  H81   S    
C121  H71   S    
C96   C105  S    
C131  H89   S    
C5    C107  A    
C114  C115  S    
C24   H20   S    
C58   C63   A    
C21   O21   A    
C114  H56   S    
C46   C47   A    
C36   C37   A    
C51   H17   S    
Cr4   O14   S    
C2    C19   S    
C34   C38   A    
C50   C57   A    
Cr3   O4    S    
C14   C19   A    
C68   C69   A    
C44   C45   A    
C80   C81   A    
C120  H68   S    
Cr5   O8    S    
C1    O20   A    
C47   H13   S    
C7    C76   S    
C11   O18   A    
C84   H32   S    
C3    C108  A    
C94   H36   S    
Cr6   O19   S    
C64   C69   A    
C99   H38   S    
C11   O13   A    
C131  H90   S    
C12   C13   A    
C52   H16   S    
C97   H44   S    
C93   C94   A    
C130  H86   S    
C44   H15   S    
C51   C52   A    
C119  H66   S    
C115  H59   S    
C78   C79   A    
C61   C71   S    
C118  H63   S    
C38   C39   S    
C74   H26   S    
C43   O26   A    
Cr6   O17   S    
C115  C116  S    
C49   C53   A    
C22   H2    S    
Cr3   O22   S    
C111  H49   S    
C95   H41   S    
C102  C103  A    
C35   C41   A    
C58   C59   A    
C64   H21   S    
C27   C32   S    
C60   H25   S    
O30   C121  S    
C121  C122  S    
C103  H42   S    
Cr4   O13   S    
C103  C104  A    
O28   C114  S    
Cr2   O20   S    
C45   H18   S    
C113  H54   S    
O27   C111  S    
C20   C25   A    
C126  C127  S    
C46   C56   S    
C27   C33   A    
C14   C15   A    
C100  C101  A    
C12   H3    S    
C8    O11   A    
C54   O2    A    
C89   C90   A    
C126  H79   S    
C114  H57   S    
C5    C108  A    
C63   C117  S    
C100  O31   S    
C129  H84   S    
C122  H72   S    
C128  N5    T    
C27   C28   A    
C6    O7    A    
C10   C72   S    
