data_mof_unit_30105.cif
_audit_creation_date              2012-10-26T18:43:53-0400
_audit_creation_method            fapswitch 2.2
_symmetry_space_group_name_H-M    P1
_symmetry_Int_Tables_number       1
_space_group_crystal_system       triclinic
_cell_length_a                    9.639488
_cell_length_b                    10.886327
_cell_length_c                    17.180566
_cell_angle_alpha                 89.302299
_cell_angle_beta                  84.147303
_cell_angle_gamma                 90.929882
_cell_volume                      1793.09734084

loop_
_atom_site_label
_atom_site_type_symbol
_atom_type_description
_atom_site_fract_x
_atom_site_fract_y
_atom_site_fract_z
_atom_type_partial_charge
C1    C     C_R   0.501956 0.737465 0.500780 0.561133
C2    C     C_R   0.535714 0.525601 0.265100 0.021878
C3    C     C_R   0.390670 0.934515 0.479837 -0.044220
C4    C     C_R   0.480333 0.501980 0.650000 0.564192
C5    C     C_R   0.509177 0.871187 0.496832 0.021047
C6    C     C_R   0.634015 0.941619 0.503627 0.193783
C7    C     C_R   0.626745 0.069732 0.503165 -0.072885
C8    C     C_R   0.502397 0.130093 0.492797 -0.005939
C9    C     C_R   0.389239 0.060189 0.473200 -0.056210
C10   C     C_3   0.236409 0.064738 0.497446 -0.186476
C11   C     C_3   0.238821 0.925690 0.509205 0.177243
C12   C     C_R   0.384490 0.438025 0.784713 -0.064426
C13   C     C_R   0.939637 0.527774 0.434007 0.185164
C14   C     C_R   0.910996 0.472696 0.565406 0.091002
C15   C     C_R   0.056990 0.461775 0.564885 0.360411
C16   C     C_R   0.499461 0.262869 0.498530 0.578296
C17   C     C_R   0.086182 0.536201 0.435113 0.090453
C18   C     C_3   0.109043 0.478963 0.356374 -0.249345
C19   C     C_3   0.952784 0.460299 0.358021 0.079758
C20   C     C_R   0.520471 0.504978 0.349917 0.538662
C21   C     C_R   0.469419 0.516621 0.734673 0.040694
C22   C     C_R   0.549179 0.608977 0.766020 -0.098917
C23   C     C_R   0.448609 0.616307 0.150716 -0.098178
C24   C     C_R   0.542507 0.623624 0.846667 -0.089070
C25   C     C_R   0.455622 0.545855 0.896632 0.034611
C26   C     C_R   0.375421 0.454146 0.865281 -0.091775
C27   C     C_R   0.437555 0.596997 0.231215 -0.124609
C28   C     C_R   0.650214 0.480173 0.217815 -0.112404
C29   C     C_R   0.662495 0.500866 0.137160 -0.103110
C30   C     C_R   0.559580 0.565887 0.103114 0.040703
C31   C     C_2   0.449663 0.556207 0.981802 -0.128688
C32   C     C_2   0.565189 0.574566 0.017630 -0.129388
Cu1   Cu    Cu3+1 0.359330 0.500020 0.500000 1.082662
Cu2   Cu    Cu3+1 0.640670 0.499980 0.500000 1.111049
H1    H     H_    0.749292 0.462204 0.101056 0.126425
H2    H     H_    0.666594 0.581349 0.983677 0.135330
H3    H     H_    0.309410 0.392444 0.903335 0.128308
H4    H     H_    0.370537 0.670374 0.125610 0.122053
H5    H     H_    0.327911 0.362497 0.762096 0.177995
H6    H     H_    0.351059 0.534510 0.016147 0.132444
H7    H     H_    0.616094 0.669969 0.727999 0.145751
H8    H     H_    0.754898 0.840279 0.640644 0.343249
H9    H     H_    0.120883 0.718182 0.672085 0.386302
H10   H     H_    0.843581 0.449555 0.617635 0.176073
H11   H     H_    0.225735 0.226769 0.674534 0.365327
H12   H     H_    0.717878 0.122846 0.514385 0.235879
H13   H     H_    0.908108 0.510618 0.310123 0.103538
H14   H     H_    0.034553 0.261108 0.459120 0.325121
H15   H     H_    0.604226 0.695862 0.869915 0.129043
H16   H     H_    0.210181 0.117334 0.551348 0.225711
H17   H     H_    0.178258 0.091705 0.447556 0.154001
H18   H     H_    0.175313 0.874230 0.469566 0.164700
H19   H     H_    0.149849 0.546615 0.310677 0.102369
H20   H     H_    0.353721 0.639767 0.267119 0.118924
H21   H     H_    0.169975 0.393147 0.356841 0.184320
H22   H     H_    0.728359 0.426585 0.242574 0.172666
N1    N     N_R   0.852130 0.499070 0.499500 -0.233148
N2    N     N_R   0.148040 0.499110 0.499500 -0.249226
O1    O     O_R   0.381190 0.680360 0.500000 -0.476185
O2    O     O_2   0.904862 0.980213 0.527242 -0.240490
O3    O     O_3   0.788227 0.786885 0.596599 -0.483415
O4    O     O_2   0.332127 0.904717 0.653096 -0.301746
O5    O     O_2   0.085969 0.953575 0.648823 -0.226069
O6    O     O_3   0.162407 0.731046 0.617418 -0.464086
O7    O     O_2   0.128129 0.480112 0.710017 -0.297645
O8    O     O_2   0.981631 0.305019 0.683836 -0.300930
O9    O     O_3   0.240907 0.293496 0.634695 -0.536004
O10   O     O_2   0.756674 0.278044 0.353398 -0.252161
O11   O     O_2   0.994868 0.230537 0.303372 -0.277865
O12   O     O_R   0.618770 0.680320 0.499990 -0.434148
O13   O     O_3   0.935446 0.241822 0.453709 -0.491564
O14   O     O_R   0.367430 0.500040 0.613600 -0.387473
O15   O     O_R   0.605020 0.500000 0.613590 -0.536034
O16   O     O_R   0.381230 0.319680 0.500010 -0.476811
O17   O     O_R   0.618810 0.319640 0.500000 -0.460944
O18   O     O_R   0.394980 0.500000 0.386410 -0.540308
O19   O     O_R   0.632570 0.499960 0.386400 -0.485186
O20   O     O_2   0.851270 0.807357 0.446179 -0.259052
S1    S     S_3+6 0.800036 0.879560 0.517063 0.058528
S2    S     S_3+6 0.205369 0.881182 0.610849 0.050206
S3    S     S_3+6 0.102699 0.384891 0.650370 0.017567
S4    S     S_3+6 0.907171 0.298743 0.365458 0.011558

loop_
_geom_bond_atom_site_label_1
_geom_bond_atom_site_label_2
_ccdc_geom_bond_type
C25   C31   S    
O2    S1    D    
Cu1   N2    S    
C16   O17   A    
C28   H22   S    
C27   H20   S    
C7    C8    A    
C15   S3    S    
C20   O19   A    
C16   O16   A    
C32   H2    S    
O4    S2    D    
C28   C29   A    
C1    O1    A    
Cu2   O19   S    
C5    C6    A    
C19   H13   S    
C22   H7    S    
C13   N1    A    
C31   H6    S    
C20   O18   A    
C18   C19   S    
O11   S4    D    
C18   H19   S    
C8    C9    A    
H11   O9    S    
Cu2   N1    S    
C2    C27   A    
C11   H18   S    
C23   C27   A    
C19   S4    S    
C9    C10   S    
Cu2   O12   S    
Cu1   O14   S    
C17   N2    A    
O13   S4    S    
Cu1   O1    S    
C21   C22   A    
O6    S2    S    
C10   H17   S    
H9    O6    S    
C17   C18   S    
O5    S2    D    
C13   C19   S    
C2    C20   S    
C23   C30   A    
C24   C25   A    
C11   S2    S    
O20   S1    D    
C25   C26   A    
C12   C21   A    
C12   C26   A    
C7    H12   S    
C29   C30   A    
C3    C9    A    
Cu1   O18   S    
O7    S3    D    
C31   C32   D    
Cu1   Cu2   S    
H8    O3    S    
C4    O15   A    
C18   H21   S    
O9    S3    S    
C15   N2    A    
C1    C5    S    
H14   O13   S    
C10   H16   S    
C4    O14   A    
C14   H10   S    
C24   H15   S    
C14   N1    A    
C29   H1    S    
C3    C5    A    
C26   H3    S    
C6    C7    A    
C23   H4    S    
Cu2   O17   S    
C1    O12   A    
C13   C17   A    
O10   S4    D    
C12   H5    S    
O8    S3    D    
C30   C32   S    
C4    C21   S    
C6    S1    S    
O3    S1    S    
C22   C24   A    
C3    C11   S    
C10   C11   S    
Cu2   O15   S    
Cu1   O16   S    
C8    C16   S    
C14   C15   A    
C2    C28   A    
