data_mof_unit_68042.cif
_audit_creation_date              2012-12-11T14:37:47-0500
_audit_creation_method            fapswitch 2.2
_symmetry_space_group_name_H-M    P1
_symmetry_Int_Tables_number       1
_space_group_crystal_system       triclinic
_cell_length_a                    14.490908
_cell_length_b                    15.794125
_cell_length_c                    6.990263
_cell_angle_alpha                 90.146492
_cell_angle_beta                  80.562484
_cell_angle_gamma                 90.08964
_cell_volume                      1578.2095178

loop_
_atom_site_label
_atom_site_type_symbol
_atom_type_description
_atom_site_fract_x
_atom_site_fract_y
_atom_site_fract_z
_atom_type_partial_charge
O1    O     O_R   0.337080 0.165770 0.524980 -0.542904
O2    O     O_R   0.662920 0.834230 0.475020 -0.547547
O3    O     O_R   0.662920 0.665770 0.475020 -0.537923
O4    O     O_R   0.337080 0.334230 0.524980 -0.543066
O5    O     O_R   0.348340 0.341430 0.191390 -0.544774
O6    O     O_R   0.651660 0.658570 0.808610 -0.545179
O7    O     O_R   0.651660 0.841430 0.808610 -0.556044
O8    O     O_R   0.348340 0.158570 0.191390 -0.559518
O9    O     O_R   0.165780 0.339950 0.082750 -0.526297
O10   O     O_R   0.834220 0.660050 0.917250 -0.533734
O11   O     O_R   0.834220 0.839950 0.917250 -0.545306
O12   O     O_R   0.165780 0.160050 0.082750 -0.539946
C1    C     C_R   0.370113 0.364710 0.355929 0.830815
C2    C     C_R   0.629812 0.635356 0.644089 0.800660
C3    C     C_R   0.630049 0.864743 0.644315 0.751076
C4    C     C_R   0.370090 0.135313 0.355648 0.778396
O13   O     O_3   0.191540 0.250000 0.407620 -0.372001
O14   O     O_3   0.808460 0.750000 0.592380 -0.388847
V1    V     V_3+5 0.262540 0.250000 0.108780 1.559859
V2    V     V_3+5 0.737460 0.750000 0.891220 1.476958
O15   O     O_R   0.154530 0.164290 0.756910 -0.552898
O16   O     O_R   0.845470 0.835710 0.243090 -0.546472
O17   O     O_R   0.845470 0.664290 0.243090 -0.551443
O18   O     O_R   0.154530 0.335710 0.756910 -0.515946
C5    C     C_R   0.132094 0.133849 0.931990 0.740409
C6    C     C_R   0.868019 0.866071 0.067883 0.680007
C7    C     C_R   0.868211 0.634199 0.067331 0.768042
C8    C     C_R   0.131550 0.365757 0.932483 0.772974
V3    V     V_3+5 0.240320 0.250000 0.616280 1.558130
V4    V     V_3+5 0.759680 0.750000 0.383720 1.446183
O19   O     O_3   0.311330 0.250000 0.867310 -0.392450
O20   O     O_3   0.688670 0.750000 0.132690 -0.375693
C9    C     C_3   0.085965 0.530504 0.993368 0.012289
C10   C     C_3   0.913627 0.469771 0.003920 -0.077354
C11   C     C_3   0.914319 0.030465 0.010824 0.030258
C12   C     C_3   0.086743 0.968693 0.988478 0.011281
C13   C     C_3   0.018039 0.558280 0.856120 -0.239219
C14   C     C_3   0.981187 0.442004 0.141903 -0.227077
C15   C     C_3   0.984314 0.056933 0.145085 -0.231994
C16   C     C_3   0.016635 0.942180 0.854353 -0.289243
H1    H     H_    0.033807 0.608225 0.744874 0.165549
H2    H     H_    0.962752 0.391944 0.252175 0.164272
H3    H     H_    0.970201 0.106755 0.257453 0.169409
H4    H     H_    0.030877 0.892548 0.741513 0.164960
C17   C     C_3   0.938219 0.563472 0.033070 -0.125875
C18   C     C_3   0.061299 0.436609 0.965197 -0.051983
C19   C     C_3   0.062273 0.062747 0.964608 -0.102990
C20   C     C_3   0.938615 0.936551 0.034606 -0.165146
C21   C     C_3   0.006368 0.536625 0.168435 -0.002792
C22   C     C_3   0.993280 0.463794 0.829470 -0.000888
C23   C     C_3   0.991911 0.036898 0.832495 0.035849
C24   C     C_3   0.008964 0.962197 0.166730 0.000991
C25   C     C_2   0.370162 0.723607 0.381576 -0.006538
C26   C     C_2   0.471815 0.891434 0.097015 0.172405
C27   C     C_2   0.591686 0.127603 0.651226 -0.071830
C28   C     C_2   0.557809 0.328427 0.863525 0.134507
C29   C     C_2   0.358959 0.802006 0.314492 -0.240165
C30   C     C_2   0.406452 0.830034 0.119452 -0.104792
C31   C     C_2   0.631737 0.199735 0.699476 -0.188865
C32   C     C_2   0.592360 0.249853 0.875180 -0.115378
C33   C     C_2   0.507177 0.935165 0.256689 0.321001
H5    H     H_    0.483097 0.917857 0.406447 0.116890
O21   O     O_2   0.565270 0.991213 0.220140 -0.562476
C34   C     C_2   0.432091 0.658185 0.278994 0.450458
H6    H     H_    0.475963 0.671140 0.140950 0.037567
O22   O     O_2   0.434758 0.588212 0.351193 -0.504895
C35   C     C_2   0.551441 0.373486 0.681819 0.387844
H7    H     H_    0.574235 0.344231 0.541692 0.088126
O23   O     O_2   0.519375 0.444965 0.688817 -0.513186
C36   C     C_2   0.504035 0.091726 0.756925 0.413487
H8    H     H_    0.463845 0.124753 0.878526 0.066283
O24   O     O_2   0.475613 0.023959 0.706272 -0.520902
C37   C     C_2   0.379479 0.789633 0.945511 0.377968
H9    H     H_    0.325646 0.741168 0.962051 0.048934
O25   O     O_2   0.416882 0.809842 0.782622 -0.552163
C38   C     C_2   0.295449 0.860379 0.438911 0.563488
H10   H     H_    0.259494 0.839551 0.579575 0.062958
O26   O     O_2   0.282441 0.932319 0.385679 -0.524690
C39   C     C_2   0.592583 0.211972 0.068513 0.374422
H11   H     H_    0.617974 0.147954 0.079527 0.121756
O27   O     O_2   0.564460 0.251510 0.216925 -0.573062
C40   C     C_2   0.719652 0.226983 0.576573 0.524001
H12   H     H_    0.747571 0.191413 0.446809 0.098335
O28   O     O_2   0.762173 0.289131 0.619507 -0.542202
C41   C     C_2   0.181939 0.567697 0.982861 0.470183
H13   H     H_    0.189781 0.635439 0.000159 0.039633
O29   O     O_2   0.251197 0.522686 0.954537 -0.515879
C42   C     C_2   0.818102 0.432177 0.010005 0.374302
H14   H     H_    0.810843 0.364576 0.988935 0.111682
O30   O     O_2   0.748509 0.476758 0.038554 -0.513821
C43   C     C_2   0.817674 0.065980 0.027656 0.416032
H15   H     H_    0.758202 0.024046 0.029692 0.050631
O31   O     O_2   0.805899 0.142458 0.034625 -0.527062
C44   C     C_2   0.182699 0.931322 0.971998 0.483704
H16   H     H_    0.190385 0.863647 0.989436 0.038342
O32   O     O_2   0.252103 0.976122 0.938509 -0.508378
C45   C     C_2   0.012540 0.580929 0.355157 0.424922
H17   H     H_    0.952034 0.582161 0.469206 0.038901
O33   O     O_2   0.084527 0.616621 0.378984 -0.539332
C46   C     C_2   0.985348 0.421591 0.641731 0.326794
H18   H     H_    0.917810 0.400363 0.612784 0.079291
O34   O     O_2   0.054846 0.412202 0.519215 -0.511475
C47   C     C_2   0.984189 0.080220 0.646219 0.343438
H19   H     H_    0.044596 0.082510 0.532096 0.061910
O35   O     O_2   0.911083 0.113649 0.622637 -0.533896
C48   C     C_2   0.015068 0.917914 0.352601 0.348143
H20   H     H_    0.955521 0.919191 0.468784 0.057881
O36   O     O_2   0.085265 0.878768 0.372676 -0.541051

loop_
_geom_bond_atom_site_label_1
_geom_bond_atom_site_label_2
_ccdc_geom_bond_type
O10   C7    A    
C32   C39   S    
C27   C31   D    
O13   V3    S    
C37   H9    S    
C31   C40   S    
V1    O19   S    
C45   H17   S    
C14   C21   S    
C41   H13   S    
C8    C18   S    
C29   C38   S    
C38   O26   D    
C14   H2    S    
C26   C30   D    
C25   C34   S    
O6    C2    A    
C48   H20   S    
C9    C21   S    
C12   C19   S    
O4    C1    A    
C33   O21   D    
C9    C41   S    
O18   V3    S    
O9    V1    S    
O10   V2    S    
C36   H8    S    
O14   V4    S    
O17   C7    A    
C5    C19   S    
C16   H4    S    
O5    C1    A    
O4    V3    S    
C12   C24   S    
C6    C20   S    
C7    C17   S    
O7    C3    A    
C15   C24   S    
C24   C48   S    
C31   C32   S    
O8    C4    A    
C9    C18   S    
C37   O25   D    
C44   H16   S    
C11   C20   S    
C46   O34   D    
C45   O33   D    
C41   O29   D    
O11   V2    S    
C10   C22   S    
O8    V1    S    
C35   H7    S    
O17   V4    S    
C12   C16   S    
C38   H10   S    
C43   H15   S    
O1    C4    A    
C25   C29   D    
C19   C23   S    
O11   C6    A    
O15   V3    S    
C9    C13   S    
C28   C32   D    
C35   O23   D    
C34   O22   D    
O3    V4    S    
C11   C15   S    
C43   O31   D    
C17   C21   S    
O1    V3    S    
C47   O35   D    
C10   C17   S    
C10   C42   S    
C44   O32   D    
O2    C3    A    
O3    C2    A    
C42   O30   D    
O7    V2    S    
C40   O28   D    
C11   C23   S    
C13   C17   S    
C28   C35   S    
C15   C19   S    
V2    O20   S    
C16   C20   S    
O15   C5    A    
O16   V4    S    
C10   C14   S    
O18   C8    A    
C15   H3    S    
C39   O27   D    
O5    V1    S    
C26   C33   S    
C16   C23   S    
O6    V2    S    
C18   C22   S    
C22   C46   S    
O12   C5    A    
O2    V4    S    
C34   H6    S    
V3    O19   S    
V4    O20   S    
C13   C22   S    
C29   C30   S    
C48   O36   D    
O12   V1    S    
C46   H18   S    
O13   V1    S    
O14   V2    S    
C13   H1    S    
C33   H5    S    
C14   C18   S    
C27   C36   S    
C21   C45   S    
C39   H11   S    
C12   C44   S    
C20   C24   S    
C42   H14   S    
O9    C8    A    
C40   H12   S    
O16   C6    A    
C47   H19   S    
C36   O24   D    
C23   C47   S    
C30   C37   S    
C11   C43   S    
