data_mof_unit_29187.cif
_audit_creation_date              2012-12-11T14:52:46-0500
_audit_creation_method            fapswitch 2.2
_symmetry_space_group_name_H-M    P1
_symmetry_Int_Tables_number       1
_space_group_crystal_system       triclinic
_cell_length_a                    18.895285
_cell_length_b                    10.907166
_cell_length_c                    18.852832
_cell_angle_alpha                 89.778198
_cell_angle_beta                  91.22818
_cell_angle_gamma                 89.995572
_cell_volume                      3884.53395653

loop_
_atom_site_label
_atom_site_type_symbol
_atom_type_description
_atom_site_fract_x
_atom_site_fract_y
_atom_site_fract_z
_atom_type_partial_charge
C1    C     C_R   0.273932 0.039916 0.855597 0.561672
C2    C     C_R   0.697058 0.532082 0.039356 -0.154641
C3    C     C_3   0.024371 0.326417 0.065252 0.006596
C4    C     C_1   0.369627 0.529802 0.423498 0.223619
C5    C     C_1   0.639752 0.453685 0.568232 0.221793
C6    C     C_1   0.869627 0.029802 0.423498 0.223619
C7    C     C_1   0.139752 0.953685 0.568232 0.221793
C8    C     C_1   0.476526 0.576745 0.964302 0.308361
C9    C     C_1   0.400420 0.727934 0.094501 0.277472
C10   C     C_1   0.976527 0.076742 0.964301 0.308360
C11   C     C_1   0.900416 0.227932 0.094493 0.277469
C12   C     C_R   0.792746 0.009792 0.954990 -0.164141
C13   C     C_R   0.197059 0.032083 0.039353 -0.154654
C14   C     C_R   0.286860 0.491843 0.027697 0.165996
C15   C     C_R   0.701480 0.523373 0.965796 0.168062
C16   C     C_R   0.786855 0.991829 0.027695 0.165992
C17   C     C_R   0.201479 0.023371 0.965792 0.168062
C18   C     C_R   0.228925 0.543255 0.063872 -0.023803
C19   C     C_R   0.761260 0.570252 0.930839 -0.040903
C20   C     C_R   0.728921 0.043243 0.063870 -0.023797
C21   C     C_R   0.715141 0.011993 0.138493 0.561493
C22   C     C_R   0.261255 0.070261 0.930832 -0.040892
C23   C     C_R   0.177064 0.610342 0.024314 0.183174
C24   C     C_R   0.817158 0.623012 0.972755 0.186196
C25   C     C_R   0.677062 0.110335 0.024313 0.183175
C26   C     C_R   0.317148 0.123041 0.972747 0.186210
C27   C     C_R   0.178235 0.609523 0.950874 0.235433
C28   C     C_R   0.816415 0.611442 0.046278 0.253001
C29   C     C_R   0.678234 0.109521 0.950873 0.235430
C30   C     C_R   0.316409 0.111467 0.046269 0.252995
C31   C     C_R   0.240775 0.573385 0.916787 -0.068203
C32   C     C_R   0.773930 0.539922 0.855602 0.561651
C33   C     C_R   0.753198 0.580800 0.079613 -0.056009
C34   C     C_R   0.740774 0.073383 0.916786 -0.068201
C35   C     C_R   0.253196 0.080810 0.079608 -0.056027
C36   C     C_R   0.520183 0.730540 0.542805 -0.194121
C37   C     C_R   0.526685 0.726605 0.470543 -0.177710
C38   C     C_R   0.020183 0.230540 0.542805 -0.194121
C39   C     C_R   0.026685 0.226605 0.470543 -0.177710
C40   C     C_R   0.511901 0.830255 0.428390 -0.003307
C41   C     C_R   0.498280 0.837941 0.575620 -0.010751
C42   C     C_R   0.011901 0.330255 0.428390 -0.003307
C43   C     C_R   0.215144 0.512002 0.138494 0.561497
C44   C     C_R   0.998280 0.337941 0.575620 -0.010751
C45   C     C_R   0.492348 0.941154 0.460579 0.222208
C46   C     C_R   0.488463 0.946684 0.534687 0.230854
C47   C     C_R   0.992348 0.441154 0.460579 0.222208
C48   C     C_R   0.988463 0.446684 0.534687 0.230854
C49   C     C_R   0.443345 0.816505 0.862839 0.538404
C50   C     C_R   0.554986 0.818392 0.137039 0.528268
C51   C     C_R   0.943347 0.316505 0.862839 0.538411
C52   C     C_R   0.054988 0.318391 0.137039 0.528273
C53   C     C_R   0.184019 0.588408 0.543327 -0.130012
C54   C     C_3   0.486609 0.705966 0.982565 -0.026639
C55   C     C_R   0.789905 0.689420 0.474540 -0.081945
C56   C     C_R   0.684019 0.088408 0.543327 -0.130012
C57   C     C_R   0.289905 0.189420 0.474540 -0.081945
C58   C     C_R   0.178336 0.581122 0.471050 -0.133106
C59   C     C_R   0.789324 0.680800 0.546886 -0.113095
C60   C     C_R   0.678336 0.081122 0.471050 -0.133106
C61   C     C_R   0.289324 0.180800 0.546886 -0.113095
C62   C     C_R   0.239042 0.564682 0.430142 0.011616
C63   C     C_R   0.745854 0.594283 0.578806 0.006654
C64   C     C_R   0.739042 0.064683 0.430142 0.011616
C65   C     C_3   0.452301 0.772935 0.043797 -0.027424
C66   C     C_R   0.245854 0.094283 0.578806 0.006654
C67   C     C_R   0.305887 0.549049 0.463047 -0.045295
C68   C     C_R   0.693341 0.531502 0.537955 -0.039084
C69   C     C_R   0.805887 0.049049 0.463047 -0.045294
C70   C     C_R   0.193341 0.031502 0.537955 -0.039083
C71   C     C_R   0.311148 0.556846 0.536114 -0.139496
C72   C     C_R   0.693921 0.541782 0.464838 -0.148242
C73   C     C_R   0.811148 0.056845 0.536114 -0.139496
C74   C     C_R   0.193921 0.041782 0.464838 -0.148242
C75   C     C_R   0.250639 0.582602 0.575567 0.008436
C76   C     C_3   0.986613 0.205963 0.982564 -0.026642
C77   C     C_R   0.744013 0.616666 0.433081 0.027193
C78   C     C_R   0.750639 0.082602 0.575567 0.008436
C79   C     C_R   0.244013 0.116666 0.433081 0.027192
C80   C     C_R   0.258477 0.630971 0.849158 0.551090
C81   C     C_R   0.740295 0.632777 0.149683 0.565289
C82   C     C_R   0.758477 0.130971 0.849158 0.551089
C83   C     C_R   0.240295 0.132780 0.149681 0.565283
C84   C     C_R   0.269802 0.048211 0.647155 0.542507
C85   C     C_R   0.727081 0.041940 0.355818 0.546953
C86   C     C_R   0.769802 0.548211 0.647155 0.542507
C87   C     C_3   0.952304 0.272930 0.043796 -0.027421
C88   C     C_R   0.227081 0.541940 0.355818 0.546952
C89   C     C_R   0.470270 0.824979 0.646968 0.571612
C90   C     C_R   0.531523 0.823321 0.354104 0.589804
C91   C     C_R   0.970270 0.324979 0.646968 0.571612
C92   C     C_R   0.031523 0.323321 0.354104 0.589805
C93   C     C_R   0.259731 0.634378 0.644773 0.546595
C94   C     C_R   0.738781 0.642191 0.358491 0.558947
C95   C     C_R   0.759731 0.134378 0.644773 0.546594
C96   C     C_R   0.238781 0.142191 0.358491 0.558946
C97   C     C_3   0.511009 0.939781 0.018177 -0.042736
C98   C     C_R   0.292749 0.509801 0.954992 -0.164133
C99   C     C_3   0.545731 0.871868 0.955821 -0.104192
C100  C     C_3   0.011011 0.439779 0.018176 -0.042721
C101  C     C_3   0.045735 0.371866 0.955821 -0.104194
C102  C     C_3   0.437903 0.885316 0.996184 -0.106462
C103  C     C_3   0.559461 0.758786 0.003902 -0.160089
C104  C     C_3   0.937907 0.385311 0.996182 -0.106446
C105  C     C_3   0.059465 0.258784 0.003902 -0.160092
C106  C     C_3   0.473151 0.818529 0.935023 0.017752
C107  C     C_3   0.524368 0.826419 0.065252 0.006593
C108  C     C_3   0.973155 0.318526 0.935022 0.017753
Cl1   Cl    Cl    0.358278 0.417178 0.070790 -0.438146
Cl2   Cl    Cl    0.896832 0.627666 0.096233 -0.426809
Cl3   Cl    Cl    0.599967 0.155861 0.903555 -0.413356
Cl4   Cl    Cl    0.396828 0.127701 0.096218 -0.426794
Cl5   Cl    Cl    0.469348 0.072015 0.409060 -0.515381
Cl6   Cl    Cl    0.472367 0.091283 0.573657 -0.531661
Cl7   Cl    Cl    0.969348 0.572015 0.409060 -0.515378
Cl8   Cl    Cl    0.972367 0.591283 0.573657 -0.531662
Cl9   Cl    Cl    0.628184 0.461228 0.919879 -0.457626
Cl10  Cl    Cl    0.858271 0.917153 0.070786 -0.438157
Cl11  Cl    Cl    0.128184 0.961211 0.919879 -0.457610
Cl12  Cl    Cl    0.115028 0.711720 0.062941 -0.434564
Cl13  Cl    Cl    0.891870 0.699309 0.937463 -0.412405
Cl14  Cl    Cl    0.615028 0.211716 0.062940 -0.434564
Cl15  Cl    Cl    0.391844 0.199377 0.937450 -0.412428
Cl16  Cl    Cl    0.099967 0.655856 0.903555 -0.413349
Cr1   Cr    Cr6+3 0.229630 0.835900 0.747350 1.142677
Cr2   Cr    Cr6+3 0.614200 0.677120 0.250660 1.078805
Cr3   Cr    Cr6+3 0.885800 0.177120 0.749340 1.063347
Cr4   Cr    Cr6+3 0.114200 0.177120 0.250660 1.078804
Cr5   Cr    Cr6+3 0.770370 0.835900 0.252650 1.156427
Cr6   Cr    Cr6+3 0.729630 0.335900 0.747350 1.142682
Cr7   Cr    Cr6+3 0.270370 0.335900 0.252650 1.156426
Cr8   Cr    Cr6+3 0.387410 0.989850 0.750850 1.153701
Cr9   Cr    Cr6+3 0.612590 0.989850 0.249150 1.148631
Cr10  Cr    Cr6+3 0.887410 0.489850 0.750850 1.153705
Cr11  Cr    Cr6+3 0.112590 0.489850 0.249150 1.148636
Cr12  Cr    Cr6+3 0.385800 0.677120 0.749340 1.063352
H1    H     H_    0.385185 0.926499 0.990078 0.130810
H2    H     H_    0.827470 0.734356 0.577339 0.180673
H3    H     H_    0.625746 0.087627 0.447425 0.197541
H4    H     H_    0.327470 0.234356 0.577339 0.180673
H5    H     H_    0.363221 0.552097 0.561369 0.156222
H6    H     H_    0.655211 0.492139 0.432752 0.146536
H7    H     H_    0.863221 0.052097 0.561369 0.156222
H8    H     H_    0.155211 0.992139 0.432752 0.146536
H9    H     H_    0.520031 0.036053 0.033366 0.261991
H10   H     H_    0.584511 0.906642 0.917427 0.172271
H11   H     H_    0.020031 0.536052 0.033366 0.262001
H12   H     H_    0.610721 0.710816 0.007775 0.127699
H13   H     H_    0.084515 0.406640 0.917427 0.172272
H14   H     H_    0.338965 0.477425 0.928244 0.209025
H15   H     H_    0.648161 0.506498 0.064529 0.216357
H16   H     H_    0.838962 0.977414 0.928242 0.209012
H17   H     H_    0.148164 0.006490 0.064527 0.216362
H18   H     H_    0.529405 0.646900 0.572769 0.169381
H19   H     H_    0.544365 0.641066 0.447955 0.176403
H20   H     H_    0.029405 0.146900 0.572769 0.169381
H21   H     H_    0.044365 0.141066 0.447955 0.176403
H22   H     H_    0.885187 0.426487 0.990076 0.130810
H23   H     H_    0.110726 0.210816 0.007776 0.127696
H24   H     H_    0.137018 0.606720 0.573495 0.194951
H25   H     H_    0.826209 0.754407 0.451396 0.185208
H26   H     H_    0.637018 0.106720 0.573495 0.194951
H27   H     H_    0.326209 0.254407 0.451396 0.185208
H28   H     H_    0.125746 0.587627 0.447425 0.197541
N1    N     N_1   0.420575 0.514045 0.391785 -0.238065
N2    N     N_1   0.596676 0.391494 0.592173 -0.223598
N3    N     N_1   0.920575 0.014045 0.391785 -0.238066
N4    N     N_1   0.096676 0.891494 0.592173 -0.223599
N5    N     N_1   0.469660 0.474479 0.949779 -0.071951
N6    N     N_1   0.359812 0.694437 0.135315 -0.208983
N7    N     N_1   0.969658 0.974476 0.949778 -0.071974
N8    N     N_1   0.859797 0.194445 0.135300 -0.208995
O1    O     O_R   0.214270 0.709000 0.827470 -0.419737
O2    O     O_R   0.543270 0.717630 0.330160 -0.505963
O3    O     O_R   0.956730 0.217630 0.669840 -0.520196
O4    O     O_R   0.043270 0.217630 0.330160 -0.505964
O5    O     O_R   0.320620 0.625640 0.672920 -0.512992
O6    O     O_R   0.679380 0.625640 0.327080 -0.514626
O7    O     O_R   0.820620 0.125640 0.672920 -0.512994
O8    O     O_R   0.179380 0.125640 0.327080 -0.514626
O9    O     O_3   0.334280 0.834290 0.749180 -0.314027
O10   O     O_3   0.665720 0.834290 0.250820 -0.339575
O11   O     O_3   0.834280 0.334290 0.749180 -0.314021
O12   O     O_R   0.785730 0.709000 0.172530 -0.412893
O13   O     O_3   0.165720 0.334290 0.250820 -0.339573
O14   O     O_R   0.236160 0.958490 0.823130 -0.447247
O15   O     O_R   0.763840 0.958490 0.176870 -0.430405
O16   O     O_R   0.736160 0.458490 0.823130 -0.447230
O17   O     O_R   0.263840 0.458490 0.176870 -0.430408
O18   O     O_R   0.332080 0.075470 0.831280 -0.466965
O19   O     O_R   0.667920 0.075470 0.168720 -0.449037
O20   O     O_R   0.832080 0.575470 0.831280 -0.466955
O21   O     O_R   0.167920 0.575470 0.168720 -0.449045
O22   O     O_R   0.446300 0.918110 0.826620 -0.454412
O23   O     O_R   0.714270 0.209000 0.827470 -0.419737
O24   O     O_R   0.553700 0.918110 0.173380 -0.466387
O25   O     O_R   0.946300 0.418110 0.826620 -0.454402
O26   O     O_R   0.053700 0.418110 0.173380 -0.466375
O27   O     O_R   0.457110 0.716200 0.831760 -0.499558
O28   O     O_R   0.542890 0.716200 0.168240 -0.480199
O29   O     O_R   0.957110 0.216200 0.831760 -0.499564
O30   O     O_R   0.042890 0.216200 0.168240 -0.480201
O31   O     O_R   0.320980 0.624310 0.823030 -0.529749
O32   O     O_R   0.679020 0.624310 0.176970 -0.525850
O33   O     O_R   0.820980 0.124310 0.823030 -0.529750
O34   O     O_R   0.285730 0.209000 0.172530 -0.412895
O35   O     O_R   0.179020 0.124310 0.176970 -0.525845
O36   O     O_R   0.213890 0.710430 0.665540 -0.490609
O37   O     O_R   0.786110 0.710430 0.334460 -0.485432
O38   O     O_R   0.713890 0.210430 0.665540 -0.490609
O39   O     O_R   0.286110 0.210430 0.334460 -0.485432
O40   O     O_R   0.235810 0.959820 0.673020 -0.498281
O41   O     O_R   0.764190 0.959820 0.326980 -0.496497
O42   O     O_R   0.735810 0.459820 0.673020 -0.498279
O43   O     O_R   0.264190 0.459820 0.326980 -0.496497
O44   O     O_R   0.331700 0.076900 0.669350 -0.475723
O45   O     O_R   0.445950 0.919440 0.676520 -0.436001
O46   O     O_R   0.668300 0.076900 0.330650 -0.500262
O47   O     O_R   0.831700 0.576900 0.669350 -0.475724
O48   O     O_R   0.168300 0.576900 0.330650 -0.500262
O49   O     O_R   0.554050 0.919440 0.323480 -0.449151
O50   O     O_R   0.945950 0.419440 0.676520 -0.436001
O51   O     O_R   0.054050 0.419440 0.323480 -0.449150
O52   O     O_R   0.456730 0.717630 0.669840 -0.520196

loop_
_geom_bond_atom_site_label_1
_geom_bond_atom_site_label_2
_ccdc_geom_bond_type
C58   C62   A    
Cr10  O25   S    
C99   C103  S    
Cr5   O10   S    
C48   Cl8   S    
C76   C105  S    
C88   O43   A    
C55   C59   A    
C14   Cl1   S    
Cr3   O11   S    
C12   H16   S    
C41   C89   S    
C38   H20   S    
Cr10  O11   S    
C7    N4    T    
C58   H28   S    
C89   O52   A    
C36   C41   A    
C36   H18   S    
C31   C80   S    
C54   C65   S    
C66   C70   A    
C1    O14   A    
C92   O4    A    
C15   C19   A    
Cr9   O19   S    
C62   C67   A    
C54   C106  S    
C36   C37   A    
C89   O45   A    
C80   O1    A    
C13   C35   A    
C37   C40   A    
C85   O41   A    
Cr6   O11   S    
C73   H7    S    
C38   C39   A    
C55   C77   A    
C3    C52   S    
Cr6   O16   S    
C21   O19   A    
C80   O31   A    
C20   C25   A    
C100  H11   S    
Cr10  O47   S    
C56   H26   S    
C77   C94   S    
C100  C104  S    
C56   C78   A    
C4    N1    T    
C32   O20   A    
Cr8   O45   S    
C94   O6    A    
C31   C98   A    
Cr10  O20   S    
C45   Cl5   S    
C37   H19   S    
C24   Cl13  S    
Cr12  O27   S    
C83   O35   A    
C86   O47   A    
C51   O25   A    
C63   C68   A    
C50   O24   A    
C3    C100  S    
C12   C16   A    
C11   C87   S    
C51   C108  S    
Cr10  O50   S    
Cr12  O52   S    
Cr12  O9    S    
C70   C74   A    
Cr9   O49   S    
C41   C46   A    
C14   C98   A    
Cr8   O44   S    
Cr4   O35   S    
C23   C27   A    
C81   O32   A    
C25   Cl14  S    
C6    C69   S    
C52   O30   A    
C97   C102  S    
Cr2   O2    S    
C68   C72   A    
C71   H5    S    
C1    O18   A    
C101  C108  S    
Cr1   O1    S    
C11   N8    T    
C76   C108  S    
C96   O39   A    
C39   H21   S    
C101  C105  S    
C9    N6    T    
C53   C75   A    
C10   C76   S    
C65   C102  S    
C7    C70   S    
C5    C68   S    
C19   C32   S    
C61   C66   A    
C83   O34   A    
C97   C99   S    
Cr1   O40   S    
C29   Cl3   S    
C103  H12   S    
C21   O15   A    
C39   C42   A    
Cr7   O17   S    
C25   C29   A    
C40   C45   A    
Cr12  O31   S    
Cr4   O4    S    
C46   Cl6   S    
C27   C31   A    
C18   C23   A    
C54   C103  S    
C55   H25   S    
C90   O49   A    
Cr6   O23   S    
C8    C54   S    
C23   Cl12  S    
C35   C83   S    
Cr2   O6    S    
C59   H2    S    
C28   Cl2   S    
C10   N7    T    
C45   C46   A    
C73   C78   A    
C3    C87   S    
C29   C34   A    
C3    C105  S    
C88   O48   A    
Cr11  O26   S    
C30   Cl4   S    
Cr1   O14   S    
C60   C64   A    
C102  H1    S    
C72   H6    S    
C85   O46   A    
C86   O42   A    
Cr7   O43   S    
C38   C44   A    
C72   C77   A    
C16   Cl10  S    
Cr8   O9    S    
Cr11  O21   S    
C47   C48   A    
C57   H27   S    
C78   C95   S    
C16   C20   A    
C20   C21   S    
C91   O3    A    
Cr1   O9    S    
Cr4   O30   S    
C5    N2    T    
C96   O8    A    
C91   O50   A    
C69   C73   A    
C2    C15   A    
Cr3   O29   S    
C76   C87   S    
C13   H17   S    
C82   O23   A    
C47   Cl7   S    
C44   C91   S    
Cr4   O8    S    
Cr7   O13   S    
C2    C33   A    
C95   O7    A    
Cr5   O12   S    
C33   C81   S    
C28   C33   A    
C26   C30   A    
C98   H14   S    
C74   C79   A    
Cr5   O15   S    
C63   C86   S    
Cr7   O39   S    
C50   C107  S    
Cr6   O38   S    
C52   O26   A    
C26   Cl15  S    
Cr5   O37   S    
C49   O22   A    
C30   C35   A    
C64   C85   S    
C104  C108  S    
C27   Cl16  S    
Cr11  O51   S    
C8    N5    T    
C75   C93   S    
C49   O27   A    
Cr2   O28   S    
C2    H15   S    
C99   C106  S    
C74   H8    S    
C6    N3    T    
C53   H24   S    
C93   O5    A    
C42   C92   S    
C95   O38   A    
C97   H9    S    
C14   C18   A    
C99   H10   S    
C92   O51   A    
C24   C28   A    
C104  H22   S    
Cr3   O3    S    
Cr8   O18   S    
C53   C58   A    
C84   O40   A    
C61   H4    S    
C57   C61   A    
C49   C106  S    
C84   O44   A    
C50   O28   A    
C64   C69   A    
C90   O2    A    
Cr1   O36   S    
C59   C63   A    
Cr9   O46   S    
C13   C17   A    
C15   Cl9   S    
C43   O21   A    
Cr2   O32   S    
C19   C24   A    
Cr3   O33   S    
Cr3   O7    S    
C79   C96   S    
C18   C43   S    
C71   C75   A    
C93   O36   A    
C105  H23   S    
C62   C88   S    
Cr9   O24   S    
Cr11  O48   S    
Cr12  O5    S    
C32   O16   A    
C101  H13   S    
C100  C101  S    
Cr11  O13   S    
Cr6   O42   S    
C67   C71   A    
C42   C47   A    
Cr8   O22   S    
Cr5   O41   S    
C57   C79   A    
C9    C65   S    
Cr2   O10   S    
C17   Cl11  S    
C60   H3    S    
C66   C84   S    
C87   C104  S    
C97   C107  S    
C56   C60   A    
Cr9   O10   S    
C1    C22   S    
C17   C22   A    
C43   O17   A    
C94   O37   A    
C22   C26   A    
C102  C106  S    
C51   O29   A    
Cr4   O13   S    
C103  C107  S    
C34   C82   S    
C81   O12   A    
C40   C90   S    
Cr7   O34   S    
C12   C34   A    
C65   C107  S    
C82   O33   A    
C4    C67   S    
C44   C48   A    
