data_mof_unit_20690.cif
_audit_creation_date              2012-12-11T20:50:46-0500
_audit_creation_method            fapswitch 2.2
_symmetry_space_group_name_H-M    P1
_symmetry_Int_Tables_number       1
_space_group_crystal_system       triclinic
_cell_length_a                    30.642334
_cell_length_b                    33.355328
_cell_length_c                    8.504505
_cell_angle_alpha                 89.743881
_cell_angle_beta                  89.576297
_cell_angle_gamma                 90.163857
_cell_volume                      8691.96696368

loop_
_atom_site_label
_atom_site_type_symbol
_atom_type_description
_atom_site_fract_x
_atom_site_fract_y
_atom_site_fract_z
_atom_type_partial_charge
Ba1   Ba    Ba6+2 0.999930 0.472870 0.844940 1.765166
Ba2   Ba    Ba6+2 0.999930 0.527130 0.344940 1.777124
Ba3   Ba    Ba6+2 0.499930 0.972870 0.844940 1.743119
Ba4   Ba    Ba6+2 0.499930 0.027130 0.344940 1.752823
C1    C     C_3   0.007275 0.282507 0.479349 0.114015
C2    C     C_3   0.010200 0.728967 0.084782 0.129708
C3    C     C_3   0.513441 0.785221 0.479848 0.116669
C4    C     C_3   0.516945 0.221173 0.047861 0.071105
C5    C     C_R   0.243637 0.698275 0.037541 -0.082101
C6    C     C_R   0.248722 0.307485 0.553888 -0.085967
C7    C     C_R   0.736531 0.216022 0.938216 -0.073628
C8    C     C_R   0.742253 0.803084 0.563339 -0.082732
C9    C     C_R   0.210904 0.670439 0.991399 0.624783
C10   C     C_R   0.216727 0.335919 0.506717 0.627686
C11   C     C_R   0.704230 0.187483 0.895052 0.637806
C12   C     C_R   0.709580 0.830812 0.516753 0.631283
C13   C     C_R   0.156025 0.721380 0.008412 0.606443
C14   C     C_R   0.164446 0.283317 0.467603 0.564688
C15   C     C_R   0.659930 0.205644 0.117343 0.634844
C16   C     C_R   0.656851 0.777787 0.497712 0.594652
C17   C     C_R   0.187397 0.749636 0.058149 -0.055837
C18   C     C_R   0.195140 0.254320 0.515762 -0.050460
C19   C     C_R   0.691090 0.234451 0.163438 -0.049375
C20   C     C_R   0.688550 0.749300 0.542417 -0.047729
C21   C     C_R   0.231395 0.738203 0.072459 -0.103494
C22   C     C_R   0.237378 0.266305 0.559708 -0.102286
C23   C     C_R   0.729711 0.239524 0.074659 -0.095323
C24   C     C_R   0.731320 0.761910 0.576518 -0.106502
C25   C     C_R   0.288195 0.687419 0.050184 0.419811
C26   C     C_R   0.291727 0.318930 0.595383 0.421699
C27   C     C_R   0.775506 0.221707 0.849756 0.431370
C28   C     C_R   0.785561 0.815262 0.596877 0.420424
C29   C     C_R   0.807184 0.248980 0.900866 -0.071080
C30   C     C_R   0.816093 0.787115 0.649400 -0.126798
C31   C     C_R   0.318959 0.715486 0.102376 -0.112715
C32   C     C_R   0.321448 0.290033 0.648279 -0.133290
C33   C     C_R   0.800751 0.272323 0.036135 -0.075157
C34   C     C_R   0.805574 0.746219 0.662570 -0.078046
C35   C     C_R   0.307144 0.755161 0.136902 -0.082580
C36   C     C_R   0.310415 0.249143 0.655026 -0.083637
C37   C     C_R   0.761696 0.267951 0.123410 -0.089340
C38   C     C_R   0.763124 0.733268 0.624761 -0.088365
C39   C     C_R   0.263117 0.766761 0.122588 -0.084292
C40   C     C_R   0.268247 0.236986 0.609918 -0.088999
C41   C     C_R   0.175264 0.788903 0.097071 -0.047073
C42   C     C_R   0.183919 0.213554 0.523464 -0.091614
C43   C     C_R   0.684259 0.258169 0.297151 -0.066326
C44   C     C_R   0.677946 0.708471 0.555988 -0.063396
C45   C     C_3   0.061593 0.330989 0.923903 0.272889
C46   C     C_3   0.001611 0.684628 0.608775 0.353970
C47   C     C_3   0.502869 0.822639 0.017203 0.317052
C48   C     C_3   0.492317 0.173120 0.532728 0.397172
C49   C     C_R   0.714982 0.286506 0.345223 0.263593
C50   C     C_R   0.708746 0.680042 0.602553 0.285547
C51   C     C_R   0.205755 0.816959 0.149466 0.277281
C52   C     C_R   0.213492 0.184600 0.574619 0.287336
C53   C     C_R   0.754698 0.291655 0.259514 -0.081429
C54   C     C_R   0.752258 0.691973 0.637284 -0.061212
C55   C     C_R   0.250657 0.806562 0.160421 -0.062862
C56   C     C_R   0.256686 0.195774 0.617013 -0.056630
C57   C     C_R   0.787626 0.319467 0.303969 0.602364
C58   C     C_R   0.785244 0.664471 0.684426 0.617884
C59   C     C_R   0.283542 0.834111 0.208195 0.616917
C60   C     C_R   0.288655 0.167570 0.666589 0.624525
C61   C     C_R   0.832857 0.299805 0.085928 0.638158
C62   C     C_R   0.836938 0.718117 0.712488 0.590960
C63   C     C_R   0.338626 0.783415 0.185561 0.631105
C64   C     C_R   0.340958 0.220250 0.705529 0.622789
C65   C     C_2   0.108471 0.656320 0.802625 -0.033301
C66   C     C_2   0.115308 0.350156 0.293708 -0.045609
C67   C     C_2   0.610777 0.154655 0.801146 0.007979
C68   C     C_2   0.608665 0.844662 0.309176 -0.050971
C69   C     C_3   0.071663 0.629961 0.780798 -0.117340
C70   C     C_3   0.074660 0.371630 0.278989 -0.118265
C71   C     C_3   0.573522 0.128826 0.780207 -0.073560
C72   C     C_3   0.571825 0.870880 0.286207 -0.108613
C73   C     C_1   0.098206 0.587654 0.996238 0.017018
C74   C     C_1   0.096587 0.410889 0.509608 0.040297
C75   C     C_1   0.598540 0.087452 0.998135 0.019235
C76   C     C_1   0.598034 0.912168 0.502405 0.019358
C77   C     C_2   0.126118 0.617693 0.044400 -0.071520
C78   C     C_2   0.130760 0.385623 0.542275 -0.098028
C79   C     C_2   0.625392 0.117904 0.049631 -0.076396
C80   C     C_2   0.625315 0.882051 0.553091 -0.080076
C81   C     C_2   0.134364 0.652763 0.939063 0.246306
C82   C     C_2   0.141664 0.353397 0.428851 0.242341
C83   C     C_2   0.634584 0.152420 0.942635 0.242100
C84   C     C_2   0.633881 0.847392 0.447559 0.234206
C85   C     C_R   0.877592 0.349900 0.408133 -0.006778
C86   C     C_R   0.881883 0.652470 0.900736 -0.087661
C87   C     C_R   0.377848 0.849515 0.408823 -0.026018
C88   C     C_R   0.381156 0.152255 0.899286 -0.076010
C89   C     C_3   0.087254 0.298884 0.836394 0.248712
C90   C     C_3   0.970076 0.714955 0.537728 0.331264
C91   C     C_3   0.494132 0.780058 0.961678 0.309777
C92   C     C_3   0.476019 0.214639 0.485343 0.302597
C93   C     C_R   0.909350 0.380864 0.456284 -0.006229
C94   C     C_R   0.916668 0.623890 0.941744 -0.078685
C95   C     C_R   0.409455 0.880645 0.456970 0.005312
C96   C     C_R   0.413313 0.121689 0.946513 -0.031673
C97   C     C_R   0.899744 0.414401 0.204645 -0.017040
C98   C     C_R   0.902408 0.587216 0.699763 0.034517
C99   C     C_R   0.400033 0.914076 0.204584 -0.011323
C100  C     C_R   0.402118 0.087038 0.699225 0.011507
C101  C     C_R   0.870332 0.383933 0.161178 -0.095520
C102  C     C_R   0.871011 0.616535 0.661060 -0.045059
C103  C     C_R   0.371487 0.882887 0.160114 -0.090203
C104  C     C_R   0.373648 0.118247 0.653784 -0.075270
C105  C     C_R   0.858870 0.352209 0.264752 0.238524
C106  C     C_R   0.860671 0.648824 0.762733 0.265220
C107  C     C_R   0.359666 0.851485 0.264718 0.254834
C108  C     C_R   0.362534 0.150214 0.755960 0.261951
C109  C     C_2   0.077532 0.591307 0.852930 -0.182078
C110  C     C_2   0.066353 0.400841 0.397865 -0.196564
C111  C     C_2   0.578939 0.090408 0.853151 -0.199612
C112  C     C_2   0.577000 0.908991 0.360804 -0.171986
C113  C     C_3   0.153705 0.501507 0.247245 0.532378
C114  C     C_3   0.150762 0.502318 0.747290 0.503276
C115  C     C_3   0.650501 0.997348 0.246283 0.508896
C116  C     C_3   0.651157 0.002149 0.745520 0.493633
C117  C     C_3   0.185005 0.535720 0.287240 -0.286471
C118  C     C_3   0.183751 0.471192 0.803467 -0.230733
C119  C     C_3   0.683892 0.028820 0.296729 -0.256952
C120  C     C_3   0.684344 0.970464 0.795046 -0.239084
C121  C     C_3   0.835449 0.487277 0.968571 0.488864
C122  C     C_3   0.843237 0.501303 0.458164 0.516504
C123  C     C_3   0.338097 0.991797 0.959914 0.496076
C124  C     C_3   0.342399 0.002714 0.456511 0.491673
C125  C     C_3   0.800460 0.460568 0.046689 0.237664
C126  C     C_3   0.812353 0.537010 0.435738 0.285361
C127  C     C_3   0.300495 0.964791 0.013992 0.265142
C128  C     C_3   0.308463 0.036278 0.454270 0.301245
C129  C     C_3   0.999358 0.326262 0.520176 0.325779
C130  C     C_3   0.984523 0.691596 0.038905 0.226611
C131  C     C_3   0.501239 0.828295 0.519337 0.349024
C132  C     C_3   0.491600 0.182623 0.018623 0.231661
C133  C     C_R   0.918842 0.413508 0.345727 -0.240628
C134  C     C_R   0.925239 0.590615 0.833118 -0.208747
C135  C     C_R   0.418618 0.913508 0.346686 -0.235050
C136  C     C_R   0.421886 0.088438 0.838931 -0.217010
H1    H     H_    0.030280 0.339342 0.563644 -0.044582
H2    H     H_    0.005171 0.672842 0.960528 -0.048924
H3    H     H_    0.530813 0.844025 0.562312 -0.025141
H4    H     H_    0.514906 0.159061 0.981057 -0.004389
H5    H     H_    0.166899 0.563066 0.320992 0.115040
H6    H     H_    0.167207 0.442854 0.837769 0.117747
H7    H     H_    0.667721 0.057483 0.326754 0.120122
H8    H     H_    0.667981 0.941706 0.824418 0.123913
H9    H     H_    0.205727 0.527033 0.388240 0.162785
H10   H     H_    0.201566 0.482690 0.907069 0.154096
H11   H     H_    0.701728 0.018122 0.401878 0.161146
H12   H     H_    0.702248 0.980738 0.900477 0.152655
H13   H     H_    0.206417 0.542640 0.184647 0.146112
H14   H     H_    0.207778 0.464790 0.708470 0.145664
H15   H     H_    0.707820 0.034341 0.200249 0.127966
H16   H     H_    0.708209 0.965287 0.698354 0.144660
H17   H     H_    0.846935 0.473625 0.857447 0.128776
H18   H     H_    0.864270 0.496792 0.354021 0.023335
H19   H     H_    0.351518 0.980474 0.848241 0.106874
H20   H     H_    0.362270 0.002748 0.348553 0.064338
H21   H     H_    0.814960 0.444521 0.147681 0.012340
H22   H     H_    0.832018 0.563634 0.401736 -0.009532
H23   H     H_    0.313772 0.936000 0.056105 -0.011687
H24   H     H_    0.325680 0.065369 0.448359 -0.009461
H25   H     H_    0.773455 0.479351 0.093360 0.140557
H26   H     H_    0.795060 0.542800 0.548953 0.117137
H27   H     H_    0.282889 0.979248 0.113035 0.146520
H28   H     H_    0.288682 0.034569 0.564549 0.123616
H29   H     H_    0.989682 0.342027 0.410034 -0.059958
H30   H     H_    0.954497 0.701160 0.976763 0.036007
H31   H     H_    0.490046 0.842792 0.408704 -0.091427
H32   H     H_    0.467450 0.188496 0.924512 0.043385
H33   H     H_    0.035417 0.280298 0.396849 0.074603
H34   H     H_    0.042326 0.720128 0.133052 0.135953
H35   H     H_    0.537347 0.785224 0.381182 0.064065
H36   H     H_    0.541801 0.216001 0.139925 0.148065
H37   H     H_    0.120961 0.298201 0.884724 0.036825
H38   H     H_    0.957615 0.734224 0.634583 0.064306
H39   H     H_    0.511558 0.758826 0.040702 0.042557
H40   H     H_    0.484549 0.236390 0.579077 0.086007
H41   H     H_    0.141398 0.797931 0.089375 0.176268
H42   H     H_    0.151417 0.203872 0.491323 0.150324
H43   H     H_    0.654629 0.254684 0.366277 0.166110
H44   H     H_    0.645115 0.698311 0.530930 0.161352
H45   H     H_    0.837126 0.251714 0.832984 0.150513
H46   H     H_    0.848473 0.797651 0.679118 0.140494
H47   H     H_    0.352445 0.705813 0.115960 0.135083
H48   H     H_    0.353595 0.299986 0.683608 0.133778
H49   H     H_    0.869639 0.325481 0.487735 0.111931
H50   H     H_    0.873720 0.676298 0.981754 0.080826
H51   H     H_    0.369300 0.825473 0.489375 0.098138
H52   H     H_    0.372836 0.176124 0.979891 0.092137
H53   H     H_    0.143131 0.615400 0.155308 0.084108
H54   H     H_    0.147530 0.387390 0.653942 0.089739
H55   H     H_    0.642144 0.115462 0.161184 0.097465
H56   H     H_    0.641573 0.884145 0.665644 0.096080
H57   H     H_    0.113592 0.681484 0.723115 0.094432
H58   H     H_    0.122917 0.327273 0.207527 0.090970
H59   H     H_    0.616863 0.179195 0.719495 0.127308
H60   H     H_    0.614193 0.820043 0.228406 0.102313
H61   H     H_    0.855025 0.385532 0.047051 0.113161
H62   H     H_    0.853900 0.614286 0.551093 0.065237
H63   H     H_    0.357574 0.883140 0.043625 0.083986
H64   H     H_    0.359401 0.117822 0.538280 0.093672
H65   H     H_    0.940984 0.437080 0.381104 0.073398
H66   H     H_    0.948955 0.568147 0.865548 0.075184
H67   H     H_    0.440166 0.937452 0.382953 0.078997
H68   H     H_    0.443358 0.064584 0.876298 0.084080
H69   H     H_    0.014633 0.265102 0.587369 0.122368
H70   H     H_    0.992207 0.745853 0.176305 0.075859
H71   H     H_    0.528624 0.770337 0.582468 0.093436
H72   H     H_    0.494300 0.245043 0.087771 0.090482
H73   H     H_    0.070474 0.564312 0.786648 0.060935
H74   H     H_    0.034494 0.414926 0.399230 0.054589
H75   H     H_    0.572247 0.063228 0.787464 0.067309
H76   H     H_    0.569252 0.936316 0.296758 0.065935
H77   H     H_    0.029750 0.335812 0.865375 0.070825
H78   H     H_    0.981850 0.661192 0.670858 -0.053570
H79   H     H_    0.479621 0.843315 0.958942 0.099283
H80   H     H_    0.473186 0.150205 0.468425 0.092358
H81   H     H_    0.055248 0.319196 0.044757 0.007741
H82   H     H_    0.022381 0.700210 0.695477 -0.013860
H83   H     H_    0.497179 0.823358 0.146402 -0.039635
H84   H     H_    0.486658 0.169010 0.661201 -0.121144
H85   H     H_    0.088803 0.306890 0.709276 0.019623
H86   H     H_    0.988052 0.734097 0.451354 0.029757
H87   H     H_    0.507265 0.776994 0.840327 0.043593
H88   H     H_    0.492881 0.223895 0.374722 0.045214
H89   H     H_    0.128596 0.496544 0.337339 0.082053
H90   H     H_    0.124059 0.507227 0.831819 0.066664
H91   H     H_    0.624208 0.992784 0.332625 0.067295
H92   H     H_    0.625104 0.006524 0.832724 0.071812
N1    N     N_R   0.167790 0.682207 0.977594 -0.442373
N2    N     N_R   0.175101 0.323699 0.465454 -0.435429
N3    N     N_R   0.666667 0.182668 0.984531 -0.438005
N4    N     N_R   0.667444 0.818055 0.485823 -0.435332
N5    N     N_R   0.826102 0.322985 0.218239 -0.444181
N6    N     N_R   0.827036 0.677633 0.719301 -0.434484
N7    N     N_R   0.326750 0.822395 0.218790 -0.443607
N8    N     N_R   0.330247 0.179902 0.708308 -0.432899
O1    O     O_2   0.914200 0.445720 0.903420 -0.463091
O2    O     O_2   0.914200 0.554280 0.403420 -0.479389
O3    O     O_2   0.414200 0.945720 0.903420 -0.472753
O4    O     O_2   0.414200 0.054280 0.403420 -0.479154
O5    O     O_3   0.134128 0.491814 0.600533 -0.646031
O6    O     O_3   0.133637 0.507756 0.101823 -0.624498
O7    O     O_3   0.633144 0.992907 0.599609 -0.643452
O8    O     O_3   0.632847 0.007046 0.100118 -0.644557
O9    O     O_3   0.085540 0.367127 0.923271 -0.625029
O10   O     O_3   0.028861 0.668474 0.491207 -0.570059
O11   O     O_3   0.545881 0.833676 0.977126 -0.640735
O12   O     O_3   0.536827 0.169476 0.493259 -0.601270
O13   O     O_3   0.049930 0.518940 0.045960 -0.456351
O14   O     O_3   0.049930 0.481060 0.545960 -0.470752
O15   O     O_3   0.549930 0.018940 0.045960 -0.463331
O16   O     O_3   0.549930 0.981060 0.545960 -0.465984
O17   O     O_2   0.220716 0.635748 0.962801 -0.508556
O18   O     O_2   0.225935 0.371552 0.501526 -0.513590
O19   O     O_2   0.709729 0.166485 0.779329 -0.505846
O20   O     O_2   0.718637 0.866343 0.502742 -0.515166
O21   O     O_2   0.117990 0.731541 0.994793 -0.567821
O22   O     O_2   0.127849 0.272582 0.429890 -0.625789
O23   O     O_2   0.626619 0.201055 0.195419 -0.573965
O24   O     O_2   0.619545 0.766760 0.471886 -0.614719
O25   O     O_2   0.782057 0.341034 0.417766 -0.498381
O26   O     O_2   0.776847 0.628820 0.696275 -0.523373
O27   O     O_2   0.273960 0.868556 0.240952 -0.519610
O28   O     O_2   0.279555 0.131987 0.674102 -0.527055
O29   O     O_2   0.867070 0.302944 0.011957 -0.538332
O30   O     O_2   0.873363 0.729702 0.748713 -0.606259
O31   O     O_2   0.376774 0.773415 0.197239 -0.514924
O32   O     O_2   0.377346 0.231019 0.745810 -0.582530
O33   O     O_3   0.950020 0.480960 0.143730 -0.455269
O34   O     O_3   0.950020 0.519040 0.643730 -0.456971
O35   O     O_3   0.450020 0.980960 0.143730 -0.451242
O36   O     O_3   0.450020 0.019040 0.643730 -0.452201
O37   O     O_3   0.985090 0.412220 0.642040 -0.498669
O38   O     O_3   0.985090 0.587780 0.142040 -0.461510
O39   O     O_3   0.485090 0.912220 0.642040 -0.489281
O40   O     O_3   0.485090 0.087780 0.142040 -0.473203
O41   O     O_2   0.916008 0.377496 0.785722 -0.423113
O42   O     O_2   0.914131 0.620065 0.268005 -0.436032
O43   O     O_2   0.416608 0.876827 0.786917 -0.468569
O44   O     O_2   0.414105 0.120709 0.273454 -0.459650
O45   O     O_3   0.869972 0.496428 0.072302 -0.642456
O46   O     O_3   0.868553 0.505173 0.594182 -0.645494
O47   O     O_3   0.370097 0.996577 0.077094 -0.647487
O48   O     O_3   0.368912 0.004619 0.590327 -0.648040
O49   O     O_3   0.967678 0.328648 0.640263 -0.567416
O50   O     O_3   0.973609 0.670525 0.176898 -0.558665
O51   O     O_3   0.469012 0.828872 0.637864 -0.579675
O52   O     O_3   0.470134 0.171234 0.158218 -0.609379
O53   O     O_2   0.085560 0.445380 0.786390 -0.463809
O54   O     O_2   0.085560 0.554620 0.286390 -0.478410
O55   O     O_2   0.585560 0.945380 0.786390 -0.469721
O56   O     O_2   0.585560 0.054620 0.286390 -0.471069
O57   O     O_3   0.014550 0.412170 0.047860 -0.476583
O58   O     O_3   0.014550 0.587830 0.547860 -0.458707
O59   O     O_3   0.514550 0.912170 0.047860 -0.487048
O60   O     O_3   0.514550 0.087830 0.547860 -0.501498
O61   O     O_2   0.095886 0.434334 0.078429 -0.416299
O62   O     O_2   0.091913 0.616100 0.457317 -0.451657
O63   O     O_2   0.598688 0.895127 0.989488 -0.427185
O64   O     O_2   0.594803 0.112613 0.465330 -0.422131
P1    P     P_3+3 0.909970 0.458430 0.077330 1.006013
P2    P     P_3+3 0.909970 0.541570 0.577330 1.009650
P3    P     P_3+3 0.409970 0.958430 0.077330 0.995021
P4    P     P_3+3 0.409970 0.041570 0.577330 1.002192
P5    P     P_3+3 0.089830 0.458070 0.612460 0.992616
P6    P     P_3+3 0.089830 0.541930 0.112460 1.007469
P7    P     P_3+3 0.589830 0.958070 0.612460 0.986446
P8    P     P_3+3 0.589830 0.041930 0.112460 0.988098
P9    P     P_3+3 0.067753 0.395810 0.082891 1.010528
P10   P     P_3+3 0.053470 0.625655 0.569840 1.018500
P11   P     P_3+3 0.557849 0.878297 0.074729 0.983120
P12   P     P_3+3 0.555606 0.124121 0.571146 1.020220
P13   P     P_3+3 0.946404 0.626069 0.129403 1.030109
P14   P     P_3+3 0.943407 0.375966 0.632452 1.039848
P15   P     P_3+3 0.444735 0.124904 0.129174 0.993044
P16   P     P_3+3 0.443688 0.875767 0.632799 1.013790
Br1   Br    Br    0.809287 0.537668 0.904854 -0.548563
Br2   Br    Br    0.809099 0.452608 0.486676 -0.499136
Br3   Br    Br    0.314609 0.044543 0.915091 -0.539742
Br4   Br    Br    0.312248 0.951495 0.463877 -0.524358
O65   O     O_3   0.784206 0.433112 0.935246 -0.632908
C137  C     C_3   0.753467 0.407435 0.008288 0.266513
H93   H     H_    0.724800 0.424522 0.052462 0.071670
H94   H     H_    0.768444 0.389949 0.105448 0.027887
H95   H     H_    0.741582 0.385692 0.919932 0.119802
O66   O     O_3   0.782333 0.528570 0.315339 -0.650235
C138  C     C_3   0.753647 0.561200 0.297423 0.259240
H96   H     H_    0.771596 0.589205 0.266014 0.050808
H97   H     H_    0.733666 0.565622 0.405519 0.112455
H98   H     H_    0.730983 0.554488 0.199845 0.116200
O67   O     O_3   0.272116 0.958664 0.886071 -0.627047
C139  C     C_3   0.238904 0.931531 0.930323 0.310686
H99   H     H_    0.220185 0.942571 0.033974 0.097422
H100  H     H_    0.252585 0.901269 0.953884 0.065806
H101  H     H_    0.215757 0.928651 0.831330 0.110640
O68   O     O_3   0.281953 0.032174 0.320390 -0.653845
C140  C     C_3   0.248989 0.061508 0.323119 0.283139
H102  H     H_    0.262937 0.092330 0.328280 0.067034
H103  H     H_    0.226081 0.056168 0.423055 0.111654
H104  H     H_    0.230006 0.059258 0.212942 0.112924
Br5   Br    Br    0.956266 0.259715 0.379450 -0.497318
Br6   Br    Br    0.018576 0.765079 0.908171 -0.556198
Br7   Br    Br    0.462694 0.754808 0.415624 -0.532815
Br8   Br    Br    0.546049 0.239510 0.857930 -0.608994
Br9   Br    Br    0.699358 0.315622 0.532673 -0.483035
Br10  Br    Br    0.687025 0.625897 0.617715 -0.499574
Br11  Br    Br    0.181634 0.868007 0.208854 -0.489175
Br12  Br    Br    0.190358 0.130926 0.586335 -0.528704
O69   O     O_3   0.301673 0.648590 0.021115 -0.595631
C141  C     C_3   0.322430 0.647589 0.872592 0.289804
H105  H     H_    0.300578 0.658849 0.778146 0.039030
H106  H     H_    0.330534 0.616007 0.844727 0.100725
H107  H     H_    0.353525 0.664873 0.872864 -0.029188
O70   O     O_3   0.304362 0.358772 0.593696 -0.595521
C142  C     C_3   0.330350 0.365754 0.458682 0.276913
H108  H     H_    0.338351 0.398178 0.452472 0.100840
H109  H     H_    0.312555 0.357920 0.349219 0.039029
H110  H     H_    0.361688 0.349066 0.464672 -0.024147
O71   O     O_3   0.784582 0.198669 0.718770 -0.584464
C143  C     C_3   0.774667 0.221299 0.583321 0.270855
H111  H     H_    0.739461 0.229301 0.581226 0.059509
H112  H     H_    0.781466 0.202768 0.478012 0.087267
H113  H     H_    0.795277 0.248762 0.574108 0.022344
O72   O     O_3   0.797697 0.855198 0.588848 -0.594478
C144  C     C_3   0.822282 0.861382 0.449920 0.279540
H114  H     H_    0.829709 0.893839 0.438661 0.106602
H115  H     H_    0.803586 0.852418 0.343801 0.040253
H116  H     H_    0.853924 0.845152 0.454131 -0.008134
O73   O     O_3   0.066308 0.261526 0.859503 -0.637142
C145  C     C_3   0.090191 0.231223 0.782840 0.218221
H117  H     H_    0.124822 0.230485 0.821419 0.032970
H118  H     H_    0.088242 0.234825 0.653358 0.075233
H119  H     H_    0.075375 0.201797 0.813281 0.118464
O74   O     O_3   0.934953 0.694433 0.467295 -0.605677
C146  C     C_3   0.907517 0.722039 0.390125 0.252036
H120  H     H_    0.922656 0.732507 0.278454 0.033955
H121  H     H_    0.899237 0.748315 0.464604 0.030627
H122  H     H_    0.876535 0.706615 0.360596 0.049251
O75   O     O_3   0.448756 0.772725 0.965134 -0.601519
C147  C     C_3   0.440373 0.733840 0.908430 0.283153
H123  H     H_    0.454407 0.710702 0.987778 0.050360
H124  H     H_    0.452909 0.730015 0.786293 0.058317
H125  H     H_    0.404557 0.729182 0.905349 0.067477
O76   O     O_3   0.430339 0.213187 0.464985 -0.633130
C148  C     C_3   0.415919 0.249795 0.400439 0.236512
H126  H     H_    0.429877 0.254777 0.280825 0.028000
H127  H     H_    0.423837 0.275423 0.478668 0.044711
H128  H     H_    0.379922 0.248507 0.388526 0.057656
Br13  Br    Br    0.187011 0.452178 0.237759 -0.571116
Br14  Br    Br    0.180530 0.553369 0.724010 -0.594335
Br15  Br    Br    0.680024 0.946271 0.226733 -0.580481
Br16  Br    Br    0.681091 0.053230 0.725727 -0.579829

loop_
_geom_bond_atom_site_label_1
_geom_bond_atom_site_label_2
_ccdc_geom_bond_type
O1    P1    D    
C51   C55   A    
C112  H76   S    
C38   C54   A    
Ba3   O36   S    
O7    P7    S    
O8    P8    S    
C94   C134  S    
C94   P13   S    
C81   N1    S    
O42   P13   D    
C64   O32   D    
O4    P4    D    
C59   N7    Am   
O5    P5    S    
C70   C110  A    
C83   N3    S    
C90   H38   S    
C30   H46   S    
C5    C9    A    
C7    C11   A    
C8    C12   A    
C47   H83   S    
C16   N4    Am   
C66   C70   A    
C137  H93   S    
C116  O7    S    
C115  H91   S    
C43   C49   A    
C144  H116  S    
C115  Br15  S    
O6    P6    S    
C11   O19   D    
O11   P11   S    
C73   C109  A    
Ba2   O14   S    
O72   C144  S    
O64   P12   D    
C121  O45   S    
O66   C138  S    
C41   H41   S    
C91   O75   S    
O68   C140  S    
C124  O48   S    
C43   H43   S    
C64   N8    Am   
C44   H44   S    
C124  H20   S    
C97   C133  D    
O45   P1    S    
C2    H34   S    
C87   H51   S    
C13   C17   A    
C100  C136  D    
C45   H77   S    
C32   H48   S    
C129  O49   S    
C15   C19   A    
Ba1   O37   S    
C62   O30   D    
C74   C78   A    
Ba3   O39   S    
C7    C23   A    
C74   P5    S    
C137  H95   S    
C111  H75   S    
C92   H40   S    
C53   C57   A    
Ba3   O59   S    
C48   H84   S    
C148  H126  S    
Ba4   O40   S    
C71   C111  A    
O75   C147  S    
C118  H10   S    
Ba1   O14   S    
O34   P2    S    
C25   C31   A    
C46   H82   S    
C80   C84   S    
C139  H99   S    
C147  H124  S    
C14   N2    Am   
C14   O22   D    
C115  C119  S    
C122  Br2   S    
C55   C59   A    
C26   C32   A    
C56   C60   A    
O36   P4    S    
C16   O24   D    
C72   P11   S    
O60   P12   S    
C117  H9    S    
C118  H6    S    
C79   H55   S    
C123  C127  S    
C60   N8    Am   
C49   Br9   S    
O67   C139  S    
C121  C125  S    
C102  H62   S    
C142  H108  S    
O12   P12   S    
C99   C103  A    
Ba4   O60   S    
C45   C89   S    
O74   C146  S    
C47   C91   S    
Ba2   O33   S    
C75   C111  A    
C110  H74   S    
C3    Br7   S    
C21   C39   A    
C22   C40   A    
C113  O6    S    
C1    C129  S    
C92   H88   S    
C12   O20   D    
O10   P10   S    
C97   P1    S    
C143  H111  S    
C114  C118  S    
C52   Br12  S    
C9    O17   D    
C145  H117  S    
O48   P4    S    
C28   O72   S    
C113  Br13  S    
O76   C148  S    
O2    P2    D    
C33   C61   A    
C148  H128  S    
O51   P16   S    
C123  Br3   S    
O52   P15   S    
C46   O10   S    
C39   C55   A    
C126  H22   S    
C131  H3    S    
C127  H27   S    
C66   H58   S    
C62   N6    Am   
C95   C135  S    
C95   P16   S    
C139  H101  S    
C93   C133  S    
C17   C41   A    
C140  H103  S    
C19   C43   A    
C20   C44   A    
C76   C112  A    
C6    C10   A    
C89   H37   S    
C46   C90   S    
C146  H122  S    
C47   H79   S    
Ba1   P1    S    
C145  H119  S    
C103  H63   S    
C89   H85   S    
Ba2   O2    S    
C101  H61   S    
O37   P14   S    
C125  H21   S    
C48   O12   S    
Ba1   O34   S    
C135  H67   S    
Ba4   P4    S    
O39   P16   S    
C122  O46   S    
C18   C22   A    
Ba4   O16   S    
C45   O9    S    
C65   C81   A    
C9    N1    Am   
C86   H50   S    
C17   C21   A    
C45   H81   S    
O13   P6    S    
C14   C18   A    
Ba4   O35   S    
C1    H33   S    
C20   C24   A    
Ba2   O38   S    
C3    H71   S    
C4    H36   S    
C4    Br8   S    
C1    H69   S    
C141  H106  S    
C143  H113  S    
Ba1   O53   S    
C92   O76   S    
C42   H42   S    
C69   P10   S    
O53   P5    D    
C121  Br1   S    
C58   O26   D    
C1    Br5   S    
C80   H56   S    
C113  H89   S    
C142  H110  S    
C33   C37   A    
C138  H98   S    
C96   P15   S    
O63   P11   D    
O35   P3    S    
C36   C40   A    
C52   C56   A    
C41   C51   A    
C51   Br11  S    
C141  H105  S    
C130  H30   S    
C42   C52   A    
C137  H94   S    
C87   C95   S    
C4    H72   S    
Ba4   O4    S    
C77   C81   S    
Ba3   Ba4   S    
C144  H115  S    
C54   C58   A    
C79   C83   S    
C4    C132  S    
C2    H70   S    
C76   C80   A    
O58   P10   S    
O69   C141  S    
C134  H66   S    
C5    C21   A    
C146  H120  S    
C119  H15   S    
C120  H8    S    
O61   P9    D    
C82   N2    S    
C117  H13   S    
C8    C24   A    
C90   O74   S    
Ba1   O57   S    
C102  C106  A    
C121  H17   S    
C122  C126  S    
C69   C109  A    
C129  H29   S    
Ba3   O16   S    
C101  C105  A    
C132  H32   S    
O71   C143  S    
C65   C69   A    
C131  H31   S    
C77   H53   S    
C25   O69   S    
C63   O31   D    
O62   P10   D    
C116  H92   S    
C74   C110  A    
C103  C107  A    
C136  H68   S    
Ba1   O13   S    
C98   P2    S    
C119  H11   S    
C50   Br10  S    
C128  H28   S    
C139  H100  S    
C132  O52   S    
C49   C53   A    
C88   C108  D    
C78   C82   S    
O50   P13   S    
C29   C33   A    
C104  C108  A    
C31   C35   A    
C138  H96   S    
C128  H24   S    
C123  O47   S    
C130  H2    S    
C126  H26   S    
C126  O66   S    
C73   C77   A    
C106  N6    S    
C67   C83   A    
C18   C42   A    
O40   P15   S    
C105  N5    S    
C10   O18   D    
Ba2   O13   S    
C100  C104  A    
Ba1   P5    S    
Ba2   P2    S    
Ba3   P7    S    
C125  O65   S    
C130  O50   S    
O47   P3    S    
C15   N3    Am   
C67   H59   S    
C116  Br16  S    
C13   N1    Am   
C129  H1    S    
C58   N6    Am   
C125  H25   S    
C37   C53   A    
C132  H4    S    
C114  Br14  S    
Ba4   P8    S    
O38   P13   S    
C75   C79   A    
C89   O73   S    
C40   C56   A    
C93   P14   S    
C143  H112  S    
O41   P14   D    
C13   O21   D    
O65   C137  S    
C145  H118  S    
C78   H54   S    
O43   P16   D    
C90   H86   S    
C15   O23   D    
O44   P15   D    
C124  Br4   S    
C31   H47   S    
C36   C64   A    
C11   N3    Am   
C148  H127  S    
C85   H49   S    
O14   P5    S    
C29   H45   S    
C88   H52   S    
C28   C30   A    
Ba2   O54   S    
C109  H73   S    
C68   C72   A    
C70   P9    S    
C147  H123  S    
C26   O70   S    
C114  O5    S    
C133  H65   S    
C140  H102  S    
C44   C50   A    
C100  P4    S    
C34   C38   A    
C146  H121  S    
C12   N4    Am   
C87   C107  D    
C85   C105  D    
Ba1   Ba2   S    
C98   C134  D    
C63   N7    Am   
C6    C26   A    
C113  C117  S    
C96   C136  S    
C27   O71   S    
O55   P7    D    
C16   C20   A    
O56   P8    D    
C3    H35   S    
C27   C29   A    
C98   C102  A    
C19   C23   A    
C61   O29   D    
C71   P12   S    
C5    C25   A    
C127  O67   S    
C6    C22   A    
C73   P6    S    
C120  H12   S    
C7    C27   A    
C8    C28   A    
C65   H57   S    
C118  H14   S    
C61   N5    Am   
Ba2   O58   S    
C124  C128  S    
C68   C84   A    
C122  H18   S    
C97   C101  A    
C84   N4    S    
C60   O28   D    
C48   H80   S    
C34   C62   A    
C32   C36   A    
C75   P8    S    
C91   H87   S    
C76   P7    S    
O33   P1    S    
O49   P14   S    
C35   C39   A    
C108  N8    S    
C46   H78   S    
C107  N7    S    
C85   C93   S    
C115  O8    S    
C3    C131  S    
C99   C135  D    
C68   H60   S    
C23   C37   A    
O54   P6    D    
C142  H109  S    
Ba3   O3    S    
C138  H97   S    
C57   O25   D    
Ba1   O1    S    
C91   H39   S    
C119  H7    S    
C99   P3    S    
C120  H16   S    
C117  H5    S    
C86   C106  D    
C66   C82   A    
C147  H125  S    
C123  H19   S    
C10   N2    Am   
C47   O11   S    
C88   C96   S    
C144  H114  S    
C50   C54   A    
C140  H104  S    
C30   C34   A    
C35   C63   A    
Ba4   O56   S    
O3    P3    D    
O59   P11   S    
C141  H107  S    
C128  O68   S    
C57   N5    Am   
O57   P9    S    
C104  H64   S    
O73   C145  S    
C67   C71   A    
O15   P8    S    
O16   P7    S    
C59   O27   D    
C114  H90   S    
C24   C38   A    
C72   C112  A    
C48   C92   S    
O46   P2    S    
O70   C142  S    
Ba3   O15   S    
O9    P9    S    
C2    C130  S    
C127  H23   S    
Ba2   P6    S    
Ba3   P3    S    
Ba4   O15   S    
C2    Br6   S    
C131  O51   S    
C86   C94   S    
C116  C120  S    
Ba3   O55   S    
