data_mof_unit_23262.cif
_audit_creation_date              2012-12-10T17:52:40-0500
_audit_creation_method            fapswitch 2.2
_symmetry_space_group_name_H-M    P1
_symmetry_Int_Tables_number       1
_space_group_crystal_system       triclinic
_cell_length_a                    14.692095
_cell_length_b                    14.694055
_cell_length_c                    23.502756
_cell_angle_alpha                 77.020427
_cell_angle_beta                  102.722841
_cell_angle_gamma                 114.655714
_cell_volume                      4447.41723258

loop_
_atom_site_label
_atom_site_type_symbol
_atom_type_description
_atom_site_fract_x
_atom_site_fract_y
_atom_site_fract_z
_atom_type_partial_charge
C1    C     C_R   0.880418 0.312327 0.509643 0.807164
C2    C     C_R   0.119612 0.687720 0.490032 0.808241
C3    C     C_R   0.921643 0.520233 0.747137 0.436949
C4    C     C_R   0.078534 0.479958 0.252880 0.436951
C5    C     C_R   0.922761 0.520009 0.687922 -0.240638
C6    C     C_R   0.077387 0.480181 0.312090 -0.241338
C7    C     C_R   0.998173 0.499902 0.671483 -0.107172
C8    C     C_R   0.001851 0.500103 0.328523 -0.106883
C9    C     C_R   0.072449 0.479857 0.715278 -0.194562
C10   C     C_R   0.927481 0.519967 0.284729 -0.195052
C11   C     C_R   0.071406 0.480090 0.774365 -0.160316
C12   C     C_R   0.928551 0.519732 0.225646 -0.160578
C13   C     C_R   0.996264 0.500155 0.790531 0.276786
C14   C     C_R   0.003816 0.499851 0.209484 0.276900
C15   C     C_R   0.812930 0.205090 0.511779 -0.055043
C16   C     C_R   0.187087 0.795293 0.483673 -0.053666
C17   C     C_R   0.782937 0.030396 0.511886 -0.161684
C18   C     C_R   0.215760 0.972851 0.468440 -0.161151
C19   C     C_R   0.850017 0.130203 0.515053 -0.177066
C20   C     C_R   0.149308 0.871685 0.472188 -0.177600
C21   C     C_R   0.708748 0.178925 0.506714 -0.216403
C22   C     C_R   0.291435 0.821141 0.489916 -0.222076
C23   C     C_R   0.999444 0.499928 0.608996 0.830966
C24   C     C_R   0.000559 0.500073 0.391005 0.830437
C25   C     C_R   0.639174 0.079864 0.500644 0.093109
C26   C     C_R   0.359961 0.922612 0.484556 0.095476
C27   C     C_R   0.678130 0.004841 0.504291 0.148819
C28   C     C_R   0.320534 0.998765 0.475244 0.155852
C29   C     C_R   0.532501 0.053451 0.491132 0.066987
C30   C     C_R   0.466355 0.950126 0.489821 0.060706
C31   C     C_R   0.508614 0.878089 0.492694 -0.164814
C32   C     C_R   0.489726 0.127052 0.481485 -0.169093
C33   C     C_R   0.612356 0.905264 0.499698 -0.159121
C34   C     C_R   0.385859 0.099966 0.473194 -0.168461
C35   C     C_R   0.719224 0.673617 0.405140 -0.246029
C36   C     C_R   0.279706 0.324679 0.593462 -0.242159
C37   C     C_R   0.799147 0.641548 0.419387 0.057587
C38   C     C_R   0.200606 0.357872 0.580182 0.057786
C39   C     C_R   0.713419 0.507843 0.490286 0.041222
C40   C     C_R   0.286125 0.491745 0.509285 0.042273
C41   C     C_R   0.628032 0.535182 0.477087 -0.044216
C42   C     C_R   0.370541 0.463023 0.521319 -0.045002
C43   C     C_R   0.633394 0.621792 0.434170 0.069322
C44   C     C_R   0.364870 0.375833 0.563814 0.066572
C45   C     C_R   0.064387 0.584684 0.116413 0.599305
C46   C     C_R   0.935717 0.415315 0.883606 0.598972
C47   C     C_R   0.539240 0.480976 0.505546 0.013572
C48   C     C_R   0.458732 0.516496 0.492229 0.016852
C49   C     C_R   0.469141 0.604550 0.450464 -0.251841
C50   C     C_R   0.527978 0.391748 0.546364 -0.249803
C51   C     C_R   0.553734 0.655717 0.421553 0.369904
C52   C     C_R   0.443410 0.340489 0.575275 0.378328
C53   C     C_R   0.941107 0.414782 0.123671 0.581942
C54   C     C_R   0.059001 0.585214 0.876349 0.582383
C55   C     C_R   0.938454 0.413114 0.063883 -0.023694
C56   C     C_R   0.061658 0.586880 0.936138 -0.023872
C57   C     C_R   0.000774 0.499913 0.030136 -0.010571
C58   C     C_R   0.999339 0.500081 0.969884 -0.010559
C59   C     C_R   0.064469 0.586567 0.056491 -0.026228
C60   C     C_R   0.935642 0.413428 0.943530 -0.026091
C61   C     C_R   0.875218 0.327147 0.037158 -0.139109
C62   C     C_R   0.124894 0.672847 0.962863 -0.138858
C63   C     C_R   0.873834 0.327298 0.977591 -0.136576
C64   C     C_R   0.126278 0.672696 0.022430 -0.136431
Cu1   Cu    Cu3+1 0.081740 0.475680 0.515360 0.952951
Cu2   Cu    Cu3+1 0.918260 0.524320 0.484640 0.953155
H1    H     H_    0.826613 0.259513 0.062151 0.196405
H2    H     H_    0.173499 0.740482 0.937870 0.196493
H3    H     H_    0.812935 0.973361 0.514362 0.143871
H4    H     H_    0.185285 0.030927 0.460688 0.144198
H5    H     H_    0.463693 0.800003 0.487913 0.146751
H6    H     H_    0.534003 0.207173 0.478445 0.142363
H7    H     H_    0.281693 0.553797 0.476002 0.124176
H8    H     H_    0.718204 0.446649 0.524201 0.124524
H9    H     H_    0.134560 0.317233 0.602391 0.135520
H10   H     H_    0.865477 0.682415 0.397445 0.134414
H11   H     H_    0.725950 0.739338 0.371844 0.204063
H12   H     H_    0.272808 0.258546 0.626450 0.204270
H13   H     H_    0.412514 0.636565 0.439024 0.161500
H14   H     H_    0.583538 0.358425 0.556607 0.163219
H15   H     H_    0.824221 0.259771 0.958359 0.197027
H16   H     H_    0.175889 0.740224 0.041662 0.197057
H17   H     H_    0.864740 0.535671 0.654922 0.190409
H18   H     H_    0.135487 0.464667 0.345090 0.190083
H19   H     H_    0.131469 0.464115 0.703958 0.177325
H20   H     H_    0.868365 0.535561 0.296047 0.177263
H21   H     H_    0.129060 0.464638 0.807761 0.163530
H22   H     H_    0.870821 0.535041 0.192250 0.163537
H23   H     H_    0.641286 0.847630 0.501463 0.161099
H24   H     H_    0.356516 0.158885 0.465773 0.155318
H25   H     H_    0.317600 0.760246 0.500701 0.147988
H26   H     H_    0.684076 0.237738 0.507877 0.146003
H27   H     H_    0.068769 0.853283 0.467145 0.157988
H28   H     H_    0.930482 0.148953 0.519105 0.159186
N1    N     N_R   0.003449 0.499630 0.148527 -0.456354
N2    N     N_R   0.996652 0.500368 0.851493 -0.456390
N3    N     N_R   0.795430 0.560810 0.461550 -0.180781
N4    N     N_R   0.204570 0.439190 0.538450 -0.181341
O1    O     O_R   0.977900 0.338110 0.520250 -0.589263
O2    O     O_R   0.022100 0.661890 0.479750 -0.589283
O3    O     O_R   0.839850 0.379180 0.494310 -0.589353
O4    O     O_R   0.160150 0.620820 0.505690 -0.590032
O5    O     O_R   0.069020 0.479430 0.595090 -0.581748
O6    O     O_R   0.930980 0.520570 0.404910 -0.581988
O7    O     O_R   0.930970 0.520500 0.569150 -0.583409
O8    O     O_R   0.069030 0.479500 0.430850 -0.583881
O9    O     O_2   0.124397 0.667055 0.142433 -0.500554
O10   O     O_2   0.875697 0.332948 0.857584 -0.500868
O11   O     O_2   0.882126 0.332405 0.156798 -0.510596
O12   O     O_2   0.117983 0.667589 0.843221 -0.509818
Cl1   Cl    Cl    0.556622 0.764519 0.370061 -0.602540
Cl2   Cl    Cl    0.438959 0.229611 0.625123 -0.593601
Cl3   Cl    Cl    0.826867 0.546747 0.766081 -0.543359
Cl4   Cl    Cl    0.173467 0.453670 0.233949 -0.544130

loop_
_geom_bond_atom_site_label_1
_geom_bond_atom_site_label_2
_ccdc_geom_bond_type
C18   H4    S    
C20   H27   S    
C17   H3    S    
C53   N1    A    
Cu1   O8    S    
C38   N4    A    
C43   C51   A    
C1    O1    A    
C37   N3    A    
C39   C41   A    
C27   C33   A    
C15   C19   A    
C59   C64   A    
C63   H15   S    
C60   C63   A    
Cu2   N3    S    
C4    Cl4   S    
C35   C37   A    
Cu1   N4    S    
C29   C32   A    
C40   N4    A    
C30   C31   A    
C5    H17   S    
C39   N3    A    
C52   Cl2   S    
C58   C60   A    
C23   O7    A    
C40   H7    S    
C54   O12   S    
C39   H8    S    
Cu2   O2    S    
C61   C63   A    
C62   C64   A    
C9    H19   S    
C23   O5    A    
C11   H21   S    
C49   C51   A    
C46   O10   S    
C50   C52   A    
C22   H25   S    
C31   C33   A    
C1    C15   S    
C2    C16   S    
C54   N2    A    
C3    C13   A    
C44   C52   A    
C40   C42   A    
C28   C34   A    
C41   C43   A    
Cu2   O3    S    
C42   C44   A    
Cu1   O4    S    
C47   C50   A    
C38   H9    S    
C53   C55   A    
C25   C29   A    
C54   C56   A    
C6    H18   S    
C12   H22   S    
C13   N2    S    
C17   C27   A    
Cu2   O6    S    
C18   C28   A    
Cu1   O1    S    
C4    C6    A    
C3    Cl3   S    
C5    C7    A    
C17   C19   A    
C6    C8    A    
C35   H11   S    
C49   H13   S    
C16   C22   A    
C24   O6    A    
C32   C34   A    
C34   H24   S    
C29   C30   A    
C33   H23   S    
C61   H1    S    
C47   C48   A    
C16   C20   A    
C41   C47   A    
C42   C48   A    
C9    C11   A    
C64   H16   S    
C19   H28   S    
C10   C12   A    
C48   C49   A    
C37   H10   S    
C12   C14   A    
C26   C30   A    
C55   C57   A    
C56   C62   A    
C36   C44   A    
C24   O8    A    
Cu1   O5    S    
Cu2   O7    S    
C45   N1    A    
C1    O3    A    
C14   N1    S    
C35   C43   A    
C53   O11   S    
C7    C9    A    
C21   C25   A    
C45   C59   A    
C51   Cl1   S    
C46   C60   A    
C3    C5    A    
C50   H14   S    
C25   C27   A    
C26   C28   A    
C62   H2    S    
C36   C38   A    
C36   H12   S    
C11   C13   A    
C10   H20   S    
C57   C58   A    
C7    C23   S    
C55   C61   A    
C31   H5    S    
C8    C24   S    
C56   C58   A    
C18   C20   A    
C4    C14   A    
C57   C59   A    
C2    O2    A    
C15   C21   A    
C46   N2    A    
C8    C10   A    
Cu1   Cu2   S    
C22   C26   A    
C2    O4    A    
C45   O9    S    
C32   H6    S    
C21   H26   S    
