data_mof_unit_9777.cif
_audit_creation_date              2012-12-10T17:28:35-0500
_audit_creation_method            fapswitch 2.2
_symmetry_space_group_name_H-M    P1
_symmetry_Int_Tables_number       1
_space_group_crystal_system       triclinic
_cell_length_a                    10.647263
_cell_length_b                    11.941872
_cell_length_c                    12.835736
_cell_angle_alpha                 93.842503
_cell_angle_beta                  90.024511
_cell_angle_gamma                 84.125062
_cell_volume                      1619.78587903

loop_
_atom_site_label
_atom_site_type_symbol
_atom_type_description
_atom_site_fract_x
_atom_site_fract_y
_atom_site_fract_z
_atom_type_partial_charge
C1    C     C_R   0.492544 0.522850 0.700460 0.935171
C2    C     C_R   0.443910 0.540404 0.132885 -0.301145
C3    C     C_R   0.543242 0.459301 0.973644 0.191859
C4    C     C_R   0.456763 0.540701 0.026356 0.191857
C5    C     C_R   0.370704 0.959490 0.413556 -0.335657
C6    C     C_R   0.629296 0.040510 0.586444 -0.335657
C7    C     C_R   0.384751 0.842101 0.420402 0.008979
C8    C     C_R   0.615249 0.157899 0.579598 0.008980
C9    C     C_R   0.557791 0.855346 0.535481 -0.038787
C10   C     C_R   0.442209 0.144654 0.464519 -0.038784
C11   C     C_R   0.547521 0.973695 0.530887 0.088957
C12   C     C_R   0.507458 0.477150 0.299540 0.935173
C13   C     C_R   0.452478 0.026305 0.469113 0.088957
C14   C     C_R   0.740553 0.495578 0.486947 0.930987
C15   C     C_R   0.259447 0.504422 0.513053 0.930987
C16   C     C_R   0.916068 0.283581 0.508851 -0.113436
C17   C     C_R   0.083932 0.716419 0.491149 -0.113433
C18   C     C_R   0.984743 0.200526 0.562987 -0.197920
C19   C     C_R   0.015257 0.799474 0.437014 -0.197920
C20   C     C_R   0.091403 0.225975 0.618415 -0.146883
C21   C     C_R   0.908597 0.774025 0.381585 -0.146881
C22   C     C_R   0.134500 0.331684 0.612912 -0.114112
C23   C     C_R   0.519250 0.462700 0.188104 -0.082897
C24   C     C_R   0.865500 0.668316 0.387088 -0.114113
C25   C     C_R   0.070541 0.413771 0.551671 0.055220
C26   C     C_R   0.929459 0.586229 0.448329 0.055218
C27   C     C_R   0.952747 0.394679 0.510140 0.079310
C28   C     C_R   0.047253 0.605321 0.489861 0.079311
C29   C     C_R   0.123315 0.512843 0.528652 -0.201454
C30   C     C_R   0.876685 0.487157 0.471349 -0.201459
C31   C     C_2   0.698305 0.301558 0.189775 0.381737
C32   C     C_2   0.301703 0.698445 0.810224 0.381745
C33   C     C_R   0.480753 0.537300 0.811896 -0.082899
C34   C     C_R   0.383746 0.621146 0.972069 -0.305965
C35   C     C_R   0.616260 0.378856 0.027931 -0.305970
C36   C     C_R   0.392234 0.618994 0.863786 -0.009292
C37   C     C_R   0.607772 0.381007 0.136214 -0.009292
C38   C     C_R   0.556094 0.459597 0.867115 -0.301144
H1    H     H_    0.296575 0.997532 0.365500 0.146946
H2    H     H_    0.683388 0.317281 0.986213 0.132520
H3    H     H_    0.370285 0.186506 0.416890 0.134950
H4    H     H_    0.629715 0.813494 0.583110 0.134951
H5    H     H_    0.857104 0.837172 0.336870 0.140940
H6    H     H_    0.142897 0.162827 0.663129 0.140940
H7    H     H_    0.376193 0.602415 0.173602 0.155573
H8    H     H_    0.623810 0.397584 0.826397 0.155572
H9    H     H_    0.736085 0.222914 0.148667 0.056648
H10   H     H_    0.263937 0.777096 0.851327 0.056644
H11   H     H_    0.678542 0.209355 0.622201 0.132145
H12   H     H_    0.703425 0.002468 0.634500 0.146946
H13   H     H_    0.321458 0.790645 0.377799 0.132145
H14   H     H_    0.837418 0.257945 0.463281 0.199863
H15   H     H_    0.162582 0.742055 0.536720 0.199860
H16   H     H_    0.954364 0.116696 0.562639 0.139055
H17   H     H_    0.045637 0.883304 0.437361 0.139055
H18   H     H_    0.218450 0.348819 0.656321 0.153716
H19   H     H_    0.781550 0.651181 0.343680 0.153715
H20   H     H_    0.316619 0.682722 0.013787 0.132521
N1    N     N_R   0.523130 0.207800 0.519340 -0.099198
N2    N     N_R   0.476870 0.792200 0.480660 -0.099199
O1    O     O_R   0.506170 0.421700 0.658830 -0.642093
O2    O     O_2   0.262479 0.674957 0.723038 -0.598807
O3    O     O_R   0.493830 0.578300 0.341170 -0.642094
O4    O     O_R   0.491330 0.609310 0.646410 -0.585349
O5    O     O_R   0.508670 0.390690 0.353590 -0.585341
O6    O     O_R   0.690650 0.406190 0.506220 -0.615376
O7    O     O_R   0.309350 0.593810 0.493780 -0.615379
O8    O     O_R   0.675800 0.593810 0.493800 -0.636693
O9    O     O_R   0.324200 0.406190 0.506200 -0.636693
O10   O     O_2   0.737515 0.325038 0.276967 -0.598806
Zn1   Zn    Zn3+2 0.509910 0.374730 0.508290 0.960489
Zn2   Zn    Zn3+2 0.490090 0.625270 0.491710 0.960485

loop_
_geom_bond_atom_site_label_1
_geom_bond_atom_site_label_2
_ccdc_geom_bond_type
C2    C4    A    
C5    C7    A    
C26   C30   A    
C31   H9    S    
C25   C27   A    
C11   C13   A    
C12   O5    A    
C5    C13   A    
O6    Zn1   S    
C31   C37   S    
C3    C35   A    
O8    Zn2   S    
C9    N2    A    
C15   O7    A    
O1    Zn1   S    
C16   C27   A    
O4    Zn2   S    
C35   H2    S    
C14   O6    A    
C7    H13   S    
C2    H7    S    
O5    Zn1   S    
C26   C28   A    
C6    H12   S    
C27   C30   A    
C34   H20   S    
C9    C11   A    
C12   C23   S    
N1    Zn1   S    
C9    H4    S    
C32   H10   S    
C14   C30   S    
C6    C8    A    
C32   C36   S    
C28   C29   A    
C19   C21   A    
C20   C22   A    
C15   C29   S    
C14   O8    A    
C34   C36   A    
C5    H1    S    
C8    N1    A    
C25   C29   A    
C15   O9    A    
C4    C34   A    
C38   H8    S    
N2    Zn2   S    
C1    C33   S    
C3    C4    A    
C1    O4    A    
C17   H15   S    
C7    N2    A    
C6    C11   A    
C33   C36   A    
O3    Zn2   S    
C35   C37   A    
C18   C20   A    
C16   C18   A    
O7    Zn2   S    
C21   C24   A    
C19   H17   S    
C2    C23   A    
O9    Zn1   S    
C12   O3    A    
C18   H16   S    
C17   C19   A    
C33   C38   A    
C22   H18   S    
C32   O2    D    
C20   H6    S    
C23   C37   A    
C17   C28   A    
C10   N1    A    
C8    H11   S    
C10   C13   A    
C31   O10   D    
C21   H5    S    
C16   H14   S    
C3    C38   A    
C24   C26   A    
C24   H19   S    
C10   H3    S    
C22   C25   A    
C1    O1    A    
