data_mof_unit_14718.cif
_audit_creation_date              2012-12-11T15:41:29-0500
_audit_creation_method            fapswitch 2.2
_symmetry_space_group_name_H-M    P1
_symmetry_Int_Tables_number       1
_space_group_crystal_system       triclinic
_cell_length_a                    19.072602
_cell_length_b                    10.944681
_cell_length_c                    18.828947
_cell_angle_alpha                 90.077451
_cell_angle_beta                  90.292085
_cell_angle_gamma                 90.081915
_cell_volume                      3930.36242174

loop_
_atom_site_label
_atom_site_type_symbol
_atom_type_description
_atom_site_fract_x
_atom_site_fract_y
_atom_site_fract_z
_atom_type_partial_charge
C1    C     C_R   0.708768 0.002627 0.860947 0.543540
C2    C     C_R   0.274965 0.960654 0.144295 0.551307
C3    C     C_R   0.225051 0.460679 0.855708 0.560013
C4    C     C_R   0.791270 0.502541 0.139128 0.540211
C5    C     C_R   0.724366 0.538123 0.025037 0.033062
C6    C     C_R   0.295603 0.485581 0.965898 -0.004468
C7    C     C_R   0.204551 0.985649 0.034159 -0.002766
C8    C     C_R   0.775886 0.037992 0.975081 0.031366
C9    C     C_R   0.712764 0.511919 0.953815 0.097035
C10   C     C_R   0.302326 0.475008 0.039035 0.060669
C11   C     C_R   0.197858 0.975227 0.961007 0.061015
C12   C     C_R   0.787505 0.011687 0.046249 0.095879
C13   C     C_R   0.823710 0.409005 0.949623 -0.123787
C14   C     C_R   0.184048 0.398453 0.045730 -0.101300
C15   C     C_R   0.316046 0.898810 0.954232 -0.101668
C16   C     C_R   0.676380 0.908863 0.050372 -0.123346
C17   C     C_R   0.834694 0.433785 0.021603 -0.105056
C18   C     C_R   0.178918 0.402533 0.972352 -0.106533
C19   C     C_R   0.321119 0.902666 0.027614 -0.106666
C20   C     C_R   0.665350 0.933829 0.978445 -0.104833
C21   C     C_3   0.647722 0.542071 0.040843 -0.263499
C22   C     C_3   0.371008 0.456316 0.953568 -0.278758
C23   C     C_3   0.129090 0.956408 0.046393 -0.280958
C24   C     C_3   0.852518 0.041933 0.959201 -0.261790
C25   C     C_3   0.634759 0.515636 0.962055 -0.114443
C26   C     C_3   0.378580 0.443329 0.033710 -0.083787
C27   C     C_3   0.121548 0.943531 0.966225 -0.084179
C28   C     C_3   0.865507 0.015373 0.037927 -0.113873
C29   C     C_R   0.758392 0.434616 0.916922 0.038444
C30   C     C_R   0.248478 0.422671 0.079397 0.008398
C31   C     C_R   0.251651 0.922958 0.920589 0.007831
C32   C     C_R   0.741762 0.934417 0.083077 0.038595
C33   C     C_R   0.502847 0.175461 0.423283 -0.016438
C34   C     C_R   0.515038 0.165770 0.569841 -0.067553
C35   C     C_R   0.002831 0.675458 0.423289 -0.019311
C36   C     C_R   0.015015 0.665761 0.569849 -0.064777
C37   C     C_R   0.490143 0.278057 0.465565 -0.071150
C38   C     C_R   0.498253 0.274424 0.537075 -0.049100
C39   C     C_R   0.990113 0.778044 0.465575 -0.073470
C40   C     C_R   0.998219 0.774409 0.537085 -0.047476
C41   C     C_R   0.535452 0.064079 0.528155 0.327814
C42   C     C_R   0.531547 0.070795 0.454113 0.327738
C43   C     C_R   0.035438 0.564078 0.528161 0.328961
C44   C     C_R   0.031536 0.570797 0.454120 0.327456
C45   C     C_R   0.565671 0.182133 0.856095 0.581337
C46   C     C_R   0.472055 0.178262 0.150842 0.566145
C47   C     C_R   0.027966 0.678257 0.849170 0.568404
C48   C     C_R   0.934316 0.681927 0.143909 0.580807
C49   C     C_3   0.424128 0.350909 0.472726 0.279932
C50   C     C_3   0.436275 0.352583 0.551639 0.292300
C51   C     C_3   0.924089 0.850870 0.472732 0.278760
C52   C     C_3   0.936230 0.852541 0.551647 0.293054
C53   C     C_R   0.759893 0.427103 0.426432 0.041570
C54   C     C_R   0.237758 0.441209 0.570084 0.044196
C55   C     C_R   0.259892 0.927098 0.426431 0.043843
C56   C     C_R   0.737749 0.941231 0.570078 0.041478
C57   C     C_R   0.817656 0.433111 0.472316 0.051989
C58   C     C_R   0.190615 0.366559 0.534611 0.138464
C59   C     C_R   0.317655 0.933106 0.472314 0.053928
C60   C     C_R   0.690610 0.866571 0.534607 0.137260
C61   C     C_R   0.811031 0.424268 0.544465 -0.009824
C62   C     C_R   0.192452 0.353951 0.462457 0.070456
C63   C     C_R   0.311029 0.924261 0.544463 -0.009234
C64   C     C_R   0.692448 0.853958 0.462453 0.069922
C65   C     C_R   0.685401 0.415236 0.529778 -0.111093
C66   C     C_R   0.283511 0.505582 0.454991 -0.115394
C67   C     C_R   0.185399 0.915223 0.529775 -0.111318
C68   C     C_R   0.783498 0.005604 0.454983 -0.114323
C69   C     C_R   0.692660 0.425909 0.455975 -0.185371
C70   C     C_R   0.281000 0.518797 0.529304 -0.133873
C71   C     C_R   0.192658 0.925902 0.455972 -0.185295
C72   C     C_R   0.780985 0.018826 0.529296 -0.134685
C73   C     C_3   0.885384 0.365264 0.472721 0.272129
C74   C     C_3   0.173733 0.236007 0.547511 0.251436
C75   C     C_3   0.385384 0.865264 0.472718 0.271686
C76   C     C_3   0.673728 0.736020 0.547512 0.253279
C77   C     C_3   0.879126 0.358316 0.552867 -0.202251
C78   C     C_3   0.176595 0.220179 0.467837 -0.183027
C79   C     C_3   0.379125 0.858311 0.552863 -0.201555
C80   C     C_3   0.676592 0.720185 0.467837 -0.183442
C81   C     C_R   0.745427 0.406453 0.574217 0.087130
C82   C     C_R   0.242773 0.415119 0.421863 0.056594
C83   C     C_R   0.245426 0.906442 0.574213 0.086808
C84   C     C_R   0.742767 0.915127 0.421858 0.056339
C85   C     C_R   0.739157 0.366149 0.852269 0.563103
C86   C     C_R   0.261721 0.364598 0.147534 0.547722
C87   C     C_R   0.238320 0.864676 0.852441 0.553901
C88   C     C_R   0.760886 0.866086 0.147705 0.557200
C89   C     C_R   0.725684 0.961586 0.645105 0.590741
C90   C     C_R   0.272561 0.955271 0.352574 0.551943
C91   C     C_R   0.225689 0.461574 0.645108 0.580870
C92   C     C_R   0.772561 0.455272 0.352573 0.563308
C93   C     C_R   0.532490 0.175409 0.643369 0.569884
C94   C     C_R   0.471869 0.176934 0.353826 0.612756
C95   C     C_R   0.032482 0.675408 0.643372 0.555974
C96   C     C_R   0.971867 0.676934 0.353825 0.628141
C97   C     C_R   0.738187 0.359743 0.645512 0.564210
C98   C     C_R   0.259460 0.364355 0.352556 0.598098
C99   C     C_R   0.238185 0.859735 0.645509 0.562955
C100  C     C_R   0.759458 0.864359 0.352552 0.599483
C101  C     C_2   0.560505 0.170204 0.932901 0.332500
C102  C     C_2   0.508748 0.176745 0.083184 0.358939
C103  C     C_2   0.991353 0.676716 0.916872 0.359255
C104  C     C_2   0.939495 0.669843 0.067105 0.333747
C105  C     C_2   0.507350 0.079321 0.039957 0.378007
C106  C     C_2   0.512792 0.095648 0.962708 0.390920
C107  C     C_2   0.987256 0.595585 0.037234 0.390303
C108  C     C_2   0.992749 0.579307 0.959969 0.377132
C109  C     C_R   0.781809 0.488805 0.062084 0.043214
C110  C     C_R   0.236407 0.439212 0.931006 -0.000521
C111  C     C_R   0.263643 0.939182 0.068982 -0.000114
C112  C     C_R   0.718297 0.988844 0.937988 0.042667
Cr1   Cr    Cr6+3 0.769260 0.163750 0.750730 1.054650
Cr2   Cr    Cr6+3 0.230740 0.163750 0.249270 1.056140
Cr3   Cr    Cr6+3 0.269260 0.663750 0.750730 1.058143
Cr4   Cr    Cr6+3 0.730740 0.663750 0.249270 1.052313
Cr5   Cr    Cr6+3 0.612640 0.009910 0.748780 1.133782
Cr6   Cr    Cr6+3 0.387360 0.009910 0.251220 1.149250
Cr7   Cr    Cr6+3 0.112640 0.509910 0.748780 1.134821
Cr8   Cr    Cr6+3 0.887360 0.509910 0.251220 1.148043
Cr9   Cr    Cr6+3 0.614190 0.322400 0.747710 1.099703
Cr10  Cr    Cr6+3 0.385810 0.322400 0.252290 1.096548
Cr11  Cr    Cr6+3 0.114190 0.822400 0.747710 1.113035
Cr12  Cr    Cr6+3 0.885810 0.822400 0.252290 1.083032
H1    H     H_    0.426677 0.441472 0.446316 0.178119
H2    H     H_    0.394763 0.307582 0.583692 0.172279
H3    H     H_    0.926634 0.941433 0.446323 0.178220
H4    H     H_    0.894723 0.807522 0.583698 0.172267
H5    H     H_    0.633144 0.405686 0.551265 0.168204
H6    H     H_    0.320963 0.557336 0.424503 0.205548
H7    H     H_    0.133142 0.905667 0.551261 0.168368
H8    H     H_    0.820947 0.057361 0.424493 0.206540
H9    H     H_    0.646471 0.430906 0.422402 0.131513
H10   H     H_    0.314128 0.585976 0.554743 0.180989
H11   H     H_    0.146470 0.930899 0.422399 0.130737
H12   H     H_    0.814108 0.086013 0.554734 0.180934
H13   H     H_    0.929276 0.420612 0.453242 0.199331
H14   H     H_    0.121023 0.221264 0.570900 0.191263
H15   H     H_    0.429276 0.920616 0.453241 0.200081
H16   H     H_    0.621016 0.721281 0.570900 0.191698
H17   H     H_    0.874008 0.263663 0.572979 0.196405
H18   H     H_    0.221745 0.164541 0.450128 0.194381
H19   H     H_    0.374008 0.763656 0.572973 0.196135
H20   H     H_    0.721742 0.664545 0.450131 0.193983
H21   H     H_    0.918636 0.414981 0.581305 0.156204
H22   H     H_    0.125077 0.195995 0.443738 0.148540
H23   H     H_    0.418636 0.914976 0.581301 0.157949
H24   H     H_    0.625073 0.695999 0.443738 0.148716
H25   H     H_    0.864068 0.358547 0.922029 0.169172
H26   H     H_    0.139764 0.362537 0.074898 0.207173
H27   H     H_    0.360302 0.862986 0.925021 0.207104
H28   H     H_    0.635958 0.858416 0.077921 0.169723
H29   H     H_    0.882983 0.403199 0.046249 0.168982
H30   H     H_    0.130147 0.373613 0.948174 0.244697
H31   H     H_    0.369820 0.873697 0.051769 0.244732
H32   H     H_    0.616963 0.903367 0.953797 0.168431
H33   H     H_    0.100557 0.035356 0.069714 0.143185
H34   H     H_    0.869606 0.134089 0.941535 0.136219
H35   H     H_    0.630776 0.634197 0.058688 0.136132
H36   H     H_    0.399673 0.535276 0.930388 0.144721
H37   H     H_    0.631058 0.465946 0.075993 0.213564
H38   H     H_    0.378208 0.368645 0.924567 0.156615
H39   H     H_    0.121714 0.868702 0.075212 0.153800
H40   H     H_    0.869012 0.965853 0.923877 0.215567
H41   H     H_    0.608237 0.427488 0.951895 0.215436
H42   H     H_    0.390204 0.348233 0.050505 0.150259
H43   H     H_    0.109792 0.848453 0.949245 0.148828
H44   H     H_    0.891863 0.927180 0.047875 0.216398
O1    O     O_R   0.784290 0.290360 0.830540 -0.529556
O2    O     O_R   0.215710 0.290360 0.169460 -0.517307
O3    O     O_R   0.284290 0.790360 0.830540 -0.516445
O4    O     O_R   0.715710 0.790360 0.169460 -0.530342
O5    O     O_R   0.554690 0.080440 0.673480 -0.444649
O6    O     O_R   0.445310 0.080440 0.326520 -0.458269
O7    O     O_R   0.054690 0.580440 0.673480 -0.452207
O8    O     O_R   0.945310 0.580440 0.326520 -0.451503
O9    O     O_R   0.543980 0.282110 0.666770 -0.480930
O10   O     O_R   0.456020 0.282110 0.333230 -0.510807
O11   O     O_R   0.043980 0.782110 0.666770 -0.484453
O12   O     O_R   0.956020 0.782110 0.333230 -0.507698
O13   O     O_R   0.679070 0.374030 0.674430 -0.484334
O14   O     O_R   0.320930 0.374030 0.325570 -0.465620
O15   O     O_R   0.179070 0.874030 0.674430 -0.486398
O16   O     O_R   0.820930 0.874030 0.325570 -0.463373
O17   O     O_3   0.665360 0.165350 0.749070 -0.344689
O18   O     O_3   0.334640 0.165350 0.250930 -0.287333
O19   O     O_3   0.165360 0.665350 0.749070 -0.305025
O20   O     O_3   0.834640 0.665350 0.250930 -0.327054
O21   O     O_R   0.762610 0.041070 0.825230 -0.490970
O22   O     O_R   0.237390 0.041070 0.174770 -0.503880
O23   O     O_R   0.262610 0.541070 0.825230 -0.497843
O24   O     O_R   0.737390 0.541070 0.174770 -0.499000
O25   O     O_R   0.667390 0.924160 0.829970 -0.462676
O26   O     O_R   0.332610 0.924160 0.170030 -0.477942
O27   O     O_R   0.167390 0.424160 0.829970 -0.475102
O28   O     O_R   0.832610 0.424160 0.170030 -0.466708
O29   O     O_R   0.553980 0.081420 0.821780 -0.477689
O30   O     O_R   0.446020 0.081420 0.178220 -0.471728
O31   O     O_R   0.053980 0.581420 0.821780 -0.475187
O32   O     O_R   0.946020 0.581420 0.178220 -0.474928
O33   O     O_R   0.543210 0.283170 0.826740 -0.506299
O34   O     O_R   0.456790 0.283170 0.173260 -0.496338
O35   O     O_R   0.043210 0.783170 0.826740 -0.487280
O36   O     O_R   0.956790 0.783170 0.173260 -0.516499
O37   O     O_R   0.678350 0.375000 0.822720 -0.487762
O38   O     O_R   0.321650 0.375000 0.177280 -0.487786
O39   O     O_R   0.178350 0.875000 0.822720 -0.479070
O40   O     O_R   0.821650 0.875000 0.177280 -0.496227
O41   O     O_R   0.785060 0.289300 0.670580 -0.530639
O42   O     O_R   0.214940 0.289300 0.329420 -0.506085
O43   O     O_R   0.285060 0.789300 0.670580 -0.529765
O44   O     O_R   0.714940 0.789300 0.329420 -0.506780
O45   O     O_R   0.763330 0.040090 0.676940 -0.503772
O46   O     O_R   0.236670 0.040090 0.323060 -0.519486
O47   O     O_R   0.263330 0.540090 0.676940 -0.511045
O48   O     O_R   0.736670 0.540090 0.323060 -0.512801
O49   O     O_R   0.668160 0.923110 0.670000 -0.450138
O50   O     O_R   0.331840 0.923110 0.330000 -0.460681
O51   O     O_R   0.168160 0.423110 0.670000 -0.456195
O52   O     O_R   0.831840 0.423110 0.330000 -0.454825
F1    F     F_    0.485687 0.968672 0.064092 -0.657443
F2    F     F_    0.465335 0.034727 0.921616 -0.641320
F3    F     F_    0.034683 0.534911 0.078273 -0.640678
F4    F     F_    0.014399 0.468737 0.935689 -0.658040
F5    F     F_    0.866237 0.780002 0.455696 -0.674934
F6    F     F_    0.955987 0.966831 0.576240 -0.632857
F7    F     F_    0.366266 0.280060 0.455699 -0.674442
F8    F     F_    0.456045 0.466869 0.576225 -0.633969
F9    F     F_    0.880013 0.252121 0.440530 -0.634588
F10   F     F_    0.227796 0.176693 0.582546 -0.638253
F11   F     F_    0.380017 0.752122 0.440526 -0.635795
F12   F     F_    0.727789 0.676709 0.582550 -0.635956
F13   F     F_    0.527420 0.288559 0.057708 -0.677399
F14   F     F_    0.614921 0.214591 0.972139 -0.687832
F15   F     F_    0.885143 0.714044 0.027880 -0.686371
F16   F     F_    0.972726 0.788476 0.942497 -0.676371
C113  C     C_2   0.600535 0.620377 0.923565 0.219520
H45   H     H_    0.550006 0.653684 0.941334 0.111007
O53   O     O_2   0.627993 0.666801 0.871722 -0.447191
C114  C     C_2   0.427015 0.537233 0.066050 0.284327
H46   H     H_    0.482315 0.535456 0.052906 0.135119
O54   O     O_2   0.405345 0.614528 0.107293 -0.476364
C115  C     C_2   0.073279 0.037456 0.934038 0.286562
H47   H     H_    0.017973 0.035672 0.947160 0.135019
O55   O     O_2   0.095091 0.114766 0.892934 -0.472471
C116  C     C_2   0.899984 0.120036 0.076588 0.217372
H48   H     H_    0.950662 0.153049 0.058962 0.111647
O56   O     O_2   0.872553 0.166748 0.128389 -0.453251
F17   F     F_    0.555254 0.957433 0.558612 -0.630122
F18   F     F_    0.548771 0.972473 0.413779 -0.614220
F19   F     F_    0.055253 0.457438 0.558617 -0.629667
F20   F     F_    0.048771 0.472482 0.413786 -0.611766

loop_
_geom_bond_atom_site_label_1
_geom_bond_atom_site_label_2
_ccdc_geom_bond_type
C58   C62   A    
C73   C77   S    
C39   C51   S    
C4    C109  S    
C67   C83   A    
C103  F16   S    
Cr2   O22   S    
C55   C59   A    
C73   H13   S    
C19   H31   S    
C41   C42   A    
C14   C18   A    
Cr9   O9    S    
C50   F8    S    
Cr8   O32   S    
C34   C93   S    
Cr1   O45   S    
Cr4   O48   S    
C53   C69   A    
C33   C94   S    
C86   O38   A    
C73   F9    S    
C52   H4    S    
C9    C25   S    
C74   F10   S    
C63   C79   S    
C35   C96   S    
C15   C19   A    
Cr4   O20   S    
C32   C88   S    
Cr8   O28   S    
C81   C97   S    
C48   O32   A    
C100  O44   A    
Cr7   O31   S    
C33   C42   A    
C46   C102  S    
Cr6   O30   S    
C13   C29   A    
C88   O40   A    
Cr12  O16   S    
C55   C90   S    
C78   H18   S    
C1    C112  S    
C71   H11   S    
C22   H38   S    
C24   H34   S    
Cr10  O18   S    
C3    C110  S    
C45   O29   A    
Cr2   O46   S    
C48   C104  S    
Cr3   O19   S    
C88   O4    A    
Cr4   O4    S    
C102  C105  D    
C92   O52   A    
C102  F13   S    
C94   O10   A    
C57   C73   S    
C57   C61   A    
C68   H8    S    
Cr5   O5    S    
C4    O24   A    
C64   C84   A    
C91   O47   A    
Cr12  O40   S    
Cr7   O7    S    
C20   C112  A    
Cr1   O21   S    
C44   F20   S    
C104  F15   S    
C79   H19   S    
C61   C77   S    
C56   C72   A    
C25   C113  S    
C76   F12   S    
Cr11  O15   S    
C107  C108  S    
Cr5   O49   S    
C103  C108  D    
C50   H2    S    
Cr9   O37   S    
C30   C86   S    
C20   H32   S    
C21   H35   S    
C29   C85   S    
C18   H30   S    
C8    C12   A    
Cr3   O23   S    
C10   C26   S    
C6    C22   S    
C62   C82   A    
C11   C31   A    
C27   C115  S    
C83   C99   S    
C113  H45   S    
C12   C32   A    
Cr7   O51   S    
C64   C80   S    
C47   O31   A    
C24   H40   S    
C34   C41   A    
C14   C30   A    
Cr6   O26   S    
Cr8   O20   S    
C15   H27   S    
C34   C38   A    
C98   O42   A    
Cr8   O8    S    
C11   C27   S    
C7    C11   A    
C23   H39   S    
C76   H16   S    
Cr6   O18   S    
Cr12  O12   S    
C116  O56   D    
C2    C111  S    
C47   C103  S    
Cr7   O19   S    
C82   C98   S    
Cr9   O13   S    
C85   O37   A    
C51   C52   S    
C68   C84   A    
C24   C28   S    
C36   C40   A    
C31   C87   S    
Cr11  O11   S    
C21   C25   S    
C39   C40   A    
Cr12  O20   S    
C53   C57   A    
C99   O43   A    
Cr1   O1    S    
C80   H20   S    
C17   H29   S    
C40   C52   S    
Cr9   O17   S    
C15   C31   A    
C60   C76   S    
C3    O27   A    
C4    O28   A    
C56   C60   A    
C63   C83   A    
C68   C72   A    
C2    O26   A    
C84   C100  S    
C6    C110  A    
C80   H24   S    
C35   C39   A    
C43   C44   A    
C5    C9    A    
C37   C38   A    
C108  F4    S    
Cr6   O6    S    
C3    O23   A    
C65   H5    S    
C66   C82   A    
C74   H14   S    
C10   C30   A    
C65   C81   A    
C54   C70   A    
C46   O34   A    
Cr8   O52   S    
C16   C20   A    
Cr1   O17   S    
C14   H26   S    
C53   C92   S    
C114  O54   D    
Cr3   O47   S    
Cr10  O38   S    
C28   C116  S    
C96   O12   A    
C75   F11   S    
C35   C44   A    
C87   O39   A    
C37   C49   S    
C97   O41   A    
C94   O6    A    
C52   F6    S    
C56   C89   S    
Cr12  O36   S    
Cr5   O17   S    
C23   C27   S    
C45   C101  S    
C74   C78   S    
Cr7   O27   S    
Cr3   O3    S    
C76   C80   S    
C41   F17   S    
Cr11  O39   S    
Cr11  O19   S    
C59   C75   S    
C90   O46   A    
Cr5   O29   S    
C58   C74   S    
C89   O45   A    
C54   C58   A    
C95   O11   A    
C101  C106  D    
Cr2   O2    S    
Cr10  O10   S    
C116  H48   S    
C26   H42   S    
C69   H9    S    
C47   O35   A    
C49   F7    S    
C87   O3    A    
C99   O15   A    
C62   C78   S    
C67   H7    S    
C2    O22   A    
C7    C23   S    
C13   H25   S    
C72   H12   S    
C17   C109  A    
C96   O8    A    
C22   H36   S    
C79   H23   S    
C66   C70   A    
C16   H28   S    
C97   O13   A    
C38   C50   S    
C19   C111  A    
C98   O14   A    
C16   C32   A    
C49   H1    S    
C105  C106  S    
C48   O36   A    
C28   H44   S    
C59   C63   A    
Cr2   O18   S    
C26   C114  S    
Cr3   O43   S    
C51   F5    S    
C60   C64   A    
C25   H41   S    
Cr2   O42   S    
C113  O53   D    
C93   O9    A    
Cr1   O41   S    
C54   C91   S    
Cr4   O44   S    
C75   H15   S    
C95   O7    A    
C9    C29   A    
Cr9   O33   S    
C36   C95   S    
Cr10  O34   S    
C106  F2    S    
C77   H21   S    
C5    C109  A    
C86   O2    A    
C65   C69   A    
C23   H33   S    
C93   O5    A    
C114  H46   S    
C8    C24   S    
C8    C112  A    
C7    C111  A    
C33   C37   A    
C92   O48   A    
C67   C71   A    
C91   O51   A    
C100  O16   A    
C85   O1    A    
C90   O50   A    
C46   O30   A    
C6    C10   A    
C78   H22   S    
C89   O49   A    
C13   C17   A    
C105  F1    S    
C107  F3    S    
C43   F19   S    
Cr10  O14   S    
C5    C21   S    
C51   H3    S    
C42   F18   S    
Cr6   O50   S    
C18   C110  A    
C49   C50   S    
C22   C26   S    
C45   O33   A    
C101  F14   S    
C70   H10   S    
Cr5   O25   S    
C1    O25   A    
Cr4   O24   S    
C36   C43   A    
C61   C81   A    
C115  O55   D    
Cr11  O35   S    
C12   C28   S    
C75   C79   S    
C77   H17   S    
C104  C107  D    
C55   C71   A    
C115  H47   S    
C27   H43   S    
C66   H6    S    
C21   H37   S    
C1    O21   A    
