data_mof_unit_11617.cif
_audit_creation_date              2012-12-10T17:29:17-0500
_audit_creation_method            fapswitch 2.2
_symmetry_space_group_name_H-M    P1
_symmetry_Int_Tables_number       1
_space_group_crystal_system       triclinic
_cell_length_a                    12.151522
_cell_length_b                    12.835483
_cell_length_c                    13.054775
_cell_angle_alpha                 83.779656
_cell_angle_beta                  113.284435
_cell_angle_gamma                 94.031878
_cell_volume                      1858.47059058

loop_
_atom_site_label
_atom_site_type_symbol
_atom_type_description
_atom_site_fract_x
_atom_site_fract_y
_atom_site_fract_z
_atom_type_partial_charge
C1    C     C_R   0.475744 0.300086 0.494833 0.950595
C2    C     C_R   0.559074 0.515586 0.988087 0.009129
C3    C     C_R   0.545333 0.549908 0.877916 0.106734
C4    C     C_R   0.474526 0.545725 0.027191 0.135269
C5    C     C_R   0.394085 0.626615 0.967128 0.178182
C6    C     C_R   0.391714 0.669836 0.863525 -0.219162
C7    C     C_R   0.464707 0.630396 0.818097 -0.137536
C8    C     C_R   0.466989 0.495708 0.124167 -0.255626
C9    C     C_R   0.322900 0.619526 0.117162 -0.219872
C10   C     C_R   0.611516 0.501306 0.830078 -0.185987
C11   C     C_R   0.534696 0.812362 0.498092 -0.045054
C12   C     C_R   0.567187 0.499821 0.708506 0.946238
C13   C     C_R   0.458093 0.188915 0.488420 -0.074872
C14   C     C_R   0.367168 0.025796 0.528646 -0.218314
C15   C     C_R   0.370301 0.134153 0.518949 -0.163051
C16   C     C_R   0.535157 0.136432 0.457428 -0.249500
C17   C     C_R   0.535047 0.028512 0.469735 0.173641
C18   C     C_R   0.451403 0.973016 0.507215 0.186222
C19   C     C_R   0.452825 0.865461 0.522283 -0.277626
C20   C     C_R   0.619019 0.866753 0.462445 -0.193710
C21   C     C_R   0.618989 0.975340 0.447960 -0.209322
C22   C     C_R   0.999941 0.584918 0.373518 0.461150
C23   C     C_R   0.522639 0.700306 0.501339 0.840733
C24   C     C_R   0.123474 0.577601 0.390602 -0.270726
C25   C     C_R   0.163558 0.469519 0.561550 0.526394
C26   C     C_R   0.044064 0.485035 0.554140 -0.261681
C27   C     C_R   0.960258 0.536005 0.456137 -0.106865
C28   C     C_R   0.837628 0.537628 0.444560 -0.097751
C29   C     C_R   0.879493 0.425472 0.610593 0.410069
C30   C     C_R   0.002131 0.447899 0.639611 0.394018
C31   C     C_R   0.434264 0.508714 0.291653 0.847224
C32   C     C_R   0.318054 0.662862 0.012542 -0.217666
C33   C     C_R   0.398620 0.536059 0.172786 -0.055569
C34   C     C_R   0.710418 0.441148 0.898983 -0.331364
C35   C     C_R   0.736722 0.420404 0.013977 0.547204
C36   C     C_R   0.657826 0.453600 0.056105 -0.243456
H1    H     H_    0.271183 0.653062 0.155948 0.146146
H2    H     H_    0.682059 0.825487 0.442878 0.167788
H3    H     H_    0.301242 0.983520 0.555281 0.150773
H4    H     H_    0.683731 0.017494 0.419651 0.164425
H5    H     H_    0.306875 0.174426 0.538674 0.216095
H6    H     H_    0.597559 0.179644 0.426846 0.196567
H7    H     H_    0.772823 0.581588 0.373502 0.203805
H8    H     H_    0.158376 0.616082 0.331551 0.146626
H9    H     H_    0.331403 0.732133 0.816409 0.138239
H10   H     H_    0.257941 0.726235 0.968941 0.143799
H11   H     H_    0.518149 0.427177 0.166931 0.151135
H12   H     H_    0.764067 0.407244 0.863091 0.206501
H13   H     H_    0.679846 0.434400 0.144444 0.173407
H14   H     H_    0.459454 0.664905 0.736951 0.136675
H15   H     H_    0.388617 0.823014 0.551320 0.155395
N1    N     N_R   0.798200 0.480260 0.519790 -0.181225
N2    N     N_R   0.201820 0.519740 0.480210 -0.169363
O1    O     O_R   0.579910 0.341070 0.505280 -0.538168
O2    O     O_R   0.388440 0.353740 0.492580 -0.565591
O3    O     O_R   0.643280 0.490550 0.663120 -0.594134
O4    O     O_R   0.451810 0.503220 0.650420 -0.542439
O5    O     O_R   0.611560 0.646260 0.507420 -0.632685
O6    O     O_R   0.420090 0.658930 0.494720 -0.634071
O7    O     O_R   0.548190 0.496780 0.349580 -0.618018
O8    O     O_R   0.356720 0.509450 0.336880 -0.630042
Zn1   Zn    Zn3+2 0.627850 0.491540 0.508480 1.000937
Zn2   Zn    Zn3+2 0.372150 0.508460 0.491520 0.991225
S1    S     S_3+6 0.841148 0.303788 0.670265 0.056059
O9    O     O_2   0.946718 0.261432 0.769981 -0.265807
O10   O     O_2   0.739267 0.310443 0.705983 -0.316231
O11   O     O_3   0.802991 0.218184 0.572407 -0.563032
H16   H     H_    0.798423 0.148891 0.612352 0.377821
O12   O     O_3   0.915273 0.640895 0.281404 -0.615743
C37   C     C_3   0.952094 0.670182 0.192137 0.088582
H17   H     H_    0.983121 0.601279 0.167124 0.135541
H18   H     H_    0.023842 0.732503 0.215625 0.144801
C38   C     C_3   0.846412 0.714903 0.091396 -0.797474
H19   H     H_    0.814406 0.785355 0.112530 0.264072
H20   H     H_    0.874064 0.737344 0.020268 0.201863
H21   H     H_    0.771994 0.655602 0.065719 0.255567
O13   O     O_3   0.079836 0.424854 0.749037 -0.487681
C39   C     C_3   0.061915 0.491422 0.819806 0.126232
H22   H     H_    0.966392 0.491966 0.809329 0.101734
H23   H     H_    0.093557 0.572747 0.804093 0.123361
C40   C     C_3   0.134604 0.451031 0.939878 -0.720356
H24   H     H_    0.230761 0.450706 0.954475 0.288905
H25   H     H_    0.122165 0.501532 0.997938 0.175382
H26   H     H_    0.105453 0.369387 0.956380 0.262090
S2    S     S_3+6 0.252895 0.375598 0.673463 0.078543
O14   O     O_2   0.300370 0.429091 0.780051 -0.290772
O15   O     O_2   0.171420 0.284905 0.683921 -0.241461
O16   O     O_3   0.370222 0.319916 0.668227 -0.548629
H27   H     H_    0.408319 0.279489 0.741881 0.370790
O17   O     O_3   0.829555 0.357735 0.086154 -0.595468
C41   C     C_3   0.936245 0.379991 0.068204 0.076805
H28   H     H_    0.947156 0.464674 0.043131 0.113761
H29   H     H_    0.936717 0.331912 0.002572 0.188035
C42   C     C_3   0.042732 0.350873 0.176427 -0.776566
H30   H     H_    0.037382 0.265952 0.202185 0.266980
H31   H     H_    0.127808 0.368332 0.164356 0.206017
H32   H     H_    0.042932 0.396724 0.243926 0.254387

loop_
_geom_bond_atom_site_label_1
_geom_bond_atom_site_label_2
_ccdc_geom_bond_type
O5    Zn1   S    
C23   O5    A    
C6    H9    S    
C28   N1    A    
C38   H19   S    
C31   O8    A    
C35   C36   A    
C4    C8    A    
C40   H24   S    
S2    O14   D    
C23   O6    A    
C11   C19   A    
C26   C27   A    
C25   N2    A    
C18   C19   A    
C3    C7    A    
C5    C6    A    
C39   H23   S    
O7    Zn1   S    
C34   C35   A    
O8    Zn2   S    
C14   C18   A    
C9    C32   A    
C14   H3    S    
C30   O13   S    
C16   C17   A    
O2    Zn2   S    
C31   C33   S    
C37   H17   S    
C22   O12   S    
C5    C32   A    
C29   S1    S    
C9    C33   A    
C38   H20   S    
O12   C37   S    
C25   S2    S    
C40   H25   S    
O4    Zn2   S    
S2    O15   D    
C11   C20   A    
O11   H16   S    
S1    O11   S    
C15   H5    S    
C41   H28   S    
C39   H22   S    
O1    Zn1   S    
C42   H32   S    
C24   N2    A    
O13   C39   S    
C17   C21   A    
S1    O10   D    
C31   O7    A    
C2    C4    A    
C1    O1    A    
C29   C30   A    
C41   H29   S    
C20   H2    S    
C37   C38   S    
C9    H1    S    
C17   C18   A    
C10   C34   A    
C20   C21   A    
C42   H31   S    
C12   O3    A    
C10   C12   S    
C12   O4    A    
C26   C30   A    
C22   C27   A    
C13   C15   A    
C24   H8    S    
C38   H21   S    
C22   C24   A    
C1    C13   S    
C16   H6    S    
C40   H26   S    
S2    O16   S    
C2    C36   A    
C32   H10   S    
C7    H14   S    
C4    C5    A    
C6    C7    A    
C28   H7    S    
O6    Zn2   S    
S1    O9    D    
C2    C3    A    
C25   C26   A    
C8    H11   S    
C3    C10   A    
N1    Zn1   S    
C41   C42   S    
N2    Zn2   S    
C39   C40   S    
O17   C41   S    
C21   H4    S    
C11   C23   S    
O3    Zn1   S    
C8    C33   A    
C1    O2    A    
C42   H30   S    
C35   O17   S    
C19   H15   S    
C34   H12   S    
O16   H27   S    
C13   C16   A    
C27   C28   A    
C14   C15   A    
C37   H18   S    
C36   H13   S    
C29   N1    A    
