data_mof_unit_18713.cif
_audit_creation_date              2013-03-05T15:42:21-0500
_audit_creation_method            fapswitch 2.2
_symmetry_space_group_name_H-M    P1
_symmetry_Int_Tables_number       1
_space_group_crystal_system       triclinic
_cell_length_a                    17.105978
_cell_length_b                    16.709637
_cell_length_c                    19.706772
_cell_angle_alpha                 116.388463
_cell_angle_beta                  63.056068
_cell_angle_gamma                 99.928372
_cell_volume                      4495.24340872

loop_
_atom_site_label
_atom_site_type_symbol
_atom_site_description
_atom_site_fract_x
_atom_site_fract_y
_atom_site_fract_z
_atom_type_partial_charge
C1    C     C_R   0.036421 0.759348 0.012073 0.001235
H1    H     H_    0.078278 0.806500 0.036611 0.257805
N1    N     N_R   0.036080 0.671900 0.995420 -0.082910
C2    C     C_R   0.763444 0.423766 0.166407 -0.126387
H2    H     H_    0.717275 0.379491 0.145905 0.218834
N2    N     N_R   0.834710 0.454650 0.119760 -0.084106
C3    C     C_R   0.807110 0.558190 0.956126 -0.148033
H3    H     H_    0.817581 0.593754 0.918799 0.154030
N3    N     N_R   0.867430 0.509300 0.948100 -0.067317
C4    C     C_R   0.960413 0.673066 0.246923 -0.190731
H4    H     H_    0.924205 0.655098 0.299065 0.188354
N4    N     N_R   0.003360 0.617250 0.167070 -0.070563
C5    C     C_R   0.739821 0.480410 0.033168 0.324821
N5    N     N_R   0.825450 0.461270 0.995400 -0.094201
C6    C     C_R   0.033743 0.751385 0.171126 0.732389
N6    N     N_R   0.045340 0.665280 0.119770 -0.120225
C7    C     C_R   0.842410 0.490611 0.239732 0.298095
N7    N     N_R   0.883740 0.497640 0.167070 -0.097114
C8    C     C_R   0.958910 0.691060 0.937823 -0.088385
H5    H     H_    0.928299 0.675989 0.896596 0.130516
N8    N     N_R   0.987050 0.628910 0.948110 -0.056945
C9    C     C_R   0.982909 0.775211 0.982329 0.082087
C10   C     C_R   0.766811 0.446285 0.240917 -0.086758
C11   C     C_R   0.727249 0.544602 0.012310 -0.062448
C12   C     C_R   0.978859 0.757761 0.250340 -0.166604
C13   C     C_R   0.257557 0.546723 0.993561 0.290359
N9    N     N_R   0.174550 0.538730 0.004600 -0.099606
C14   C     C_R   0.928464 0.258821 0.834966 -0.092896
H6    H     H_    0.889560 0.209904 0.857192 0.186325
N10   N     N_R   0.954660 0.334720 0.880230 -0.085576
C15   C     C_R   0.171224 0.458812 0.753022 0.036085
H7    H     H_    0.153610 0.423650 0.701206 0.167935
N11   N     N_R   0.116260 0.502360 0.832930 -0.062467
C16   C     C_R   0.047355 0.306992 0.054966 -0.032948
H8    H     H_    0.083363 0.318646 0.091234 0.137276
N12   N     N_R   0.012950 0.371090 0.051890 -0.051887
C17   C     C_R   0.972123 0.239700 0.978216 -0.104871
H9    H     H_    0.940773 0.189932 0.941710 0.157867
N13   N     N_R   0.963920 0.328100 0.004580 -0.054685
C18   C     C_R   0.249908 0.527450 0.827730 -0.003975
H10   H     H_    0.304676 0.555881 0.842231 0.169441
N14   N     N_R   0.165290 0.545350 0.880240 -0.061555
C19   C     C_R   0.190769 0.462994 0.065188 -0.130193
H11   H     H_    0.176017 0.430108 0.105776 0.156325
N15   N     N_R   0.132570 0.490700 0.051900 -0.063085
C20   C     C_R   0.991658 0.339386 0.760100 0.373805
N16   N     N_R   0.996640 0.382750 0.832930 -0.109463
Ni1   Ni    Ni4+2 0.104370 0.604370 0.000010 0.321370
Ni2   Ni    Ni4+2 0.895630 0.395630 0.999990 0.277609
Ni3   Ni    Ni4+2 0.991920 0.505780 0.891500 0.297045
Ni4   Ni    Ni4+2 0.008080 0.494220 0.108500 0.287052
C21   C     C_R   0.269935 0.495121 0.026779 -0.110656
C22   C     C_R   0.951344 0.260647 0.759603 0.086706
C23   C     C_R   0.254669 0.473073 0.748853 0.108730
C24   C     C_R   0.024578 0.223286 0.008283 0.065748
C25   C     C_R   0.033125 0.151827 0.621675 0.708027
C26   C     C_R   0.951576 0.185874 0.687773 -0.311124
C27   C     C_R   0.873026 0.148790 0.685275 0.715560
C28   C     C_R   0.875788 0.076921 0.612654 -0.105845
C29   C     C_R   0.958334 0.043622 0.544118 -0.105944
C30   C     C_R   0.037258 0.081015 0.549065 -0.091179
C31   C     C_R   0.798303 0.038338 0.606686 -0.023817
C32   C     C_R   0.802396 0.967165 0.532893 -0.173407
C33   C     C_R   0.883878 0.934594 0.464820 0.112430
C34   C     C_R   0.962240 0.973066 0.470489 0.147845
C35   C     C_R   0.044842 0.940510 0.402371 0.077533
C36   C     C_R   0.122528 0.977397 0.407923 -0.174862
C37   C     C_R   0.118794 0.047629 0.481316 -0.020064
C38   C     C_R   0.889061 0.863730 0.390951 -0.226936
C39   C     C_R   0.971197 0.833543 0.324429 0.153090
C40   C     C_R   0.048547 0.870634 0.329680 -0.120407
H12   H     H_    0.734705 0.063118 0.658736 0.195647
H13   H     H_    0.742115 0.937794 0.528930 0.169989
H14   H     H_    0.830220 0.831930 0.384905 0.156189
H15   H     H_    0.111805 0.843299 0.277693 0.175032
H16   H     H_    0.185913 0.952031 0.355590 0.167098
H17   H     H_    0.179578 0.075908 0.484701 0.198614
C41   C     C_R   0.372178 0.381723 0.614040 0.252872
C42   C     C_R   0.330515 0.464959 0.673715 -0.306458
C43   C     C_R   0.359304 0.543677 0.663145 0.820335
C44   C     C_R   0.431795 0.541410 0.591138 -0.343467
C45   C     C_R   0.474890 0.457485 0.529722 -0.065074
C46   C     C_R   0.444600 0.377375 0.540411 0.011582
C47   C     C_R   0.463323 0.620514 0.579215 0.237637
C48   C     C_R   0.538854 0.615797 0.508304 0.651896
C49   C     C_R   0.580835 0.533196 0.447630 -0.149672
C50   C     C_R   0.548478 0.453536 0.457257 0.059523
C51   C     C_R   0.589898 0.369889 0.393913 0.151605
C52   C     C_R   0.558330 0.291191 0.403775 -0.173002
C53   C     C_R   0.486425 0.294817 0.476618 -0.067142
C54   C     C_R   0.654287 0.528681 0.376219 -0.073115
C55   C     C_R   0.693742 0.446158 0.314208 0.122189
C56   C     C_R   0.662127 0.366661 0.321415 -0.119581
H18   H     H_    0.680462 0.589076 0.367382 0.170218
H19   H     H_    0.694053 0.303362 0.271424 0.151848
H20   H     H_    0.589457 0.226874 0.355265 0.153134
H21   H     H_    0.463318 0.232462 0.481962 0.180956
C57   C     C_R   0.645552 0.561209 0.017651 0.047370
C58   C     C_R   0.349883 0.483567 0.026961 0.108037
C59   C     C_R   0.492426 0.411273 0.941840 -0.074139
C60   C     C_R   0.404024 0.409620 0.961411 -0.118918
C61   C     C_R   0.380442 0.556559 0.077646 -0.060421
C62   C     C_R   0.469069 0.559776 0.057928 -0.063837
C63   C     C_R   0.525473 0.487154 0.988028 0.102348
C64   C     C_R   0.613972 0.490391 0.966508 -0.147985
C65   C     C_R   0.591802 0.634300 0.085555 -0.261882
C66   C     C_R   0.503045 0.634518 0.105071 0.794354
H22   H     H_    0.657326 0.433755 0.915022 0.165492
H23   H     H_    0.617606 0.688041 0.125665 0.174924
H24   H     H_    0.535186 0.355123 0.889138 0.153365
H25   H     H_    0.379032 0.354042 0.921801 0.148763
H26   H     H_    0.336426 0.613342 0.127335 0.178892
C67   C     C_R   0.833057 0.185193 0.141446 -0.153797
C68   C     C_R   0.948385 0.863253 0.001611 -0.108744
C69   C     C_R   0.843030 0.942011 0.997348 0.412229
C70   C     C_R   0.889360 0.864114 0.970311 -0.344976
C71   C     C_R   0.962663 0.944834 0.060115 0.777048
C72   C     C_R   0.918893 0.024685 0.086342 -0.177024
C73   C     C_R   0.860506 0.025015 0.052957 -0.233557
C74   C     C_R   0.820917 0.108321 0.078526 0.269300
C75   C     C_R   0.886103 0.183087 0.177025 0.715714
C76   C     C_R   0.930708 0.104090 0.148245 -0.242141
H27   H     H_    0.973505 0.105065 0.175619 0.235676
H28   H     H_    0.873290 0.802535 0.928646 0.190446
N17   N     N_R   0.996582 0.381678 0.708936 0.229924
O1    O     O_R   0.990050 0.335287 0.638552 -0.350856
O2    O     O_R   0.998586 0.468328 0.736725 -0.406169
F1    F     F_    0.108193 0.188252 0.628629 -0.655366
F2    F     F_    0.795132 0.184131 0.752251 -0.661998
N18   N     N_R   0.343385 0.303408 0.630248 0.240251
O3    O     O_R   0.264514 0.275652 0.641335 -0.323433
O4    O     O_R   0.395062 0.261769 0.637253 -0.366643
F3    F     F_    0.316071 0.622262 0.724949 -0.635720
N19   N     N_R   0.418623 0.705774 0.636919 0.310578
O5    O     O_R   0.460044 0.772491 0.671169 -0.262276
O6    O     O_R   0.343661 0.721095 0.642036 -0.271491
F4    F     F_    0.569282 0.691884 0.497218 -0.648801
F5    F     F_    0.450160 0.704847 0.171939 -0.663377
N20   N     N_R   0.774121 0.119112 0.038135 0.272654
O7    O     O_R   0.807999 0.086879 0.956800 -0.354208
O8    O     O_R   0.708690 0.177157 0.081696 -0.324434
F6    F     F_    0.896791 0.258957 0.237550 -0.638744
N21   N     N_R   0.771001 0.932200 0.976018 0.270335
O9    O     O_R   0.780347 0.880781 0.900011 -0.312224
O10   O     O_R   0.692376 0.959189 0.035281 -0.314039
F7    F     F_    0.016349 0.947272 0.094743 -0.684736
N22   N     N_R   0.674344 0.422181 0.061047 0.217875
O11   O     O_R   0.596086 0.453684 0.118633 -0.384591
O12   O     O_R   0.689774 0.336115 0.021797 -0.341651
F8    F     F_    0.084188 0.817069 0.152287 -0.671100
N23   N     N_R   0.885308 0.495513 0.289330 0.245266
O13   O     O_R   0.840534 0.490881 0.361192 -0.324446
O14   O     O_R   0.970523 0.495472 0.258967 -0.386074
N24   N     N_R   0.311702 0.617395 0.976754 0.224854
O15   O     O_R   0.276245 0.687456 0.987430 -0.336697
O16   O     O_R   0.396588 0.610557 0.947067 -0.370216

loop_
_geom_bond_atom_site_label_1
_geom_bond_atom_site_label_2
_geom_bond_distance
_ccdc_geom_bond_type
N9    Ni1   1.814673 S    
C28   C29   1.414992 A    
C50   C51   1.415241 A    
C59   H24   1.084434 S    
C44   C47   1.417264 A    
C20   N17   1.434909 S    
C61   H26   1.085505 S    
C8    H5    1.075101 S    
C19   H11   1.079532 S    
N6    Ni1   1.919637 S    
C44   C45   1.419186 A    
C3    H3    1.076488 S    
C48   C49   1.395380 A    
C47   N19   1.433540 S    
C13   N9    1.327345 A    
C7    C10   1.370836 A    
C57   C64   1.385911 A    
C11   C57   1.419706 S    
N11   N14   1.412169 A    
C55   C56   1.388375 A    
C14   H6    1.081362 S    
C8    N8    1.341375 A    
C1    H1    1.071368 S    
C49   C54   1.378678 A    
C19   C21   1.369884 A    
C6    C12   1.374104 A    
N5    Ni2   1.814676 S    
C65   C66   1.387297 A    
N15   Ni4   1.901255 S    
C27   F2    1.360495 S    
C3    C11   1.374575 A    
N1    Ni1   1.813043 S    
C59   C63   1.396061 A    
C25   C26   1.390879 A    
C3    N3    1.336033 A    
C16   H8    1.077992 S    
C72   C76   1.407711 A    
C72   C73   1.425144 A    
C63   C64   1.372903 A    
C25   F1    1.361621 S    
N22   O11   1.300874 A    
C51   C56   1.387598 A    
C41   C46   1.397752 A    
N4    N6    1.374154 A    
N23   O13   1.300837 A    
C15   N11   1.329987 A    
C39   C40   1.389192 A    
C53   H21   1.082011 S    
N24   O16   1.300659 A    
C10   C55   1.419210 S    
N9    N15   1.374152 A    
C18   N14   1.331246 A    
C35   C36   1.395424 A    
C16   C24   1.395548 A    
C56   H19   1.083005 S    
C5    N5    1.328066 A    
C7    N23   1.434804 S    
N8    Ni3   1.849110 S    
N7    Ni4   1.902086 S    
N16   Ni3   1.851636 S    
N12   N13   1.412169 A    
N2    N7    1.412169 A    
C64   H22   1.087035 S    
C69   N21   1.435325 S    
C6    N6    1.325082 A    
C36   C37   1.380777 A    
N10   N16   1.374154 A    
C8    C9    1.394977 A    
C47   C48   1.389012 A    
C2    N2    1.336668 A    
C54   C55   1.387764 A    
C2    C10   1.370780 A    
C22   C26   1.410436 S    
C49   C50   1.410453 A    
C2    H2    1.075303 S    
N19   O6    1.301189 A    
C32   H13   1.083815 S    
N11   Ni3   1.902084 S    
C43   F3    1.360726 S    
C42   C43   1.394015 A    
C5    C11   1.384656 A    
C29   C30   1.413102 A    
C1    N1    1.347383 A    
N18   O4    1.300999 A    
N3    N5    1.374155 A    
C17   H9    1.077376 S    
C13   C21   1.380983 A    
C67   C74   1.398609 A    
C35   C40   1.369604 A    
C9    C68   1.502244 S    
C14   C22   1.367179 A    
C31   C32   1.390372 A    
C7    N7    1.329466 A    
N24   O15   1.301125 A    
C31   H12   1.083354 S    
C38   H14   1.085191 S    
C74   N20   1.435853 S    
N14   Ni1   1.919826 S    
C33   C38   1.384231 A    
C73   C74   1.429168 A    
C19   N15   1.333037 A    
C75   C76   1.391384 A    
N12   Ni4   1.849110 S    
C4    N4    1.330376 A    
C4    C12   1.373863 A    
C18   H10   1.074020 S    
C58   C60   1.394558 A    
N10   Ni2   1.919637 S    
C29   C34   1.385094 A    
C34   C35   1.411185 A    
C18   C23   1.379764 A    
N17   O1    1.300795 A    
C45   C50   1.394294 A    
N1    N8    1.412169 A    
C5    N22   1.429959 S    
C48   F4    1.360408 S    
N4    Ni4   1.851636 S    
C23   C42   1.426686 S    
C37   H17   1.083633 S    
N21   O10   1.301432 A    
C46   C53   1.406777 A    
C20   N16   1.325654 A    
C28   C31   1.401968 A    
C70   H28   1.079109 S    
N22   O12   1.301255 A    
C41   C42   1.397739 A    
C75   F6    1.355302 S    
C15   H7    1.078498 S    
N3    Ni3   1.901253 S    
C43   C44   1.387990 A    
C68   C70   1.406228 A    
N20   O7    1.301346 A    
N13   Ni2   1.813042 S    
C76   H27   1.083147 S    
N19   O5    1.300992 A    
C12   C39   1.411655 S    
C60   H25   1.084282 S    
C21   C58   1.415543 S    
C69   C73   1.420144 A    
C57   C65   1.395399 A    
C33   C34   1.413256 A    
C66   F5    1.358526 S    
C14   N10   1.328758 A    
N18   O3    1.300099 A    
C27   C28   1.386753 A    
C17   N13   1.339685 A    
C71   C72   1.410255 A    
C54   H18   1.085820 S    
C40   H15   1.085797 S    
N20   O8    1.301499 A    
C30   C37   1.399193 A    
C26   C27   1.391978 A    
C52   H20   1.084057 S    
C20   C22   1.374237 A    
C59   C60   1.379415 A    
C16   N12   1.343358 A    
N23   O14   1.300929 A    
C15   C23   1.376552 A    
C41   N18   1.436601 S    
C61   C62   1.381642 A    
C38   C39   1.390846 A    
C68   C71   1.410853 A    
C13   N24   1.433387 S    
C4    H4    1.078411 S    
C32   C33   1.398801 A    
C17   C24   1.393776 A    
C1    C9    1.399917 A    
C58   C61   1.388851 A    
C67   C75   1.387722 A    
C51   C52   1.394939 A    
C45   C46   1.420314 A    
C62   C63   1.419282 A    
N17   O2    1.300981 A    
C25   C30   1.372855 A    
C71   F7    1.356837 S    
C62   C66   1.402961 A    
C36   H16   1.084174 S    
C69   C70   1.400990 A    
C52   C53   1.387619 A    
C6    F8    1.353646 S    
N2    Ni2   1.919826 S    
N21   O9    1.301430 A    
C65   H23   1.083777 S    
