data_mof_unit_43440.cif
_audit_creation_date              2012-12-11T14:17:46-0500
_audit_creation_method            fapswitch 2.2
_symmetry_space_group_name_H-M    P1
_symmetry_Int_Tables_number       1
_space_group_crystal_system       triclinic
_cell_length_a                    6.939669
_cell_length_b                    13.717873
_cell_length_c                    20.415038
_cell_angle_alpha                 102.373902
_cell_angle_beta                  90.235027
_cell_angle_gamma                 89.790632
_cell_volume                      1898.29029524

loop_
_atom_site_label
_atom_site_type_symbol
_atom_type_description
_atom_site_fract_x
_atom_site_fract_y
_atom_site_fract_z
_atom_type_partial_charge
O1    O     O_R   0.506860 0.599390 0.449240 -0.545764
O2    O     O_R   0.180220 0.594600 0.586780 -0.504296
O3    O     O_R   0.004500 0.400610 0.550760 -0.526606
C1    C     C_R   0.347425 0.612864 0.614734 0.823275
O4    O     O_R   0.177490 0.611290 0.451970 -0.545454
O5    O     O_R   0.001750 0.417420 0.414990 -0.523845
C2    C     C_R   0.345748 0.637309 0.434661 0.734037
O6    O     O_R   0.509610 0.582580 0.585010 -0.527308
O7    O     O_3   0.337420 0.436370 0.488020 -0.373316
V1    V     V_3+5 0.064680 0.511800 0.502220 1.619320
O8    O     O_R   0.671710 0.405400 0.413220 -0.535109
C3    C     C_R   0.841083 0.385183 0.386019 0.767578
O9    O     O_R   0.674440 0.388710 0.548030 -0.545044
C4    C     C_R   0.844660 0.362055 0.564044 0.762133
V2    V     V_3+5 0.564010 0.488200 0.497780 1.579041
O10   O     O_3   0.841140 0.563630 0.511980 -0.364716
C5    C     C_R   0.972501 0.120035 0.608405 -0.038010
H1    H     H_    0.960896 0.173292 0.517219 0.157787
H2    H     H_    0.986278 0.991882 0.686068 0.181834
H3    H     H_    0.021410 0.046552 0.583001 0.161348
C6    C     C_R   0.862298 0.284409 0.601970 -0.074535
C7    C     C_R   0.831508 0.306121 0.923095 -0.196878
C8    C     C_R   0.825975 0.382481 0.888329 -0.032603
C9    C     C_R   0.843735 0.361304 0.818982 -0.066391
C10   C     C_R   0.865524 0.262132 0.782211 0.012856
C11   C     C_R   0.870840 0.182726 0.817489 -0.049573
C12   C     C_R   0.881833 0.239542 0.711036 0.059552
C13   C     C_R   0.942607 0.142906 0.677936 0.036464
C14   C     C_R   0.956123 0.067335 0.713260 -0.223273
C15   C     C_R   0.890838 0.083299 0.779087 0.349403
C16   C     C_R   0.835729 0.308763 0.671317 -0.108709
C17   C     C_R   0.934897 0.191113 0.570752 -0.105104
C18   C     C_R   0.855330 0.206849 0.889120 -0.070585
H4    H     H_    0.777667 0.381695 0.692706 0.151496
H5    H     H_    0.819776 0.324760 0.977288 0.107227
H6    H     H_    0.845737 0.424366 0.795430 0.195415
H7    H     H_    0.810440 0.459082 0.915462 0.176007
C19   C     C_2   0.007722 0.299299 0.279238 0.282111
C20   C     C_2   0.849935 0.315196 0.319624 -0.295034
H8    H     H_    0.718995 0.273649 0.304289 0.142568
C21   C     C_2   0.012817 0.225278 0.214180 -0.141345
C22   C     C_2   0.856805 0.185604 0.179261 -0.337790
H9    H     H_    0.154518 0.205796 0.192815 0.166540
H10   H     H_    0.712940 0.205924 0.197874 0.146713
C23   C     C_2   0.207704 0.768766 0.791066 -0.165779
C24   C     C_2   0.367017 0.809663 0.822280 -0.241529
H11   H     H_    0.069887 0.788094 0.815105 0.221249
H12   H     H_    0.507242 0.785576 0.801546 0.177881
C25   C     C_2   0.209229 0.689767 0.728359 0.465653
C26   C     C_2   0.352263 0.681891 0.681658 -0.391019
H13   H     H_    0.475078 0.731610 0.691142 0.164774
C27   C     C_R   0.384645 0.888661 0.389329 0.486230
H14   H     H_    0.378715 0.833983 0.480921 0.163713
H15   H     H_    0.407327 0.012357 0.301640 0.202201
C28   C     C_R   0.354449 0.714444 0.394905 -0.116465
C29   C     C_R   0.338220 0.683072 0.070142 0.409759
C30   C     C_R   0.325227 0.609004 0.107172 -0.207310
C31   C     C_R   0.331765 0.632626 0.176934 -0.218854
C32   C     C_R   0.351957 0.732437 0.212935 0.117330
C33   C     C_R   0.365277 0.808523 0.175358 0.013369
C34   C     C_R   0.358694 0.759022 0.284867 0.035195
C35   C     C_R   0.378201 0.861428 0.317983 -0.007112
C36   C     C_R   0.391371 0.934083 0.279119 -0.091979
C37   C     C_R   0.384979 0.908350 0.209657 -0.197350
C38   C     C_R   0.347196 0.686957 0.325059 -0.205441
C39   C     C_R   0.372925 0.814394 0.426662 -0.241425
C40   C     C_R   0.358146 0.783568 0.104021 -0.195493
H16   H     H_    0.333569 0.608360 0.303961 0.148165
H17   H     H_    0.319971 0.570274 0.200882 0.157827
H18   H     H_    0.309114 0.531567 0.082024 0.161888
H19   H     H_    0.395898 0.968364 0.183009 0.106504
O11   O     O_R   0.203230 0.917310 0.915020 -0.525113
O12   O     O_R   0.535500 0.888690 0.048040 -0.541880
O13   O     O_R   0.711080 0.082610 0.085000 -0.561045
C41   C     C_R   0.367183 0.862197 0.064950 0.767165
O14   O     O_R   0.532630 0.905370 0.913230 -0.485113
O15   O     O_R   0.708190 0.099410 0.949230 -0.511589
C42   C     C_R   0.364835 0.881639 0.887487 0.942916
O16   O     O_R   0.206120 0.900510 0.050790 -0.540048
O17   O     O_3   0.375360 0.063570 0.011990 -0.402637
V3    V     V_3+5 0.648170 0.988200 0.997780 1.645663
O18   O     O_R   0.038240 0.111390 0.951940 -0.553981
C43   C     C_R   0.869057 0.132609 0.931130 0.801455
O19   O     O_R   0.041120 0.094710 0.086750 -0.557076
C44   C     C_R   0.871854 0.116044 0.113310 0.713829
V4    V     V_3+5 0.148810 0.011930 0.002180 1.552244
O20   O     O_3   0.871750 0.936430 0.988010 -0.336548
S1    S     S_3+6 0.015212 0.604211 0.720375 0.007356
O21   O     O_2   0.869878 0.626956 0.670891 -0.345069
O22   O     O_2   0.090403 0.499917 0.696296 -0.348510
O23   O     O_3   0.907381 0.612118 0.795066 -0.482141
H20   H     H_    0.801829 0.661309 0.796397 0.357906
S2    S     S_3+6 0.408077 0.014425 0.433923 -0.028416
O24   O     O_2   0.402845 0.021199 0.508388 -0.340187
O25   O     O_2   0.596572 0.055327 0.415818 -0.343620
O26   O     O_3   0.225975 0.082641 0.412350 -0.513957
H21   H     H_    0.259440 0.152808 0.432586 0.358482
S3    S     S_3+6 0.327841 0.647927 0.981361 0.007107
O27   O     O_2   0.155297 0.696158 0.956658 -0.304149
O28   O     O_2   0.506431 0.682978 0.952009 -0.350668
O29   O     O_3   0.309188 0.523345 0.955301 -0.484170
H22   H     H_    0.440280 0.497143 0.960523 0.330195
S4    S     S_3+6 0.756657 0.983523 0.796848 -0.054237
O30   O     O_2   0.727731 0.902752 0.734977 -0.358793
O31   O     O_2   0.858139 0.939149 0.848455 -0.343617
O32   O     O_3   0.540150 0.029376 0.824857 -0.525322
H23   H     H_    0.477889 0.049209 0.785927 0.328309
Br1   Br    Br    0.246840 0.370575 0.300564 -0.608142

loop_
_geom_bond_atom_site_label_1
_geom_bond_atom_site_label_2
_ccdc_geom_bond_type
O29   H22   S    
O12   C41   A    
C21   C22   D    
C2    C28   S    
C1    O6    A    
C23   C24   D    
C7    H5    S    
C6    C16   A    
C9    H6    S    
C4    C6    S    
C13   C14   A    
O14   C42   A    
O5    C3    A    
C19   C20   D    
H15   C36   S    
O15   C43   A    
V2    O10   S    
S3    O27   D    
C5    H3    S    
C29   C30   A    
C37   H19   S    
C25   C26   D    
O11   C42   A    
O8    V2    S    
C33   C40   A    
C15   S4    S    
O17   V4    S    
C8    C9    A    
O1    V2    S    
C23   C25   S    
C30   H18   S    
C14   C15   A    
O7    V1    S    
C32   C33   A    
S2    O25   D    
O9    C4    A    
C19   Br1   S    
C21   H9    S    
C25   S1    S    
C22   H10   S    
O12   V3    S    
C28   C38   A    
C23   H11   S    
C6    C17   A    
C24   H12   S    
C32   C34   A    
C12   C16   A    
C9    C10   A    
C19   C21   S    
C20   H8    S    
C24   C42   S    
V4    O20   S    
C31   C32   A    
O18   V4    S    
C27   C35   A    
C1    C26   S    
O2    C1    A    
C35   C36   A    
C11   C18   A    
S1    O23   S    
O15   V3    S    
C38   H16   S    
O26   H21   S    
C26   H13   S    
C16   H4    S    
C27   S2    S    
S4    O31   D    
C22   C44   S    
C29   S3    S    
O19   C44   A    
H14   C39   S    
C18   C43   S    
V3    O20   S    
O3    C4    A    
S1    O22   D    
S2    O26   S    
C11   C15   A    
O6    V2    S    
S3    O28   D    
O9    V2    S    
H1    C17   S    
O13   V3    S    
O2    V1    S    
O23   H20   S    
C28   C39   A    
C27   C39   A    
O4    C2    A    
C7    C18   A    
O1    C2    A    
C5    C13   A    
O19   V4    S    
O17   V3    S    
O14   V3    S    
O5    V1    S    
O11   V4    S    
O8    C3    A    
C31   H17   S    
C10   C12   A    
C29   C40   A    
S2    O24   D    
S3    O29   S    
C33   C37   A    
C3    C20   S    
C10   C11   A    
O4    V1    S    
O3    V1    S    
C8    H7    S    
C30   C31   A    
S4    O32   S    
O13   C44   A    
O7    V2    S    
C34   C35   A    
C36   C37   A    
C34   C38   A    
C40   C41   S    
S1    O21   D    
O18   C43   A    
O32   H23   S    
S4    O30   D    
C5    C17   A    
C7    C8    A    
V1    O10   S    
C41   O16   A    
O16   V4    S    
C12   C13   A    
H2    C14   S    
