data_mof_unit_20370.cif
_audit_creation_date              2013-03-05T16:05:39-0500
_audit_creation_method            fapswitch 2.2
_symmetry_space_group_name_H-M    P1
_symmetry_Int_Tables_number       1
_space_group_crystal_system       triclinic
_cell_length_a                    15.892996
_cell_length_b                    10.807695
_cell_length_c                    9.506612
_cell_angle_alpha                 90.086028
_cell_angle_beta                  89.849578
_cell_angle_gamma                 90.194093
_cell_volume                      1632.90211278

loop_
_atom_site_label
_atom_site_type_symbol
_atom_site_description
_atom_site_fract_x
_atom_site_fract_y
_atom_site_fract_z
_atom_type_partial_charge
O1    O     O_R   0.500000 0.319660 0.618740 -0.569670
O2    O     O_R   0.500000 0.680340 0.381260 -0.569669
O3    O     O_R   0.499990 0.319630 0.381170 -0.595220
O4    O     O_R   0.500010 0.680370 0.618830 -0.595208
C1    C     C_R   0.502155 0.262251 0.500047 0.789552
C2    C     C_R   0.497839 0.737748 0.499953 0.789538
O5    O     O_R   0.379080 0.500000 0.618760 -0.568679
O6    O     O_R   0.620920 0.500000 0.381240 -0.568685
O7    O     O_R   0.379080 0.499970 0.381190 -0.578706
O8    O     O_R   0.620920 0.500030 0.618810 -0.578681
C3    C     C_R   0.339878 0.501135 0.500127 0.814748
C4    C     C_R   0.660122 0.498862 0.499872 0.814786
Cu1   Cu    Cu3+1 0.500000 0.500020 0.640660 0.953168
Cu2   Cu    Cu3+1 0.500000 0.499980 0.359340 0.953140
C5    C     C_3   0.976861 0.384937 0.538582 -0.085833
C6    C     C_3   0.023142 0.615059 0.461417 -0.085836
C7    C     C_3   0.033004 0.416467 0.409166 -0.308506
C8    C     C_3   0.966998 0.583530 0.590833 -0.308506
H1    H     H_    0.059448 0.349236 0.332603 0.176422
H2    H     H_    0.940554 0.650761 0.667396 0.176423
C9    C     C_1   0.250511 0.504813 0.500480 -0.171922
C10   C     C_1   0.749490 0.495180 0.499520 -0.171866
C11   C     C_3   0.027867 0.477260 0.627500 0.371410
C12   C     C_3   0.972135 0.522737 0.372499 0.371404
C13   C     C_3   0.083741 0.509000 0.500754 -0.001062
C14   C     C_3   0.916260 0.490996 0.499245 -0.001063
C15   C     C_1   0.175193 0.507848 0.500739 0.022785
C16   C     C_1   0.824808 0.492145 0.499260 0.022819
C17   C     C_R   0.467818 0.066259 0.386194 -0.252905
C18   C     C_R   0.532152 0.933738 0.613815 -0.252925
H3    H     H_    0.440872 0.117818 0.299536 0.149580
H4    H     H_    0.559093 0.882182 0.700479 0.149632
C19   C     C_R   0.462405 0.938210 0.385002 0.003093
C20   C     C_R   0.537554 0.061785 0.615015 0.003028
C21   C     C_R   0.495900 0.871666 0.499647 -0.075745
C22   C     C_R   0.504076 0.128332 0.500359 -0.075733
C23   C     C_R   0.445224 0.426702 0.074531 -0.021480
C24   C     C_R   0.554770 0.573305 0.925469 -0.021379
H5    H     H_    0.401561 0.367689 0.130769 0.123490
H6    H     H_    0.598432 0.632321 0.869232 0.123495
C25   C     C_R   0.445244 0.426739 0.925631 0.008734
C26   C     C_R   0.554751 0.573268 0.074369 0.008711
H7    H     H_    0.401623 0.367711 0.869510 0.133584
H8    H     H_    0.598370 0.632299 0.130490 0.133594
N1    N     N_R   0.500020 0.500030 0.852070 -0.161581
N2    N     N_R   0.499980 0.499970 0.147930 -0.161589
C27   C     C_R   0.960309 0.253095 0.583083 0.153680
C28   C     C_R   0.027685 0.180292 0.630311 -0.112718
C29   C     C_R   0.014045 0.058254 0.673571 -0.103405
C30   C     C_R   0.933273 0.007215 0.668222 -0.087937
C31   C     C_R   0.866175 0.078004 0.618931 -0.157884
C32   C     C_R   0.879499 0.200421 0.576392 -0.143487
H9    H     H_    0.090823 0.218179 0.633961 0.143640
H10   H     H_    0.066242 0.002911 0.710049 0.140785
H11   H     H_    0.922880 0.912398 0.700599 0.131798
H12   H     H_    0.803844 0.037706 0.613083 0.134003
H13   H     H_    0.826827 0.252482 0.537152 0.125056
C33   C     C_R   0.039709 0.746897 0.416916 0.153642
C34   C     C_R   0.972352 0.819706 0.369634 -0.112688
C35   C     C_R   0.986012 0.941737 0.326365 -0.103401
C36   C     C_R   0.066784 0.992763 0.331758 -0.087969
C37   C     C_R   0.133862 0.921971 0.381108 -0.157854
C38   C     C_R   0.120518 0.799563 0.423661 -0.143509
H14   H     H_    0.909214 0.781827 0.365946 0.143659
H15   H     H_    0.933830 0.997084 0.289843 0.140794
H16   H     H_    0.077191 0.087575 0.299371 0.131798
H17   H     H_    0.196192 0.962257 0.386994 0.134025
H18   H     H_    0.173173 0.747502 0.462954 0.125067
N3    N     N_R   0.943735 0.546825 0.229472 0.129029
O9    O     O_R   0.998319 0.575673 0.132734 -0.299736
O10   O     O_R   0.864332 0.540179 0.197642 -0.371229
N4    N     N_R   0.056267 0.453170 0.770526 0.129038
O11   O     O_R   0.001684 0.424319 0.867264 -0.299734
O12   O     O_R   0.135670 0.459816 0.802356 -0.371237
C39   C     C_R   0.418990 0.877472 0.265358 0.135688
C40   C     C_R   0.452788 0.885410 0.129045 -0.167124
C41   C     C_R   0.413614 0.824165 0.017091 -0.155831
C42   C     C_R   0.340498 0.754839 0.040551 -0.083213
C43   C     C_R   0.306257 0.747008 0.175891 -0.094450
C44   C     C_R   0.345263 0.808163 0.288002 -0.127606
H19   H     H_    0.510340 0.936704 0.110401 0.124803
H20   H     H_    0.440381 0.829417 0.912413 0.136989
H21   H     H_    0.310600 0.706802 0.953985 0.150493
H22   H     H_    0.249816 0.692940 0.194141 0.152301
H23   H     H_    0.318972 0.800233 0.392778 0.091021
C45   C     C_R   0.580925 0.122516 0.734703 0.135787
C46   C     C_R   0.654731 0.191678 0.712161 -0.127740
C47   C     C_R   0.693707 0.252816 0.824317 -0.094567
C48   C     C_R   0.659349 0.245128 0.959593 -0.083144
C49   C     C_R   0.586144 0.175964 0.982944 -0.155850
C50   C     C_R   0.547004 0.114731 0.870948 -0.167066
H24   H     H_    0.681109 0.199500 0.607431 0.091085
H25   H     H_    0.750215 0.306760 0.806151 0.152339
H26   H     H_    0.689221 0.293155 0.046193 0.150459
H27   H     H_    0.559281 0.170832 0.087568 0.136967
H28   H     H_    0.489386 0.063562 0.889502 0.124745

loop_
_geom_bond_atom_site_label_1
_geom_bond_atom_site_label_2
_geom_bond_distance
_ccdc_geom_bond_type
Cu1   N1    2.009794 S    
C46   C47   1.398464 A    
C17   C19   1.386331 A    
C8    C14   1.550528 S    
C5    C27   1.509040 S    
C39   C40   1.404115 A    
C49   H27   1.082774 S    
Cu2   N2    2.009794 S    
C41   C42   1.398105 A    
O5    C3    1.289970 A    
C17   C22   1.399465 A    
C34   H14   1.083095 S    
C37   C38   1.399318 A    
C37   H17   1.082272 S    
O1    C1    1.287321 A    
C12   C14   1.533509 S    
C24   C26   1.415530 A    
C45   C50   1.404171 A    
C26   N2    1.366793 A    
C43   H22   1.082651 S    
C29   H10   1.082448 S    
C1    C22   1.447789 S    
C4    C10   1.421015 S    
C33   C38   1.404584 A    
C2    C21   1.447778 S    
C31   H12   1.082305 S    
C20   C45   1.483042 S    
C48   H26   1.082451 S    
N3    O10   1.300224 A    
C24   N1    1.366776 A    
C7    H1    1.110511 S    
C50   H28   1.082358 S    
C38   H18   1.077915 S    
C36   H16   1.082443 S    
C19   C39   1.483071 S    
O4    Cu1   1.960493 S    
C18   H4    1.085097 S    
C39   C44   1.404878 A    
C20   C22   1.412958 A    
C36   C37   1.396865 A    
C5    C11   1.537164 S    
C9    C15   1.197579 T    
C34   C35   1.398205 A    
C6    C12   1.537170 S    
C10   C16   1.197585 T    
C46   H24   1.082587 S    
C17   H3    1.085096 S    
C25   H7    1.081747 S    
O2    C2    1.287324 A    
C26   H8    1.081746 S    
C42   H21   1.082435 S    
C12   N3    1.457863 S    
C28   H9    1.083125 S    
C7    C12   1.544986 S    
C18   C20   1.386293 A    
C8    C11   1.544991 S    
C40   C41   1.398944 A    
N4    O12   1.300224 A    
C42   C43   1.398231 A    
C5    C14   1.546612 S    
C33   C34   1.405883 A    
C3    C9    1.421005 S    
C31   C32   1.399324 A    
C35   C36   1.396466 A    
O7    Cu2   1.932432 S    
C44   H23   1.082544 S    
C27   C28   1.405913 A    
O6    C4    1.289973 A    
C30   C31   1.396898 A    
C6    C33   1.509045 S    
O7    C3    1.289616 A    
O3    Cu2   1.960495 S    
O8    C4    1.289617 A    
C18   C21   1.399449 A    
O4    C2    1.290488 A    
C28   C29   1.398204 A    
C35   H15   1.082425 S    
O1    Cu1   1.960072 S    
C6    C13   1.546607 S    
C5    C7    1.555443 S    
C47   H25   1.082698 S    
O6    Cu2   1.933568 S    
C45   C46   1.404916 A    
C11   N4    1.457862 S    
N4    O11   1.300133 A    
O3    C1    1.290496 A    
O8    Cu1   1.932432 S    
C40   H19   1.082301 S    
C27   C32   1.404624 A    
C13   C15   1.453532 S    
C14   C16   1.453541 S    
C30   H11   1.082443 S    
C7    C13   1.550516 S    
C23   N2    1.366778 A    
C23   H5    1.081782 S    
C24   H6    1.081781 S    
C49   C50   1.398953 A    
C41   H20   1.082718 S    
C19   C21   1.412965 A    
C8    H2    1.110510 S    
C11   C13   1.533500 S    
C23   C25   1.415532 A    
N3    O9    1.300133 A    
O2    Cu2   1.960071 S    
C32   H13   1.077952 S    
C43   C44   1.398436 A    
O5    Cu1   1.933570 S    
C47   C48   1.398304 A    
C6    C8    1.555445 S    
C29   C30   1.396502 A    
C25   N1    1.366797 A    
C48   C49   1.398172 A    
Cu1   Cu2   2.674399 S    
