data_mof_unit_21872.cif
_audit_creation_date              2013-03-05T16:41:37-0500
_audit_creation_method            fapswitch 2.2
_symmetry_space_group_name_H-M    P1
_symmetry_Int_Tables_number       1
_space_group_crystal_system       triclinic
_cell_length_a                    13.891645
_cell_length_b                    16.489833
_cell_length_c                    17.744853
_cell_angle_alpha                 89.384214
_cell_angle_beta                  90.631034
_cell_angle_gamma                 85.220373
_cell_volume                      4050.17109833

loop_
_atom_site_label
_atom_site_type_symbol
_atom_site_description
_atom_site_fract_x
_atom_site_fract_y
_atom_site_fract_z
_atom_type_partial_charge
O1    O     O_R   0.500010 0.432070 0.608760 -0.526245
O2    O     O_R   0.499990 0.567930 0.391240 -0.517805
O3    O     O_R   0.500000 0.567880 0.608730 -0.587645
O4    O     O_R   0.500000 0.432120 0.391270 -0.585809
C1    C     C_R   0.500153 0.499624 0.644606 0.874753
C2    C     C_R   0.498552 0.500532 0.355352 0.860567
O5    O     O_R   0.637850 0.422490 0.500000 -0.559464
O6    O     O_R   0.362150 0.577510 0.500000 -0.561125
O7    O     O_R   0.637840 0.558310 0.499970 -0.604677
O8    O     O_R   0.362160 0.441690 0.500030 -0.601164
C3    C     C_R   0.683082 0.487152 0.500641 0.862553
C4    C     C_R   0.316959 0.512794 0.499228 0.860636
Cu1   Cu    Cu3+1 0.500000 0.419580 0.500020 1.000693
Cu2   Cu    Cu3+1 0.500000 0.580420 0.499980 1.003694
C5    C     C_1   0.214563 0.519997 0.494013 -0.118396
C6    C     C_1   0.785638 0.479589 0.504430 -0.137138
C7    C     C_2   0.024613 0.530182 0.483597 -0.040889
C8    C     C_2   0.975834 0.468482 0.511294 -0.040700
C9    C     C_1   0.872116 0.473726 0.507879 -0.034898
C10   C     C_1   0.128245 0.525246 0.488961 -0.031657
C11   C     C_R   0.553696 0.438735 0.153789 -0.011186
C12   C     C_R   0.428096 0.557833 0.843682 -0.009432
C13   C     C_R   0.555725 0.439913 0.233291 -0.116462
C14   C     C_R   0.431084 0.556673 0.764276 -0.115506
C15   C     C_R   0.497979 0.500951 0.272179 -0.217973
C16   C     C_R   0.496878 0.499818 0.727605 -0.232656
C17   C     C_R   0.438272 0.560055 0.230609 0.378299
C18   C     C_R   0.558723 0.444407 0.771279 0.411986
C19   C     C_R   0.438339 0.558096 0.152138 -0.246680
C20   C     C_R   0.553789 0.446249 0.849593 -0.222465
H1    H     H_    0.393554 0.603168 0.119820 0.178955
H2    H     H_    0.600283 0.403709 0.883379 0.205493
C21   C     C_R   0.494689 0.498476 0.114119 0.008724
C22   C     C_R   0.490058 0.502269 0.885499 -0.013572
C23   C     C_1   0.491999 0.500675 0.033526 -0.005571
C24   C     C_1   0.490491 0.501840 0.966087 -0.002666
C25   C     C_R   0.430344 0.177476 0.457237 -0.142092
C26   C     C_R   0.586250 0.822287 0.513750 -0.138714
C27   C     C_R   0.429615 0.263008 0.461878 0.001920
C28   C     C_R   0.582260 0.736969 0.517668 -0.009851
H3    H     H_    0.373660 0.301241 0.432748 0.146112
H4    H     H_    0.646878 0.699252 0.533206 0.152171
N1    N     N_R   0.500030 0.298780 0.500030 -0.209646
N2    N     N_R   0.499970 0.701220 0.499970 -0.206548
C29   C     C_R   0.573421 0.251736 0.534207 0.060448
C30   C     C_R   0.418424 0.749057 0.480459 0.067291
H5    H     H_    0.630557 0.281198 0.561788 0.220832
H6    H     H_    0.353768 0.720708 0.465396 0.214396
C31   C     C_R   0.577141 0.165952 0.533163 0.340190
C32   C     C_R   0.416562 0.834829 0.478717 0.332982
C33   C     C_R   0.504586 0.127003 0.493953 -0.076758
C34   C     C_R   0.502091 0.873161 0.494450 -0.071069
C35   C     C_1   0.504436 0.037240 0.492696 0.123011
C36   C     C_1   0.503460 0.962880 0.492837 0.121922
C37   C     C_R   0.024950 0.394323 0.547806 0.153571
C38   C     C_R   0.007186 0.316898 0.521242 -0.124329
C39   C     C_R   0.052400 0.246846 0.555530 -0.141427
C40   C     C_R   0.115421 0.253438 0.616661 -0.109388
C41   C     C_R   0.132591 0.330084 0.644119 -0.128503
C42   C     C_R   0.087059 0.400283 0.610315 -0.133648
H7    H     H_    0.958980 0.310806 0.473655 0.117758
H8    H     H_    0.038827 0.187420 0.534547 0.142290
H9    H     H_    0.150668 0.199132 0.642901 0.142005
H10   H     H_    0.180871 0.335124 0.691827 0.134035
H11   H     H_    0.099918 0.459153 0.633022 0.116185
C43   C     C_R   0.976491 0.604086 0.445663 0.144682
C44   C     C_R   0.002529 0.681603 0.465948 -0.106608
C45   C     C_R   0.960964 0.751226 0.428774 -0.103208
C46   C     C_R   0.892476 0.744410 0.371470 -0.100900
C47   C     C_R   0.866745 0.667725 0.350263 -0.129396
C48   C     C_R   0.909339 0.597754 0.386414 -0.133097
H12   H     H_    0.055194 0.688145 0.510451 0.126583
H13   H     H_    0.982259 0.810462 0.444252 0.123391
H14   H     H_    0.860039 0.798499 0.343035 0.122873
H15   H     H_    0.814605 0.662404 0.305181 0.133225
H16   H     H_    0.890765 0.538769 0.367482 0.117906
C49   C     C_R   0.614171 0.376153 0.111995 0.123475
C50   C     C_R   0.570583 0.317144 0.070016 -0.165134
C51   C     C_R   0.627452 0.259272 0.029459 -0.127323
C52   C     C_R   0.728014 0.259824 0.030714 -0.082399
C53   C     C_R   0.771862 0.318285 0.072523 -0.129778
C54   C     C_R   0.715226 0.376425 0.112963 -0.130284
H17   H     H_    0.492721 0.316206 0.068649 0.130942
H18   H     H_    0.593571 0.214044 0.997006 0.142846
H19   H     H_    0.771944 0.215015 0.999252 0.134996
H20   H     H_    0.849727 0.318722 0.073364 0.131843
H21   H     H_    0.749903 0.421898 0.144598 0.125709
C55   C     C_R   0.359281 0.615861 0.883130 0.132378
C56   C     C_R   0.275598 0.588815 0.915171 -0.147029
C57   C     C_R   0.211677 0.643192 0.953743 -0.120432
C58   C     C_R   0.231020 0.724660 0.960529 -0.102261
C59   C     C_R   0.314348 0.751859 0.928756 -0.137264
C60   C     C_R   0.378518 0.697625 0.890255 -0.139197
H22   H     H_    0.260162 0.525773 0.910352 0.127712
H23   H     H_    0.147237 0.622158 0.978452 0.139916
H24   H     H_    0.181539 0.766671 0.990471 0.134630
H25   H     H_    0.329366 0.814891 0.934165 0.134449
H26   H     H_    0.443271 0.719108 0.866384 0.123526
C61   C     C_R   0.617746 0.376797 0.275487 0.158682
C62   C     C_R   0.588901 0.297493 0.283002 -0.097077
C63   C     C_R   0.644736 0.239170 0.326002 -0.141753
C64   C     C_R   0.729986 0.259444 0.361009 -0.095851
C65   C     C_R   0.759565 0.338040 0.353016 -0.127596
C66   C     C_R   0.703434 0.396802 0.310750 -0.164504
H27   H     H_    0.522496 0.281438 0.256685 0.116042
H28   H     H_    0.621667 0.178408 0.332535 0.126913
H29   H     H_    0.773041 0.214307 0.394406 0.156003
H30   H     H_    0.825603 0.353647 0.380022 0.119934
H31   H     H_    0.726236 0.457855 0.305829 0.102167
C67   C     C_R   0.360687 0.611251 0.720124 0.153072
C68   C     C_R   0.271731 0.583992 0.697984 -0.164086
C69   C     C_R   0.205018 0.635507 0.656781 -0.159982
C70   C     C_R   0.227046 0.714095 0.637068 -0.076016
C71   C     C_R   0.315629 0.741500 0.658863 -0.125936
C72   C     C_R   0.382304 0.690369 0.700465 -0.105361
H32   H     H_    0.254173 0.523093 0.712758 0.117549
H33   H     H_    0.136302 0.614491 0.640018 0.126171
H34   H     H_    0.175386 0.753791 0.605074 0.158269
H35   H     H_    0.332648 0.802324 0.643460 0.150838
H36   H     H_    0.450856 0.712032 0.716933 0.118653
S1    S     S_3+6 0.358638 0.635319 0.273474 0.017166
O9    O     O_2   0.303560 0.597466 0.335141 -0.279645
O10   O     O_2   0.416044 0.699888 0.306600 -0.292384
O11   O     O_3   0.278815 0.678800 0.210021 -0.514019
H37   H     H_    0.311777 0.723441 0.186363 0.349389
S2    S     S_3+6 0.643342 0.371289 0.731500 0.004521
O12   O     O_2   0.589959 0.301276 0.704705 -0.267636
O13   O     O_2   0.693725 0.407727 0.666435 -0.319080
O14   O     O_3   0.726384 0.336852 0.796484 -0.545425
H38   H     H_    0.766933 0.293425 0.770914 0.386412
C73   C     C_R   0.354514 0.143729 0.411033 0.138414
C74   C     C_R   0.378943 0.101558 0.344715 -0.122004
C75   C     C_R   0.306402 0.075443 0.297819 -0.052805
C76   C     C_R   0.209347 0.090216 0.317383 -0.062058
C77   C     C_R   0.184608 0.131944 0.383470 -0.112945
C78   C     C_R   0.256867 0.159240 0.429906 -0.101160
H39   H     H_    0.453843 0.090408 0.328662 0.109858
H40   H     H_    0.325426 0.043403 0.246473 0.130565
H41   H     H_    0.153348 0.069475 0.281259 0.120727
H42   H     H_    0.109440 0.143727 0.398373 0.118708
H43   H     H_    0.236945 0.192624 0.480371 0.132425
C79   C     C_R   0.680605 0.855256 0.527368 0.144806
C80   C     C_R   0.725063 0.896754 0.469547 -0.101770
C81   C     C_R   0.817196 0.922991 0.480800 -0.062409
C82   C     C_R   0.865066 0.908826 0.549977 -0.071391
C83   C     C_R   0.821386 0.867387 0.607688 -0.100799
C84   C     C_R   0.729725 0.840159 0.596373 -0.105667
H44   H     H_    0.689163 0.907437 0.415427 0.114508
H45   H     H_    0.851493 0.954394 0.435872 0.124427
H46   H     H_    0.936270 0.929466 0.558635 0.124282
H47   H     H_    0.858775 0.855928 0.661047 0.126081
H48   H     H_    0.696997 0.807368 0.641264 0.118454
S3    S     S_3+6 0.677223 0.111122 0.577496 -0.015221
O15   O     O_2   0.648454 0.033511 0.612514 -0.289059
O16   O     O_2   0.752574 0.091969 0.518872 -0.349489
O17   O     O_3   0.723784 0.168006 0.644692 -0.497999
H49   H     H_    0.783555 0.136030 0.662146 0.369854
S4    S     S_3+6 0.306677 0.890586 0.453151 -0.017659
O18   O     O_2   0.293143 0.967916 0.497249 -0.311461
O19   O     O_2   0.309500 0.910536 0.370503 -0.277522
O20   O     O_3   0.213323 0.834257 0.469388 -0.572001
H50   H     H_    0.156171 0.866384 0.447381 0.368395

loop_
_geom_bond_atom_site_label_1
_geom_bond_atom_site_label_2
_geom_bond_distance
_ccdc_geom_bond_type
C13   C61   1.485189 S    
C37   C38   1.405690 A    
S2    O12   1.501857 D    
C17   C19   1.393183 A    
C23   C24   1.196567 T    
C76   H41   1.082166 S    
C62   H27   1.083053 S    
O14   H38   0.990641 S    
C82   C83   1.396988 A    
C57   C58   1.397967 A    
C77   C78   1.397936 A    
C27   H3    1.082280 S    
C35   C36   1.227365 T    
C32   S4    1.767258 S    
O5    C3    1.282037 A    
C41   H10   1.082450 S    
C63   C64   1.397990 A    
O1    C1    1.288829 A    
C31   S3    1.766465 S    
O17   H49   0.990577 S    
C14   C16   1.421680 A    
C83   C84   1.398152 A    
C51   H18   1.082195 S    
C25   C33   1.418221 A    
C2    C15   1.475774 S    
C11   C21   1.405607 A    
C54   H21   1.082927 S    
C19   C21   1.389993 A    
O4    Cu1   1.938589 S    
C7    C10   1.437173 S    
C38   C39   1.398086 A    
C7    C8    1.359184 D    
C8    C9    1.436766 S    
C56   H22   1.082875 S    
C67   C68   1.403259 A    
C62   C63   1.398454 A    
S1    O11   1.683483 S    
S4    O20   1.682492 S    
C64   C65   1.398125 A    
C58   H24   1.082272 S    
C50   H17   1.083030 S    
C61   C62   1.404699 A    
N2    C30   1.364532 A    
C45   C46   1.396691 A    
C31   C33   1.419351 A    
C32   C34   1.418027 A    
C65   H30   1.081559 S    
C12   C55   1.481945 S    
S3    O16   1.501177 D    
C53   H20   1.082240 S    
C70   H34   1.081926 S    
C28   H4    1.080016 S    
C61   C66   1.403844 A    
C75   H40   1.082373 S    
C41   C42   1.398062 A    
C37   C42   1.407059 A    
S4    O19   1.501234 D    
C26   C79   1.478721 S    
O2    C2    1.288311 A    
C69   C70   1.397869 A    
C34   C36   1.481131 S    
C59   H25   1.082082 S    
C53   C54   1.398078 A    
C29   H5    1.079981 S    
C17   S1    1.775585 S    
C77   H42   1.082326 S    
C12   C22   1.403889 A    
C30   H6    1.078910 S    
C20   C22   1.389925 A    
C44   C45   1.396941 A    
C20   H2    1.084242 S    
C39   H8    1.082372 S    
C63   H28   1.082527 S    
C14   C67   1.483731 S    
O4    C2    1.288304 A    
C73   C78   1.404158 A    
C58   C59   1.398020 A    
C50   C51   1.397991 A    
C74   C75   1.398196 A    
C27   N1    1.361347 A    
S2    O14   1.682383 S    
C45   H13   1.081308 S    
C49   C50   1.404355 A    
C1    C16   1.474045 S    
C5    C10   1.197306 T    
C33   C35   1.480757 S    
S4    O18   1.502817 D    
O7    Cu2   1.919153 S    
C52   H19   1.082266 S    
O7    C3    1.283977 A    
C3    C6    1.420524 S    
C43   C48   1.408360 A    
C4    C5    1.419412 S    
O5    Cu1   1.919560 S    
O6    C4    1.282537 A    
C29   C31   1.411523 A    
C7    C43   1.490578 S    
C46   H14   1.082354 S    
S3    O17   1.681714 S    
S2    O13   1.502287 D    
N1    C29   1.361422 A    
S1    O9    1.501934 D    
C47   C48   1.398168 A    
O3    Cu2   1.938589 S    
O8    C4    1.282949 A    
C8    C37   1.488253 S    
C42   H11   1.082751 S    
C11   C13   1.411087 A    
C75   C76   1.398228 A    
C12   C14   1.410393 A    
C40   C41   1.397363 A    
O1    Cu1   1.942734 S    
C73   C74   1.403809 A    
C56   C57   1.398170 A    
C64   H29   1.082322 S    
C48   H16   1.082784 S    
Cu1   N1    1.991935 S    
C44   H12   1.082938 S    
Cu2   N2    1.991937 S    
C70   C71   1.397872 A    
C40   H9    1.082307 S    
C55   C60   1.402929 A    
O6    Cu2   1.919561 S    
C68   C69   1.398416 A    
C79   C80   1.404174 A    
C79   C84   1.404867 A    
C82   H46   1.082457 S    
C52   C53   1.397860 A    
O3    C1    1.286959 A    
O8    Cu1   1.919153 S    
C57   H23   1.082125 S    
C71   C72   1.398270 A    
C76   C77   1.397720 A    
C18   S2    1.770362 S    
C83   H47   1.082118 S    
C30   C32   1.412442 A    
C16   C18   1.418758 A    
C69   H33   1.082088 S    
C81   C82   1.397708 A    
C68   H32   1.083156 S    
C18   C20   1.392649 A    
C84   H48   1.083202 S    
C74   H39   1.083198 S    
C25   C27   1.412906 A    
O20   H50   0.991020 S    
C26   C28   1.413582 A    
C39   C40   1.397298 A    
C66   H31   1.083219 S    
C71   H35   1.082410 S    
C49   C54   1.404110 A    
C6    C9    1.197978 T    
C60   H26   1.082760 S    
C59   C60   1.398174 A    
C21   C23   1.430179 S    
C78   H43   1.082686 S    
C43   C44   1.406553 A    
C22   C24   1.429906 S    
C13   C15   1.423129 A    
C46   C47   1.396779 A    
O2    Cu2   1.942737 S    
C81   H45   1.082284 S    
C80   H44   1.083137 S    
S1    O10   1.503250 D    
C51   C52   1.397692 A    
C25   C73   1.476476 S    
C28   N2    1.364293 A    
C26   C34   1.417534 A    
C55   C56   1.403222 A    
C47   H15   1.082405 S    
C19   H1    1.083630 S    
C72   H36   1.082911 S    
C11   C49   1.485414 S    
C65   C66   1.398218 A    
C38   H7    1.082662 S    
S3    O15   1.502437 D    
Cu1   Cu2   2.652217 S    
C67   C72   1.404195 A    
C80   C81   1.397736 A    
O11   H37   0.990729 S    
C15   C17   1.420674 A    
