data_mof_unit_58475.cif
_audit_creation_date              2012-12-10T18:03:16-0500
_audit_creation_method            fapswitch 2.2
_symmetry_space_group_name_H-M    P1
_symmetry_Int_Tables_number       1
_space_group_crystal_system       triclinic
_cell_length_a                    10.905728
_cell_length_b                    9.642107
_cell_length_c                    15.086905
_cell_angle_alpha                 91.10751
_cell_angle_beta                  93.417217
_cell_angle_gamma                 92.108543
_cell_volume                      1582.19000083

loop_
_atom_site_label
_atom_site_type_symbol
_atom_type_description
_atom_site_fract_x
_atom_site_fract_y
_atom_site_fract_z
_atom_type_partial_charge
C1    C     C_R   0.262514 0.498229 0.501891 0.829202
C2    C     C_R   0.737366 0.502224 0.501070 0.830720
C3    C     C_R   0.504395 0.499213 0.330078 0.778294
C4    C     C_R   0.501186 0.501167 0.669789 0.759077
C5    C     C_R   0.441555 0.068400 0.431767 0.255259
C6    C     C_R   0.564893 0.930920 0.565525 0.230004
C7    C     C_R   0.566199 0.079988 0.564496 0.259435
C8    C     C_R   0.432552 0.919759 0.436116 0.236993
C9    C     C_R   0.054770 0.395967 0.456027 0.093954
C10   C     C_R   0.944456 0.602366 0.553874 0.112187
C11   C     C_R   0.926622 0.402397 0.451780 0.092139
C12   C     C_R   0.072074 0.598202 0.556255 0.127475
C13   C     C_R   0.553460 0.624632 0.099311 -0.175937
C14   C     C_R   0.592972 0.417983 0.905382 -0.172293
C15   C     C_R   0.441377 0.596167 0.905331 -0.162607
C16   C     C_R   0.493126 0.380176 0.090014 -0.175468
C17   C     C_R   0.552040 0.621211 0.191445 -0.200280
C18   C     C_R   0.587281 0.417203 0.813132 -0.198653
C19   C     C_R   0.433920 0.593283 0.812848 -0.212833
C20   C     C_R   0.489116 0.377798 0.181851 -0.202301
C21   C     C_R   0.515241 0.498939 0.233370 -0.030977
C22   C     C_R   0.506829 0.503582 0.766494 -0.015399
C23   C     C_R   0.522787 0.504242 0.048409 0.106837
C24   C     C_R   0.520098 0.507460 0.951695 0.098070
C25   C     C_R   0.871269 0.504872 0.501239 -0.168420
C26   C     C_R   0.128287 0.496169 0.505603 -0.155027
Cu1   Cu    Cu3+1 0.500000 0.640660 0.500000 0.963199
Cu2   Cu    Cu3+1 0.500000 0.359340 0.500000 0.997780
H1    H     H_    0.579232 0.720483 0.067754 0.126612
H2    H     H_    0.654913 0.349992 0.940749 0.129312
H3    H     H_    0.384008 0.664999 0.940720 0.131091
H4    H     H_    0.470162 0.286096 0.051182 0.128005
H5    H     H_    0.579814 0.714143 0.229791 0.145678
H6    H     H_    0.647563 0.351513 0.778420 0.138074
H7    H     H_    0.371072 0.660199 0.777574 0.133696
H8    H     H_    0.463832 0.281707 0.211699 0.162815
N1    N     N_R   0.500000 0.852070 0.500000 -0.214660
N2    N     N_R   0.500000 0.147930 0.500000 -0.209789
O1    O     O_R   0.319640 0.618740 0.499990 -0.583998
O2    O     O_R   0.680360 0.381260 0.500010 -0.523328
O3    O     O_R   0.680360 0.618740 0.500010 -0.589419
O4    O     O_R   0.319640 0.381260 0.499990 -0.536814
O5    O     O_R   0.499990 0.618780 0.371460 -0.558923
O6    O     O_R   0.500010 0.381220 0.628540 -0.568699
O7    O     O_R   0.500010 0.618780 0.628540 -0.553355
O8    O     O_R   0.499990 0.381220 0.371460 -0.543017
N3    N     N_2   0.423012 0.129259 0.347685 -0.372308
H9    H     H_    0.482714 0.095936 0.302010 0.218524
C27   C     C_3   0.299417 0.147876 0.311784 -0.650144
H10   H     H_    0.289081 0.110159 0.241681 0.182060
H11   H     H_    0.283441 0.260477 0.310516 0.254675
H12   H     H_    0.230889 0.091395 0.350317 0.225628
N4    N     N_2   0.631132 0.863157 0.635046 -0.375275
H13   H     H_    0.723163 0.890023 0.639783 0.241151
C28   C     C_3   0.579582 0.868559 0.721333 -0.652476
H14   H     H_    0.612352 0.963193 0.759538 0.187482
H15   H     H_    0.612395 0.779693 0.760438 0.237923
H16   H     H_    0.477450 0.863585 0.714956 0.227501
N5    N     N_2   0.637902 0.160134 0.629812 -0.373394
H17   H     H_    0.605976 0.159129 0.692473 0.236321
C29   C     C_3   0.770346 0.162759 0.625561 -0.666202
H18   H     H_    0.812435 0.102977 0.680904 0.197542
H19   H     H_    0.806751 0.271507 0.633422 0.234305
H20   H     H_    0.798074 0.119578 0.561194 0.219296
N6    N     N_2   0.338577 0.842621 0.384633 -0.363582
H21   H     H_    0.250963 0.856711 0.404464 0.225308
C30   C     C_3   0.346478 0.826076 0.289563 -0.624763
H22   H     H_    0.270029 0.878165 0.253819 0.192932
H23   H     H_    0.334114 0.714639 0.270747 0.232707
H24   H     H_    0.435664 0.866815 0.267535 0.205697
N7    N     N_3   0.110356 0.287667 0.409184 -0.593085
H25   H     H_    0.080781 0.291237 0.342111 0.201511
H26   H     H_    0.080766 0.192778 0.434474 0.213060
N8    N     N_3   0.891612 0.708562 0.605064 -0.559554
H27   H     H_    0.825933 0.663375 0.644437 0.221674
H28   H     H_    0.850588 0.776629 0.560311 0.227000
N9    N     N_3   0.851804 0.307704 0.394757 -0.570367
H29   H     H_    0.868965 0.205809 0.412738 0.211167
H30   H     H_    0.873991 0.321716 0.329016 0.207787
N10   N     N_3   0.142241 0.696680 0.613313 -0.552901
H31   H     H_    0.207040 0.644415 0.652613 0.203999
H32   H     H_    0.186614 0.769386 0.574620 0.235091

loop_
_geom_bond_atom_site_label_1
_geom_bond_atom_site_label_2
_ccdc_geom_bond_type
C28   H14   S    
C14   C18   A    
N3    C27   S    
N4    H13   S    
C15   C19   A    
C5    N3    S    
Cu2   O8    S    
N8    H28   S    
C13   H1    S    
Cu2   O2    S    
C2    O3    A    
C13   C23   A    
C14   C24   A    
C29   H19   S    
C11   N9    S    
Cu1   O1    S    
N6    C30   S    
C23   C24   S    
C9    C11   A    
Cu1   O7    S    
N4    C28   S    
C8    N6    S    
C5    N2    A    
C17   H5    S    
C14   H2    S    
C7    N5    S    
C9    C26   A    
C4    O7    A    
N9    H30   S    
N5    C29   S    
N8    H27   S    
C30   H22   S    
C19   C22   A    
N10   H32   S    
N7    H26   S    
C4    O6    A    
C27   H11   S    
N9    H29   S    
Cu2   O6    S    
C17   C21   A    
C12   C26   A    
C30   H23   S    
C29   H20   S    
Cu1   O5    S    
C4    C22   S    
Cu1   O3    S    
N3    H9    S    
Cu2   N2    S    
C16   C20   A    
C27   H12   S    
C3    O5    A    
C6    N1    A    
C18   H6    S    
C10   C12   A    
C10   C25   A    
C15   C24   A    
C27   H10   S    
C16   C23   A    
C28   H15   S    
C1    C26   S    
C3    C21   S    
C8    N1    A    
C6    N4    S    
C18   C22   A    
C9    N7    S    
N10   H31   S    
C5    C8    A    
C15   H3    S    
C6    C7    A    
C16   H4    S    
C3    O8    A    
C13   C17   A    
C30   H24   S    
N7    H25   S    
C19   H7    S    
C10   N8    S    
Cu1   N1    S    
C12   N10   S    
Cu2   O4    S    
C7    N2    A    
C2    C25   S    
C29   H18   S    
C1    O1    A    
C20   H8    S    
C2    O2    A    
C1    O4    A    
N5    H17   S    
C20   C21   A    
N6    H21   S    
C28   H16   S    
Cu1   Cu2   S    
C11   C25   A    
