data_mof_unit_48283.cif
_audit_creation_date              2012-12-10T16:44:17-0500
_audit_creation_method            fapswitch 2.2
_symmetry_space_group_name_H-M    P1
_symmetry_Int_Tables_number       1
_space_group_crystal_system       triclinic
_cell_length_a                    7.436009
_cell_length_b                    8.694274
_cell_length_c                    13.360072
_cell_angle_alpha                 94.000805
_cell_angle_beta                  77.370275
_cell_angle_gamma                 103.134306
_cell_volume                      820.606575563

loop_
_atom_site_label
_atom_site_type_symbol
_atom_type_description
_atom_site_fract_x
_atom_site_fract_y
_atom_site_fract_z
_atom_type_partial_charge
C1    C     C_R   0.545276 0.800178 0.503078 0.876130
C2    C     C_R   0.410476 0.518165 0.978703 0.036416
C3    C     C_R   0.461104 0.559728 0.873612 0.019087
C4    C     C_R   0.554231 0.555203 0.037697 0.087574
C5    C     C_R   0.729776 0.657978 0.997877 0.140568
C6    C     C_R   0.764808 0.716467 0.899561 -0.237366
C7    C     C_R   0.633523 0.667397 0.838055 -0.181763
C8    C     C_R   0.532213 0.489433 0.133737 -0.184362
C9    C     C_R   0.832661 0.648946 0.157221 -0.171113
C10   C     C_R   0.335828 0.495910 0.807374 -0.109877
C11   C     C_2   0.570775 0.968046 0.504607 -0.371945
C12   C     C_R   0.399315 0.497454 0.694665 0.790287
C13   C     C_2   0.429127 0.031943 0.495590 -0.371055
C14   C     C_R   0.454671 0.199823 0.497024 0.885499
C15   C     C_R   0.601779 0.512082 0.305815 0.797652
C16   C     C_R   0.868023 0.702655 0.057454 -0.178583
C17   C     C_R   0.662959 0.543684 0.196037 -0.107454
C18   C     C_R   0.151304 0.416865 0.849119 -0.244667
C19   C     C_R   0.091525 0.397199 0.954097 -0.228857
C20   C     C_R   0.217807 0.446833 0.020250 0.399459
Cu1   Cu    Cu3+1 0.321300 0.483160 0.488710 0.959923
Cu2   Cu    Cu3+1 0.678700 0.516840 0.511290 0.947006
H1    H     H_    0.934947 0.692929 0.204756 0.180532
H2    H     H_    0.292592 0.960568 0.487077 0.179458
H3    H     H_    0.010763 0.617784 0.579466 0.222589
H4    H     H_    0.989198 0.382207 0.420554 0.233130
H5    H     H_    0.895932 0.798569 0.869251 0.143224
H6    H     H_    0.001117 0.782805 0.027900 0.143588
H7    H     H_    0.414183 0.395085 0.162580 0.202801
H8    H     H_    0.052061 0.369609 0.800324 0.178754
H9    H     H_    0.945178 0.342087 0.984113 0.145784
H10   H     H_    0.666767 0.719846 0.763442 0.163020
H11   H     H_    0.707303 0.039413 0.513134 0.178381
N1    N     N_2   0.947230 0.542220 0.528320 -0.217957
N2    N     N_2   0.052770 0.457780 0.471680 -0.208822
O1    O     O_R   0.383920 0.714220 0.492660 -0.580492
O2    O     O_R   0.685730 0.742660 0.511730 -0.592974
O3    O     O_R   0.275440 0.478800 0.636790 -0.588699
O4    O     O_R   0.577250 0.507240 0.655860 -0.581129
O5    O     O_R   0.314270 0.257340 0.488270 -0.586262
O6    O     O_R   0.616080 0.285780 0.507340 -0.581323
O7    O     O_R   0.422750 0.492760 0.344140 -0.559514
O8    O     O_R   0.724560 0.521200 0.363210 -0.584021
O9    O     O_3   0.150048 0.439607 0.125072 -0.764109
H12   H     H_    0.015786 0.382671 0.139945 0.321480

loop_
_geom_bond_atom_site_label_1
_geom_bond_atom_site_label_2
_ccdc_geom_bond_type
C16   H6    S    
C2    C4    A    
C6    C7    A    
C18   H8    S    
C15   O7    A    
C8    C17   A    
C1    C11   S    
C6    H5    S    
C1    O2    A    
H3    N1    S    
C4    C8    A    
C19   H9    S    
C12   O4    A    
C2    C3    A    
C15   O8    A    
C3    C10   A    
C13   C14   S    
C11   C13   D    
Cu1   O5    S    
C10   C12   S    
C10   C18   A    
C14   O6    A    
Cu1   N2    S    
C8    H7    S    
C9    C17   A    
C20   O9    S    
C9    C16   A    
C18   C19   A    
C3    C7    A    
C12   O3    A    
C5    C6    A    
Cu2   N1    S    
Cu2   O6    S    
Cu2   O4    S    
C14   O5    A    
Cu1   O7    S    
H4    N2    S    
C11   H11   S    
O9    H12   S    
C13   H2    S    
C15   C17   S    
N1    N2    D    
Cu1   O1    S    
C9    H1    S    
C5    C16   A    
C7    H10   S    
Cu1   Cu2   S    
Cu2   O2    S    
C2    C20   A    
Cu2   O8    S    
Cu1   O3    S    
C19   C20   A    
C1    O1    A    
C4    C5    A    
