data_mof_unit_46038.cif
_audit_creation_date              2012-12-10T16:52:07-0500
_audit_creation_method            fapswitch 2.2
_symmetry_space_group_name_H-M    P1
_symmetry_Int_Tables_number       1
_space_group_crystal_system       triclinic
_cell_length_a                    7.862615
_cell_length_b                    8.700344
_cell_length_c                    14.888766
_cell_angle_alpha                 93.898742
_cell_angle_beta                  85.79593
_cell_angle_gamma                 93.333547
_cell_volume                      1011.9637558

loop_
_atom_site_label
_atom_site_type_symbol
_atom_type_description
_atom_site_fract_x
_atom_site_fract_y
_atom_site_fract_z
_atom_type_partial_charge
C1    C     C_R   0.544474 0.794179 0.498036 0.914629
C2    C     C_R   0.509386 0.645706 0.818942 0.087101
C3    C     C_R   0.495843 0.495436 0.232149 -0.079121
C4    C     C_R   0.504157 0.504564 0.767851 -0.079121
C5    C     C_R   0.507922 0.635941 0.192698 -0.256403
C6    C     C_R   0.492078 0.364059 0.807302 -0.256403
C7    C     C_R   0.514307 0.638329 0.099856 0.129036
C8    C     C_R   0.485693 0.361671 0.900144 0.129036
C9    C     C_R   0.499064 0.498373 0.046885 0.039797
C10   C     C_R   0.500936 0.501626 0.953115 0.039797
C11   C     C_R   0.483668 0.355325 0.087555 0.081987
C12   C     C_R   0.455526 0.205821 0.501964 0.914629
C13   C     C_R   0.516332 0.644675 0.912445 0.081987
C14   C     C_R   0.537253 0.778443 0.059373 -0.184438
C15   C     C_R   0.462747 0.221557 0.940627 -0.184438
C16   C     C_R   0.538234 0.781920 0.966416 -0.176003
C17   C     C_R   0.461765 0.218080 0.033584 -0.176003
C18   C     C_2   0.565229 0.957216 0.509154 -0.046718
C19   C     C_2   0.434771 0.042784 0.490846 -0.046718
C20   C     C_R   0.501510 0.501243 0.672513 0.909660
C21   C     C_R   0.498490 0.498757 0.327487 0.909660
C22   C     C_R   0.490614 0.354294 0.181058 0.087102
H1    H     H_    0.516614 0.742962 0.234540 0.170835
H2    H     H_    0.483386 0.257038 0.765460 0.170835
H3    H     H_    0.556523 0.885015 0.099744 0.173256
H4    H     H_    0.443477 0.114985 0.900256 0.173257
H5    H     H_    0.559815 0.892285 0.937724 0.172487
H6    H     H_    0.440185 0.107715 0.062276 0.172487
I1    I     I_    0.511764 0.144869 0.245594 -0.368517
I2    I     I_    0.488236 0.855131 0.754406 -0.368517
I3    I     I_    0.791405 0.039660 0.575850 -0.191275
I4    I     I_    0.208595 0.960340 0.424150 -0.191275
I5    I     I_    0.033990 0.327767 0.361291 -0.094025
I6    I     I_    0.966009 0.672233 0.638708 -0.094025
N1    N     N_2   0.950330 0.457950 0.475660 0.027709
N2    N     N_2   0.049670 0.542050 0.524340 0.027709
O1    O     O_R   0.389250 0.738570 0.505970 -0.594941
O2    O     O_R   0.610750 0.261430 0.494030 -0.594941
O3    O     O_R   0.678390 0.711620 0.490370 -0.593333
O4    O     O_R   0.321610 0.288380 0.509630 -0.593334
O5    O     O_R   0.355420 0.513510 0.639950 -0.598252
O6    O     O_R   0.644580 0.486490 0.360050 -0.598252
O7    O     O_R   0.644560 0.486560 0.624350 -0.601750
O8    O     O_R   0.355440 0.513440 0.375650 -0.601750
Zn1   Zn    Zn3+2 0.306940 0.517990 0.510420 1.078279
Zn2   Zn    Zn3+2 0.693060 0.482010 0.489580 1.078279

loop_
_geom_bond_atom_site_label_1
_geom_bond_atom_site_label_2
_ccdc_geom_bond_type
C12   O4    A    
C2    C4    A    
C15   C17   A    
C22   I1    S    
C21   O8    A    
C5    C7    A    
C9    C10   A    
N1    Zn2   S    
C11   C22   A    
N1    N2    D    
C5    H1    S    
C1    O1    A    
C2    I2    S    
C6    H2    S    
C16   H5    S    
C20   O5    A    
N2    Zn1   S    
C9    C11   A    
C1    C18   S    
O3    Zn2   S    
C19   I4    S    
C12   C19   S    
C8    C10   A    
I5    N1    S    
C8    C15   A    
I6    N2    S    
C14   H3    S    
C12   O2    A    
O4    Zn1   S    
O7    Zn2   S    
C14   C16   A    
O2    Zn2   S    
C3    C21   S    
C1    O3    A    
O1    Zn1   S    
C21   O6    A    
C4    C20   S    
C20   O7    A    
O8    Zn1   S    
C4    C6    A    
C18   C19   D    
O6    Zn2   S    
C13   C16   A    
C7    C9    A    
C2    C13   A    
O5    Zn1   S    
C11   C17   A    
C15   H4    S    
C6    C8    A    
C18   I3    S    
C3    C5    A    
C17   H6    S    
C7    C14   A    
C3    C22   A    
C10   C13   A    
