data_mof_unit_42022.cif
_audit_creation_date              2012-12-10T16:57:50-0500
_audit_creation_method            fapswitch 2.2
_symmetry_space_group_name_H-M    P1
_symmetry_Int_Tables_number       1
_space_group_crystal_system       triclinic
_cell_length_a                    10.63142
_cell_length_b                    10.937049
_cell_length_c                    9.713908
_cell_angle_alpha                 89.385592
_cell_angle_beta                  90.412218
_cell_angle_gamma                 90.284896
_cell_volume                      1129.39017201

loop_
_atom_site_label
_atom_site_type_symbol
_atom_type_description
_atom_site_fract_x
_atom_site_fract_y
_atom_site_fract_z
_atom_type_partial_charge
C1    C     C_R   0.497722 0.265452 0.500732 0.848894
C2    C     C_3   0.958311 0.565911 0.391573 -0.195720
C3    C     C_3   0.039080 0.448955 0.381512 -0.109538
C4    C     C_3   0.122907 0.497810 0.498169 -0.037235
C5    C     C_2   0.474639 0.936815 0.385134 0.010981
C6    C     C_2   0.504592 0.867419 0.496531 -0.365418
C7    C     C_2   0.491300 0.069594 0.387294 -0.217258
C8    C     C_2   0.486804 0.133681 0.503669 -0.339662
C9    C     C_2   0.448117 0.413929 0.922269 -0.196991
C10   C     C_2   0.429069 0.426893 0.077365 0.507241
C11   C     C_R   0.259513 0.498189 0.499418 0.799424
C12   C     C_R   0.498802 0.734760 0.498884 0.837818
C13   C     C_R   0.740701 0.501464 0.500535 0.802140
C14   C     C_3   0.042888 0.432079 0.607878 -0.216736
C15   C     C_3   0.956320 0.384244 0.491025 -0.240439
C16   C     C_3   0.877773 0.501187 0.501441 -0.031292
C17   C     C_3   0.963891 0.548781 0.615657 0.532508
C18   C     C_3   0.044795 0.615350 0.507463 -0.286824
Cu1   Cu    Cu3+1 0.500030 0.500020 0.638630 0.963302
Cu2   Cu    Cu3+1 0.499970 0.499980 0.361370 0.988998
H1    H     H_    0.917060 0.290279 0.483619 0.145438
H2    H     H_    0.468852 0.090678 0.602726 0.150337
H3    H     H_    0.414464 0.332601 0.871083 0.166593
H4    H     H_    0.508269 0.583732 0.889868 0.210512
H5    H     H_    0.080604 0.376662 0.694986 0.130558
H6    H     H_    0.083802 0.709515 0.513596 0.130332
H7    H     H_    0.921179 0.619866 0.302877 0.167727
H8    H     H_    0.073274 0.406981 0.285315 0.160060
H9    H     H_    0.540596 0.908431 0.590026 0.150515
H10   H     H_    0.503552 0.116137 0.288857 0.161353
N1    N     N_2   0.498620 0.498660 0.846910 -0.285083
N2    N     N_2   0.498590 0.498630 0.153040 -0.261563
O1    O     O_R   0.500020 0.321960 0.617040 -0.587519
O2    O     O_R   0.499980 0.321920 0.382900 -0.571015
O3    O     O_R   0.316870 0.499990 0.617050 -0.593122
O4    O     O_R   0.316830 0.499950 0.382910 -0.537556
O5    O     O_R   0.500020 0.678080 0.617100 -0.579774
O6    O     O_R   0.499980 0.678040 0.382960 -0.566705
O7    O     O_R   0.683170 0.500050 0.617090 -0.530765
O8    O     O_R   0.683130 0.500010 0.382950 -0.597757
O9    O     O_3   0.326185 0.371657 0.140682 -0.588366
C19   C     C_3   0.313490 0.246518 0.107738 0.048800
H11   H     H_    0.297419 0.195668 0.205679 0.172408
H12   H     H_    0.399277 0.205623 0.061817 0.108208
C20   C     C_3   0.197794 0.227327 0.015483 -0.378487
H13   H     H_    0.112584 0.259242 0.069900 0.220877
H14   H     H_    0.206903 0.281774 0.918986 0.207644
C21   C     C_3   0.180956 0.092795 0.979199 -0.896933
H15   H     H_    0.264026 0.059714 0.921982 0.259096
H16   H     H_    0.096052 0.081667 0.913193 0.251032
H17   H     H_    0.168874 0.036558 0.074156 0.262321
C22   C     C_1   0.616723 0.532988 0.104327 0.377355
N3    N     N_1   0.714933 0.561770 0.064498 -0.330586
O10   O     O_3   0.917589 0.599378 0.738505 -0.596543
C23   C     C_3   0.016726 0.650215 0.818212 0.065368
H18   H     H_    0.984939 0.740786 0.854799 0.166149
H19   H     H_    0.105486 0.667205 0.760507 0.126529
C24   C     C_3   0.045130 0.568830 0.943737 -0.360659
H20   H     H_    0.958414 0.555464 0.004980 0.248971
H21   H     H_    0.077691 0.477961 0.909604 0.208942
C25   C     C_3   0.146567 0.625837 0.035152 -0.843818
H22   H     H_    0.235968 0.636030 0.977526 0.261105
H23   H     H_    0.163692 0.566177 0.126322 0.282929
H24   H     H_    0.116060 0.716874 0.071556 0.249696
C26   C     C_1   0.426504 0.886253 0.257727 0.275359
N4    N     N_1   0.387943 0.846256 0.155873 -0.314156

loop_
_geom_bond_atom_site_label_1
_geom_bond_atom_site_label_2
_ccdc_geom_bond_type
C25   H24   S    
C8    H2    S    
C23   H18   S    
C2    H7    S    
C11   O4    A    
C2    C18   S    
C1    C8    S    
C2    C16   S    
O9    C19   S    
Cu1   Cu2   S    
C18   H6    S    
C4    C18   S    
C24   C25   S    
C21   H16   S    
C17   C18   S    
H4    N1    S    
Cu1   N1    S    
C7    C8    D    
C20   H14   S    
C7    H10   S    
Cu1   O3    S    
C20   H13   S    
C4    C11   S    
C6    C12   S    
C14   C17   S    
C5    C6    D    
C19   H12   S    
C21   H17   S    
C10   O9    S    
Cu1   O7    S    
C11   O3    A    
C21   H15   S    
Cu2   N2    S    
C1    O2    A    
C2    C3    S    
C1    O1    A    
C23   H19   S    
C14   H5    S    
C4    C14   S    
C25   H22   S    
Cu2   O8    S    
C13   O7    A    
Cu1   O5    S    
C19   H11   S    
C9    N1    D    
C24   H21   S    
Cu2   O2    S    
Cu2   O4    S    
C12   O6    A    
C10   N2    D    
C15   H1    S    
C6    H9    S    
Cu2   O6    S    
C22   N3    T    
C5    C26   S    
C26   N4    T    
C9    C10   S    
C13   C16   S    
C12   O5    A    
C5    C7    S    
C23   C24   S    
O10   C23   S    
C3    H8    S    
C3    C15   S    
C20   C21   S    
C24   H20   S    
C14   C15   S    
C17   O10   S    
C25   H23   S    
C9    H3    S    
C3    C4    S    
C15   C16   S    
Cu1   O1    S    
C16   C17   S    
C13   O8    A    
C19   C20   S    
N2    C22   S    
