data_mof_unit_14691.cif
_audit_creation_date              2012-12-10T18:31:03-0500
_audit_creation_method            fapswitch 2.2
_symmetry_space_group_name_H-M    P1
_symmetry_Int_Tables_number       1
_space_group_crystal_system       triclinic
_cell_length_a                    13.658878
_cell_length_b                    14.94071
_cell_length_c                    15.48618
_cell_angle_alpha                 98.219916
_cell_angle_beta                  92.528902
_cell_angle_gamma                 98.384907
_cell_volume                      3087.5949247

loop_
_atom_site_label
_atom_site_type_symbol
_atom_type_description
_atom_site_fract_x
_atom_site_fract_y
_atom_site_fract_z
_atom_type_partial_charge
C1    C     C_R   0.513975 0.557474 0.662272 0.885439
C2    C     C_R   0.450692 0.390814 0.920094 -0.181494
C3    C     C_R   0.454848 0.670464 0.015093 -0.259218
C4    C     C_R   0.452096 0.326549 0.975903 -0.240517
C5    C     C_R   0.348086 0.171629 0.632441 0.407657
C6    C     C_R   0.634410 0.822921 0.353069 0.384937
C7    C     C_R   0.382025 0.259696 0.615220 -0.106131
C8    C     C_R   0.618318 0.739775 0.384811 -0.092744
C9    C     C_R   0.481427 0.203783 0.504751 -0.050828
C10   C     C_R   0.505746 0.793376 0.484443 -0.048159
C11   C     C_R   0.452315 0.113019 0.518515 -0.102537
C12   C     C_R   0.483728 0.442684 0.337993 0.885938
C13   C     C_R   0.517672 0.879350 0.455990 -0.096576
C14   C     C_R   0.383793 0.096863 0.583652 -0.043838
C15   C     C_R   0.585257 0.894868 0.390070 -0.054614
C16   C     C_R   0.318413 0.513542 0.495951 0.873490
C17   C     C_R   0.681573 0.486368 0.503895 0.874514
C18   C     C_R   0.491554 0.039150 0.471381 0.054280
C19   C     C_R   0.467266 0.950446 0.493584 0.053444
C20   C     C_R   0.391750 0.934864 0.551306 -0.354286
C21   C     C_R   0.553736 0.051217 0.402267 -0.343264
C22   C     C_R   0.351701 0.006570 0.597785 0.509051
C23   C     C_R   0.482517 0.552633 0.898029 -0.036590
C24   C     C_R   0.602003 0.981485 0.363105 0.497287
C25   C     C_1   0.782774 0.479096 0.509792 -0.181532
C26   C     C_1   0.217115 0.520185 0.489037 -0.196631
C27   C     C_2   0.971200 0.470012 0.518957 -0.167286
C28   C     C_2   0.028374 0.527552 0.478092 -0.156462
C29   C     C_1   0.131281 0.525371 0.482802 -0.002935
C30   C     C_1   0.868444 0.473043 0.515100 0.001313
C31   C     C_R   0.513149 0.593178 0.754849 -0.147908
C32   C     C_R   0.465433 0.407426 0.245430 -0.169373
C33   C     C_R   0.477486 0.708714 0.869970 -0.215097
C34   C     C_R   0.444952 0.445235 0.099746 -0.023024
C35   C     C_R   0.471459 0.290931 0.122006 -0.201215
C36   C     C_R   0.494219 0.682073 0.782613 -0.284294
C37   C     C_R   0.481840 0.319342 0.211789 -0.273934
C38   C     C_R   0.519722 0.533017 0.815358 0.406534
C39   C     C_R   0.432364 0.464545 0.189784 0.416072
C40   C     C_3   0.202057 0.198065 0.696579 0.108029
C41   C     C_3   0.200906 0.272577 0.775309 -0.361513
C42   C     C_3   0.106559 0.315894 0.771959 -0.958804
C43   C     C_3   0.665104 0.791004 0.209269 0.122954
C44   C     C_3   0.742858 0.807720 0.142979 -0.309339
C45   C     C_R   0.470162 0.644097 0.927638 0.139593
C46   C     C_3   0.704206 0.763338 0.050523 -0.971378
C47   C     C_3   0.289851 0.508244 0.244134 0.101250
C48   C     C_3   0.217728 0.503414 0.164397 -0.365429
C49   C     C_3   0.110431 0.479223 0.187069 -0.948099
C50   C     C_3   0.665370 0.474353 0.825566 0.083075
C51   C     C_3   0.732218 0.493048 0.751286 -0.331382
C52   C     C_3   0.841724 0.503652 0.781381 -0.961758
C53   C     C_3   0.296761 0.938799 0.716594 0.108966
C54   C     C_3   0.221877 0.851014 0.710588 -0.353698
C55   C     C_3   0.243493 0.796033 0.783038 -0.964802
C56   C     C_R   0.456136 0.353905 0.065703 0.108906
C57   C     C_3   0.744492 0.063401 0.321142 0.114433
C58   C     C_3   0.746552 0.140825 0.266053 -0.367227
C59   C     C_3   0.836110 0.215033 0.293499 -0.953793
C60   C     C_R   0.461772 0.485151 0.953011 0.063117
C61   C     C_R   0.450300 0.512774 0.043006 0.075186
C62   C     C_R   0.452083 0.607379 0.072945 -0.202401
H1    H     H_    0.998523 0.575845 0.441881 0.157982
H2    H     H_    0.481590 0.221719 0.096429 0.148960
H3    H     H_    0.454206 0.636468 0.140599 0.210394
H4    H     H_    0.442123 0.365291 0.850931 0.202064
H5    H     H_    0.459248 0.776408 0.535891 0.135840
H6    H     H_    0.533430 0.223288 0.458173 0.138322
H7    H     H_    0.655942 0.684032 0.358436 0.149902
H8    H     H_    0.357830 0.318709 0.651844 0.150313
H9    H     H_    0.138456 0.142975 0.698651 0.178488
H10   H     H_    0.189624 0.225943 0.634481 0.110435
H11   H     H_    0.205804 0.242283 0.836587 0.233909
H12   H     H_    0.001053 0.421826 0.555319 0.154578
H13   H     H_    0.266013 0.326860 0.776674 0.213552
H14   H     H_    0.101480 0.348640 0.712191 0.263333
H15   H     H_    0.107825 0.369092 0.830118 0.270108
H16   H     H_    0.040149 0.263253 0.772086 0.262821
H17   H     H_    0.597333 0.818619 0.189442 0.153983
H18   H     H_    0.646205 0.715807 0.208764 0.116120
H19   H     H_    0.764132 0.882604 0.143946 0.237408
H20   H     H_    0.810079 0.779073 0.161588 0.219134
H21   H     H_    0.680517 0.688597 0.048079 0.270559
H22   H     H_    0.763876 0.773859 0.004933 0.265377
H23   H     H_    0.359381 0.866754 0.559582 0.150048
H24   H     H_    0.640715 0.795134 0.028690 0.269722
H25   H     H_    0.270387 0.559377 0.297448 0.176485
H26   H     H_    0.280719 0.441432 0.269444 0.115001
H27   H     H_    0.227239 0.570653 0.140490 0.235572
H28   H     H_    0.234068 0.450638 0.111090 0.221180
H29   H     H_    0.098980 0.411453 0.209806 0.267387
H30   H     H_    0.059966 0.476137 0.128155 0.265839
H31   H     H_    0.091521 0.531949 0.239179 0.264656
H32   H     H_    0.682981 0.412086 0.850634 0.168724
H33   H     H_    0.682171 0.531684 0.881523 0.124139
H34   H     H_    0.565224 0.113887 0.375055 0.145591
H35   H     H_    0.715096 0.435420 0.696289 0.243377
H36   H     H_    0.717744 0.556780 0.727265 0.204230
H37   H     H_    0.860912 0.561761 0.835635 0.265582
H38   H     H_    0.887886 0.517429 0.726087 0.273112
H39   H     H_    0.858785 0.439901 0.803789 0.264431
H40   H     H_    0.290872 0.982409 0.780016 0.176311
H41   H     H_    0.373745 0.921818 0.717347 0.105875
H42   H     H_    0.145913 0.868845 0.715760 0.235260
H43   H     H_    0.224462 0.807970 0.646225 0.221497
H44   H     H_    0.317593 0.774683 0.776824 0.267842
H45   H     H_    0.451153 0.741414 0.040023 0.145813
H46   H     H_    0.186914 0.733725 0.777591 0.273985
H47   H     H_    0.241278 0.837500 0.848250 0.262734
H48   H     H_    0.811472 0.030253 0.309715 0.176540
H49   H     H_    0.749693 0.092690 0.392073 0.116060
H50   H     H_    0.749466 0.112516 0.195970 0.229799
H51   H     H_    0.677818 0.172057 0.273481 0.215194
H52   H     H_    0.833158 0.246108 0.362764 0.268065
H53   H     H_    0.835828 0.269582 0.251774 0.269228
H54   H     H_    0.906004 0.185768 0.285704 0.263496
H55   H     H_    0.451803 0.255492 0.948692 0.155204
H56   H     H_    0.502775 0.273002 0.254642 0.171537
H57   H     H_    0.491381 0.730320 0.736928 0.174485
H58   H     H_    0.466632 0.778605 0.891665 0.147041
N1    N     N_R   0.445040 0.272490 0.551770 -0.118619
N2    N     N_R   0.554960 0.727510 0.448230 -0.120137
O1    O     O_R   0.527700 0.614770 0.606110 -0.626364
O2    O     O_3   0.704844 0.835814 0.292683 -0.621251
O3    O     O_3   0.388312 0.538443 0.224349 -0.665854
O4    O     O_3   0.564729 0.456249 0.793230 -0.652229
O5    O     O_3   0.272264 0.987699 0.648731 -0.612014
O6    O     O_3   0.659916 0.996531 0.293667 -0.621779
O7    O     O_R   0.472300 0.385230 0.393890 -0.626155
O8    O     O_R   0.492440 0.468680 0.639380 -0.564859
O9    O     O_R   0.507560 0.531320 0.360620 -0.572868
O10   O     O_R   0.379820 0.583550 0.480950 -0.609216
O11   O     O_R   0.620180 0.416450 0.519050 -0.612736
O12   O     O_R   0.344560 0.437460 0.514220 -0.613282
O13   O     O_R   0.655440 0.562540 0.485780 -0.609842
O14   O     O_3   0.290281 0.159066 0.702636 -0.620968
Zn1   Zn    Zn3+2 0.523550 0.597550 0.477790 0.950022
Zn2   Zn    Zn3+2 0.476450 0.402450 0.522210 0.948171

loop_
_geom_bond_atom_site_label_1
_geom_bond_atom_site_label_2
_ccdc_geom_bond_type
C51   H35   S    
C5    O14   S    
C11   C18   A    
C34   C56   A    
C23   C45   A    
C40   H9    S    
C18   C21   A    
C33   C45   A    
C41   C42   S    
C19   C20   A    
C6    O2    S    
C16   O12   A    
C7    H8    S    
C57   C58   S    
C10   H5    S    
C40   O14   S    
C8    H7    S    
C58   H50   S    
C54   H42   S    
C28   C29   S    
C35   C37   A    
C49   H29   S    
C44   H20   S    
C37   H56   S    
C11   C14   A    
C2    C60   A    
C50   H33   S    
C43   H17   S    
C1    C31   S    
C33   C36   A    
C18   C19   A    
C32   C39   A    
C36   H57   S    
C33   H58   S    
C53   O5    S    
C6    C15   A    
O7    Zn2   S    
C57   H48   S    
C59   H54   S    
C17   O13   A    
C58   H51   S    
C9    N1    A    
C35   H2    S    
C50   O4    S    
C27   H12   S    
C62   H3    S    
C51   H36   S    
O11   Zn2   S    
C48   H28   S    
C4    C56   A    
C27   C30   S    
C7    N1    A    
C38   O4    S    
C44   C46   S    
C47   O3    S    
C16   C26   S    
C23   C60   A    
C52   H39   S    
C12   O7    A    
C13   C19   A    
C55   H44   S    
C51   C52   S    
C44   H19   S    
C12   O9    A    
C5    C7    A    
C50   H32   S    
C6    C8    A    
C3    H45   S    
C58   C59   S    
C53   C54   S    
C3    C45   A    
C34   C61   A    
C34   C39   A    
C60   C61   A    
C55   H47   S    
C47   H25   S    
N1    Zn2   S    
C2    C4    A    
C43   C44   S    
C1    O1    A    
O9    Zn1   S    
C41   H13   S    
C47   C48   S    
C53   H40   S    
C20   H23   S    
C50   C51   S    
C32   C37   A    
C9    C11   A    
C5    C14   A    
C42   H15   S    
C46   H22   S    
C15   C24   A    
C20   C22   A    
C42   H16   S    
C48   H27   S    
C13   C15   A    
C17   O11   A    
C57   O6    S    
C4    H55   S    
C49   H30   S    
O8    Zn2   S    
C39   O3    S    
C3    C62   A    
C25   C30   T    
O13   Zn1   S    
C54   C55   S    
C48   C49   S    
C40   H10   S    
C54   H43   S    
C35   C56   A    
N2    Zn1   S    
C10   N2    A    
C10   C13   A    
O12   Zn2   S    
C2    H4    S    
C21   H34   S    
C23   C38   A    
O1    Zn1   S    
C52   H37   S    
C42   H14   S    
C31   C38   A    
C55   H46   S    
C17   C25   S    
C47   H26   S    
C14   C22   A    
O10   Zn1   S    
C9    H6    S    
C8    N2    A    
C22   O5    S    
C57   H49   S    
C53   H41   S    
C59   H52   S    
C43   H18   S    
C52   H38   S    
C61   C62   A    
C16   O10   A    
C41   H11   S    
C46   H21   S    
C28   H1    S    
C26   C29   T    
C59   H53   S    
C21   C24   A    
C27   C28   D    
C24   O6    S    
C31   C36   A    
C1    O8    A    
C40   C41   S    
C49   H31   S    
C43   O2    S    
C12   C32   S    
C46   H24   S    
