data_mof_unit_35566.cif
_audit_creation_date              2012-12-11T14:08:34-0500
_audit_creation_method            fapswitch 2.2
_symmetry_space_group_name_H-M    P1
_symmetry_Int_Tables_number       1
_space_group_crystal_system       triclinic
_cell_length_a                    10.926905
_cell_length_b                    10.95465
_cell_length_c                    18.678445
_cell_angle_alpha                 90.300572
_cell_angle_beta                  89.612701
_cell_angle_gamma                 60.299594
_cell_volume                      1941.95442212

loop_
_atom_site_label
_atom_site_type_symbol
_atom_type_description
_atom_site_fract_x
_atom_site_fract_y
_atom_site_fract_z
_atom_type_partial_charge
C1    C     C_R   0.236399 0.645618 0.608847 0.544198
C2    C     C_2   0.784519 0.146575 0.705373 -0.178937
C3    C     C_2   0.181381 0.662687 0.681664 -0.122995
C4    C     C_R   0.650927 0.618865 0.603233 0.549199
C5    C     C_2   0.195813 0.662048 0.839412 -0.119630
C6    C     C_2   0.193174 0.560920 0.799886 -0.181004
C7    C     C_2   0.221423 0.548811 0.722767 -0.180602
C8    C     C_2   0.650735 0.646361 0.317317 -0.090439
C9    C     C_2   0.632937 0.665959 0.159777 -0.109909
C10   C     C_2   0.706023 0.546164 0.195321 -0.161963
C11   C     C_2   0.687506 0.537405 0.271924 -0.147929
C12   C     C_3   0.708046 0.521630 0.800554 0.150803
C13   C     C_2   0.674311 0.138139 0.333333 -0.111091
C14   C     C_2   0.651624 0.146518 0.179156 -0.097578
C15   C     C_2   0.608727 0.076078 0.221819 -0.152714
C16   C     C_R   0.628118 0.227171 0.601739 0.545801
C17   C     C_2   0.592311 0.100485 0.298262 -0.163457
C18   C     C_2   0.122066 0.680816 0.345244 -0.106507
C19   C     C_2   0.112751 0.691523 0.190843 -0.089228
C20   C     C_2   0.042288 0.804366 0.234474 -0.146850
C21   C     C_2   0.074813 0.799958 0.309696 -0.165796
C22   C     C_R   0.703821 0.101580 0.897382 0.553999
C23   C     C_3   0.694969 0.668201 0.815395 0.064658
C24   C     C_R   0.719966 0.685042 0.890482 0.570861
C25   C     C_R   0.119557 0.706100 0.907490 0.548760
C26   C     C_R   0.675396 0.105638 0.105040 0.550698
C27   C     C_R   0.692063 0.688795 0.094764 0.552884
C28   C     C_R   0.215568 0.651264 0.404641 0.558839
C29   C     C_R   0.086086 0.713618 0.115398 0.552996
C30   C     C_R   0.641814 0.621234 0.392734 0.552687
C31   C     C_R   0.621305 0.222815 0.397378 0.555067
C32   C     C_3   0.544949 0.782804 0.791762 -0.288808
C33   C     C_3   0.527361 0.766288 0.711394 -0.254547
C34   C     C_3   0.664871 0.641352 0.679375 0.024523
C35   C     C_3   0.801670 0.692349 0.770242 -0.227990
C36   C     C_3   0.952590 0.338965 0.800253 0.015263
C37   C     C_3   0.070090 0.272714 0.854792 -0.354609
C38   C     C_3   0.788572 0.669198 0.690315 -0.261342
C39   C     C_3   0.694777 0.504393 0.719434 -0.195834
C40   C     C_2   0.674595 0.154251 0.669978 -0.126019
C41   C     C_2   0.691307 0.164035 0.827148 -0.082105
C42   C     C_2   0.802826 0.113482 0.782219 -0.149670
Cr1   Cr    Cr6+3 0.393010 0.398050 0.501480 1.016808
Cr2   Cr    Cr6+3 0.398820 0.707980 0.501630 1.016221
Cr3   Cr    Cr6+3 0.708140 0.393940 0.496850 1.009653
Cr4   Cr    Cr6+3 0.937950 0.938450 0.008940 1.021520
Cr5   Cr    Cr6+3 0.626180 0.937030 0.994750 1.009564
Cr6   Cr    Cr6+3 0.937790 0.625760 0.001410 1.019842
H1    H     H_    0.528435 0.890327 0.801635 0.152364
H2    H     H_    0.275710 0.443560 0.699715 0.156242
H3    H     H_    0.233806 0.728209 0.816362 0.098000
H4    H     H_    0.462442 0.774084 0.822921 0.103691
H5    H     H_    0.124882 0.767967 0.704628 0.102641
H6    H     H_    0.792045 0.454124 0.169570 0.154548
H7    H     H_    0.717657 0.433468 0.292220 0.149764
H8    H     H_    0.541564 0.755216 0.184101 0.104102
H9    H     H_    0.619356 0.751669 0.299044 0.087412
H10   H     H_    0.578140 0.003049 0.199875 0.151554
H11   H     H_    0.501383 0.102872 0.323677 0.156047
H12   H     H_    0.789849 0.413160 0.696665 0.137486
H13   H     H_    0.683133 0.219686 0.199632 0.084711
H14   H     H_    0.770048 0.126897 0.308924 0.094497
H15   H     H_    0.970270 0.907444 0.213047 0.156664
H16   H     H_    0.436905 0.747625 0.703901 0.144073
H17   H     H_    0.078202 0.889770 0.332398 0.152227
H18   H     H_    0.186166 0.587165 0.210007 0.093937
H19   H     H_    0.109877 0.594906 0.323916 0.113037
H20   H     H_    0.502314 0.865400 0.683439 0.133631
H21   H     H_    0.779761 0.802238 0.778536 0.120377
H22   H     H_    0.770490 0.763750 0.659890 0.120368
H23   H     H_    0.911585 0.625246 0.787839 0.137519
H24   H     H_    0.611815 0.527868 0.825038 0.124578
H25   H     H_    0.606783 0.482506 0.710051 0.098255
H26   H     H_    0.971665 0.409969 0.766213 0.113142
H27   H     H_    0.960046 0.252630 0.766033 0.121445
H28   H     H_    0.056623 0.195938 0.887720 0.161392
H29   H     H_    0.173719 0.217044 0.826705 0.076303
H30   H     H_    0.068747 0.354635 0.890473 0.175448
H31   H     H_    0.888718 0.578858 0.669983 0.128422
H32   H     H_    0.908707 0.044438 0.801419 0.144023
H33   H     H_    0.859807 0.168307 0.678403 0.136092
H34   H     H_    0.585877 0.233814 0.807547 0.098712
H35   H     H_    0.605383 0.123011 0.696229 0.102774
H36   H     H_    0.162136 0.489722 0.823231 0.141709
O1    O     O_R   0.507110 0.256280 0.580300 -0.523796
O2    O     O_R   0.837080 0.593860 0.915300 -0.480640
O3    O     O_R   0.064770 0.636080 0.932550 -0.508197
O4    O     O_R   0.280830 0.527190 0.577940 -0.500404
O5    O     O_R   0.068250 0.829200 0.092940 -0.515339
O6    O     O_R   0.799650 0.057040 0.080330 -0.502828
O7    O     O_R   0.586130 0.079760 0.077080 -0.510343
O8    O     O_R   0.627700 0.809630 0.066580 -0.504741
O9    O     O_R   0.816140 0.597180 0.075920 -0.508336
O10   O     O_R   0.045360 0.639170 0.081440 -0.494735
O11   O     O_3   0.833980 0.833750 0.001700 -0.255236
O12   O     O_R   0.524640 0.695370 0.425100 -0.492187
O13   O     O_R   0.261360 0.738990 0.584270 -0.523976
O14   O     O_R   0.532590 0.694780 0.574370 -0.507119
O15   O     O_R   0.744470 0.503750 0.577000 -0.531546
O16   O     O_R   0.698520 0.277230 0.571620 -0.502012
O17   O     O_R   0.498530 0.256920 0.419280 -0.510833
O18   O     O_R   0.272880 0.527780 0.428680 -0.498709
O19   O     O_R   0.252780 0.739630 0.423250 -0.511356
O20   O     O_3   0.820764 0.405672 0.836487 -0.536350
O21   O     O_R   0.735890 0.504390 0.415980 -0.512152
O22   O     O_R   0.690560 0.277820 0.422350 -0.507358
O23   O     O_3   0.499990 0.499990 0.499980 -0.248948
O24   O     O_R   0.089190 0.825870 0.932320 -0.520952
O25   O     O_R   0.819070 0.053960 0.931440 -0.487358
O26   O     O_R   0.607070 0.076440 0.916460 -0.525057
O27   O     O_R   0.647110 0.806550 0.917690 -0.523972

loop_
_geom_bond_atom_site_label_1
_geom_bond_atom_site_label_2
_ccdc_geom_bond_type
C38   H22   S    
C42   H32   S    
Cr6   O11   S    
C4    O14   A    
C18   C21   D    
C41   C42   D    
C19   C20   D    
C29   O5    A    
C4    O15   A    
Cr4   O5    S    
C12   C23   S    
C33   H20   S    
Cr6   O10   S    
Cr1   O4    S    
C31   O17   A    
C36   C37   S    
C12   O20   S    
C3    C7    D    
C33   H16   S    
C29   O10   A    
C22   C41   S    
C38   H31   S    
C41   H34   S    
C25   O3    A    
C19   H18   S    
Cr5   O8    S    
C32   H4    S    
C30   O12   A    
Cr2   O14   S    
C13   H14   S    
C22   O26   A    
Cr4   O24   S    
C23   C24   S    
C9    C10   D    
C1    O4    A    
C12   H24   S    
C35   H23   S    
C20   H15   S    
C40   H35   S    
C24   O27   A    
Cr2   O19   S    
Cr3   O21   S    
C4    C34   S    
C6    H36   S    
Cr6   O9    S    
Cr4   O11   S    
C34   C39   S    
Cr1   O1    S    
C35   C38   S    
C18   C28   S    
Cr3   O15   S    
C1    O13   A    
C16   O16   A    
C26   O7    A    
C14   H13   S    
C37   H29   S    
C1    C3    S    
Cr1   O17   S    
Cr2   O12   S    
C36   H27   S    
C2    C40   D    
C8    H9    S    
Cr2   O13   S    
C22   O25   A    
C33   C34   S    
Cr6   O3    S    
C27   O8    A    
C9    H8    S    
Cr1   O23   S    
C14   C26   S    
C36   H26   S    
C17   H11   S    
C5    C25   S    
C37   H28   S    
C16   C40   S    
C23   C35   S    
C30   O21   A    
C16   O1    A    
C15   H10   S    
Cr6   O2    S    
C27   O9    A    
C19   C29   S    
C11   H7    S    
Cr3   O22   S    
C9    C27   S    
Cr2   O23   S    
C15   C17   S    
C21   H17   S    
C34   C38   S    
Cr5   O7    S    
C13   C31   S    
C7    H2    S    
Cr3   O16   S    
C6    C7    S    
Cr4   O6    S    
C26   O6    A    
Cr5   O26   S    
C37   H30   S    
C13   C17   D    
C36   O20   S    
C8    C30   S    
C23   C32   S    
C12   C39   S    
C18   H19   S    
Cr1   O18   S    
C32   C33   S    
C3    H5    S    
C28   O19   A    
C5    C6    D    
C2    C42   S    
C8    C11   D    
Cr5   O27   S    
C39   H12   S    
C31   O22   A    
C39   H25   S    
C10   H6    S    
C32   H1    S    
C10   C11   S    
C28   O18   A    
C20   C21   S    
C35   H21   S    
Cr4   O25   S    
Cr5   O11   S    
C14   C15   D    
C5    H3    S    
C2    H33   S    
C24   O2    A    
Cr3   O23   S    
C25   O24   A    
