data_mof_unit_14283.cif
_audit_creation_date              2012-12-11T17:43:37-0500
_audit_creation_method            fapswitch 2.2
_symmetry_space_group_name_H-M    P1
_symmetry_Int_Tables_number       1
_space_group_crystal_system       triclinic
_cell_length_a                    15.020126
_cell_length_b                    15.260696
_cell_length_c                    16.865994
_cell_angle_alpha                 108.77908
_cell_angle_beta                  107.226895
_cell_angle_gamma                 108.623037
_cell_volume                      3106.74343002

loop_
_atom_site_label
_atom_site_type_symbol
_atom_type_description
_atom_site_fract_x
_atom_site_fract_y
_atom_site_fract_z
_atom_type_partial_charge
C1    C     C_R   0.088047 0.290001 0.077924 -0.159533
C2    C     C_R   0.089737 0.093858 0.057439 -0.236367
C3    C     C_R   0.670843 0.751157 0.518312 -0.153022
C4    C     C_R   0.668738 0.665254 0.532336 -0.125248
C5    C     C_R   0.657262 0.656988 0.609169 -0.103467
C6    C     C_R   0.645462 0.733631 0.671249 -0.112842
C7    C     C_R   0.644742 0.818329 0.656248 -0.127451
C8    C     C_R   0.001735 0.920463 0.036042 0.068047
C9    C     C_R   0.003380 0.108860 0.058878 0.060371
C10   C     C_R   0.088010 0.999216 0.041230 0.016503
C11   C     C_R   0.917144 0.031569 0.055747 0.024595
C12   C     C_R   0.721566 0.962663 0.986642 -0.166468
C13   C     C_R   0.276154 0.038584 0.087121 -0.196473
C14   C     C_R   0.643500 0.073810 0.034775 -0.101288
C15   C     C_R   0.330547 0.959425 0.973623 -0.103381
C16   C     C_R   0.514804 0.526825 0.262297 -0.131822
C17   C     C_R   0.908891 0.722398 0.962249 -0.138215
C18   C     C_R   0.492104 0.342719 0.629586 -0.111705
C19   C     C_R   0.493112 0.512805 0.171519 -0.122831
C20   C     C_R   0.487728 0.344747 0.711670 -0.145779
C21   C     C_R   0.934084 0.521057 0.746524 -0.146077
C22   C     C_R   0.065721 0.549802 0.266034 -0.133778
C23   C     C_R   0.437601 0.412099 0.096242 0.105271
C24   C     C_R   0.472464 0.422949 0.769097 0.121023
C25   C     C_R   0.404502 0.325546 0.113038 -0.195385
C26   C     C_R   0.462596 0.499495 0.743041 -0.176379
C27   C     C_R   0.424501 0.340255 0.204011 -0.113794
C28   C     C_R   0.024861 0.581463 0.745532 0.060182
C29   C     C_R   0.466853 0.496927 0.660681 -0.122326
C30   C     C_R   0.479772 0.440834 0.278642 -0.108278
C31   C     C_R   0.481451 0.418516 0.603906 -0.100580
C32   C     C_R   0.495462 0.370137 0.977110 -0.222739
C33   C     C_R   0.380950 0.436826 0.870514 -0.238036
C34   C     C_R   0.525728 0.397460 0.914304 0.047556
C35   C     C_R   0.368338 0.433592 0.948831 0.066658
C36   C     C_R   0.461337 0.420725 0.853089 0.027776
C37   C     C_R   0.425862 0.398040 0.002057 0.019117
C38   C     C_R   0.632808 0.977991 0.977303 -0.115659
C39   C     C_R   0.973648 0.535687 0.275319 0.060052
C40   C     C_R   0.355302 0.025928 0.064905 -0.120626
C41   C     C_R   0.966030 0.582921 0.362339 0.126250
C42   C     C_R   0.033963 0.624123 0.680089 0.133513
C43   C     C_R   0.140964 0.689731 0.610154 -0.234256
C44   C     C_R   0.861181 0.576817 0.447212 -0.231110
C45   C     C_R   0.775825 0.204537 0.808732 -0.126708
C46   C     C_R   0.284158 0.780839 0.180244 -0.142874
C47   C     C_R   0.132803 0.671440 0.683301 -0.205518
C48   C     C_R   0.867940 0.557700 0.363295 -0.177762
C49   C     C_R   0.944434 0.607281 0.607541 -0.301666
C50   C     C_R   0.760696 0.200760 0.720993 0.068856
C51   C     C_R   0.057355 0.642018 0.447150 -0.285657
C52   C     C_R   0.951579 0.616658 0.529622 0.189776
C53   C     C_R   0.050634 0.654217 0.530021 0.199128
C54   C     C_R   0.731344 0.107608 0.634181 0.055998
C55   C     C_R   0.454934 0.836395 0.325108 0.055712
C56   C     C_R   0.614738 0.987001 0.370694 -0.000251
C57   C     C_R   0.661706 0.919905 0.565340 -0.000146
C58   C     C_R   0.517943 0.904171 0.302172 -0.257828
C59   C     C_R   0.725329 0.017839 0.642304 -0.252311
C60   C     C_R   0.503260 0.834705 0.411703 -0.073612
C61   C     C_R   0.340562 0.774407 0.259696 0.076227
C62   C     C_R   0.702765 0.101206 0.543142 -0.065188
C63   C     C_R   0.606970 0.913670 0.477461 0.027943
C64   C     C_R   0.647731 0.001317 0.463713 0.033392
C65   C     C_R   0.742503 0.153261 0.103366 -0.104502
C66   C     C_R   0.226815 0.905888 0.904508 -0.125829
C67   C     C_R   0.830856 0.136462 0.116618 -0.136722
C68   C     C_R   0.147236 0.917408 0.926513 -0.117539
C69   C     C_R   0.265960 0.539370 0.955424 -0.133192
C70   C     C_R   0.697647 0.399388 0.989531 -0.138339
C71   C     C_R   0.822010 0.042624 0.055378 0.114214
C72   C     C_R   0.296922 0.468432 0.974756 0.050185
C73   C     C_R   0.171436 0.983598 0.018187 0.114098
C74   C     C_R   0.782020 0.301075 0.733768 -0.143672
C75   C     C_R   0.274101 0.683995 0.253272 -0.142293
C76   C     C_R   0.252217 0.439861 0.028666 -0.119226
C77   C     C_R   0.701811 0.496747 0.916185 -0.131024
C78   C     C_R   0.107431 0.603609 0.824698 -0.136752
C79   C     C_R   0.890739 0.463959 0.187757 -0.147564
C80   C     C_R   0.914797 0.202297 0.993823 -0.138457
C81   C     C_R   0.084110 0.804802 0.046801 -0.113048
C82   C     C_R   0.001070 0.197283 0.045638 0.060255
C83   C     C_R   0.636101 0.427929 0.935393 0.058962
C84   C     C_R   0.996842 0.819774 0.019452 0.048866
C85   C     C_R   0.706701 0.191777 0.527679 0.130650
C86   C     C_R   0.614312 0.201481 0.496710 -0.162898
C87   C     C_R   0.615093 0.282665 0.475316 -0.136583
C88   C     C_R   0.707699 0.354100 0.484448 -0.105834
C89   C     C_R   0.799947 0.344677 0.514935 -0.101583
C90   C     C_R   0.799941 0.264207 0.537318 -0.144159
C91   C     C_R   0.441660 0.776323 0.448500 0.127316
C92   C     C_R   0.414554 0.830219 0.514324 -0.123926
C93   C     C_R   0.377129 0.785446 0.565345 -0.149992
C94   C     C_R   0.919109 0.938137 0.046200 -0.243212
C95   C     C_R   0.362608 0.684825 0.548782 -0.113717
C96   C     C_R   0.386779 0.629449 0.481736 -0.083921
C97   C     C_R   0.428067 0.675709 0.433094 -0.171828
C98   C     C_R   0.679127 0.057797 0.344490 0.156131
C99   C     C_R   0.785026 0.080690 0.370973 -0.158972
C100  C     C_R   0.849844 0.157635 0.357434 -0.115924
C101  C     C_R   0.809540 0.212432 0.318056 -0.078080
C102  C     C_R   0.703119 0.186780 0.287682 -0.083504
C103  C     C_R   0.637606 0.108643 0.299524 -0.127605
C104  C     C_R   0.657220 0.827691 0.579309 0.168732
H1    H     H_    0.166601 0.317022 0.129645 0.103684
H2    H     H_    0.494312 0.284200 0.729492 0.113138
H3    H     H_    0.363591 0.247231 0.055892 0.131141
H4    H     H_    0.451515 0.561067 0.786250 0.104134
H5    H     H_    0.398556 0.273859 0.217003 0.104841
H6    H     H_    0.458147 0.555382 0.640587 0.112672
H7    H     H_    0.540056 0.346629 0.021499 0.123565
H8    H     H_    0.330399 0.455106 0.824921 0.126364
H9    H     H_    0.134016 0.666975 0.448638 0.133349
H10   H     H_    0.868147 0.575278 0.606065 0.123261
H11   H     H_    0.795897 0.517021 0.299310 0.122328
H12   H     H_    0.828174 0.705603 0.926226 0.097338
H13   H     H_    0.204171 0.688258 0.738803 0.111481
H14   H     H_    0.217113 0.720469 0.612277 0.125562
H15   H     H_    0.784787 0.550735 0.445450 0.116337
H16   H     H_    0.854945 0.502426 0.702824 0.102882
H17   H     H_    0.145388 0.600324 0.319293 0.110288
H18   H     H_    0.556089 0.916610 0.923620 0.099136
H19   H     H_    0.435759 0.067844 0.118292 0.105075
H20   H     H_    0.764837 0.022791 0.709751 0.130026
H21   H     H_    0.489658 0.897273 0.232456 0.128710
H22   H     H_    0.575375 0.087044 0.025685 0.095302
H23   H     H_    0.712135 0.889909 0.937793 0.105243
H24   H     H_    0.391648 0.949606 0.956210 0.095355
H25   H     H_    0.750920 0.228410 0.145886 0.096720
H26   H     H_    0.208258 0.856213 0.833716 0.123054
H27   H     H_    0.907001 0.199159 0.170266 0.109735
H28   H     H_    0.067144 0.875575 0.872259 0.117162
H29   H     H_    0.763996 0.140376 0.824952 0.092729
H30   H     H_    0.316374 0.833491 0.154555 0.096468
H31   H     H_    0.286833 0.577915 0.915254 0.093791
H32   H     H_    0.671636 0.335316 0.005458 0.087856
H33   H     H_    0.778991 0.331573 0.684951 0.131158
H34   H     H_    0.295846 0.089749 0.158104 0.109508
H35   H     H_    0.294788 0.640082 0.286723 0.111825
H36   H     H_    0.253325 0.382150 0.051703 0.117005
H37   H     H_    0.679197 0.528317 0.869211 0.108081
H38   H     H_    0.187862 0.661831 0.854986 0.088345
H39   H     H_    0.807895 0.434771 0.168303 0.094665
H40   H     H_    0.833433 0.146892 0.963010 0.114979
H41   H     H_    0.164750 0.861854 0.092705 0.114471
H42   H     H_    0.854728 0.877755 0.044147 0.129948
H43   H     H_    0.154247 0.151744 0.057147 0.132631
H44   H     H_    0.541606 0.145047 0.487645 0.110083
H45   H     H_    0.496290 0.452039 0.349134 0.095828
H46   H     H_    0.543590 0.289320 0.450262 0.101117
H47   H     H_    0.706902 0.415578 0.466554 0.093407
H48   H     H_    0.871039 0.398153 0.519495 0.128809
H49   H     H_    0.871449 0.256989 0.560307 0.119221
H50   H     H_    0.428242 0.909323 0.529881 0.109978
H51   H     H_    0.362352 0.830523 0.619420 0.107532
H52   H     H_    0.334357 0.650290 0.588840 0.100510
H53   H     H_    0.376740 0.552063 0.469583 0.102669
H54   H     H_    0.450454 0.633884 0.384259 0.114271
H55   H     H_    0.818068 0.041606 0.405041 0.113279
H56   H     H_    0.484071 0.416307 0.539875 0.091859
H57   H     H_    0.931943 0.176828 0.379908 0.111496
H58   H     H_    0.860815 0.274738 0.310982 0.098216
H59   H     H_    0.671849 0.229096 0.256951 0.094564
H60   H     H_    0.556297 0.092303 0.278900 0.098850
H61   H     H_    0.682830 0.758115 0.459982 0.105600
H62   H     H_    0.675708 0.604948 0.483532 0.098040
H63   H     H_    0.657609 0.591237 0.620546 0.106394
H64   H     H_    0.636408 0.727241 0.730785 0.102426
H65   H     H_    0.633899 0.876199 0.704327 0.102488
H66   H     H_    0.559950 0.604480 0.319827 0.106338
H67   H     H_    0.502208 0.281310 0.585378 0.111792
H68   H     H_    0.521782 0.580130 0.160030 0.113900
N1    N     N_R   0.055660 0.348550 0.045620 -0.038277
N2    N     N_R   0.185200 0.638170 0.176300 -0.042129
N3    N     N_R   0.201680 0.494570 0.045620 -0.043151
N4    N     N_R   0.798320 0.505430 0.954380 -0.040295
N5    N     N_R   0.068420 0.560530 0.871650 -0.037026
N6    N     N_R   0.931580 0.439470 0.128350 -0.038288
N7    N     N_R   0.948070 0.295860 0.997670 -0.038580
N8    N     N_R   0.051930 0.704140 0.002330 -0.041235
N9    N     N_R   0.944340 0.651450 0.954380 -0.040043
N10   N     N_R   0.960830 0.507850 0.823700 -0.040590
N11   N     N_R   0.039170 0.492150 0.176300 -0.041542
N12   N     N_R   0.811290 0.303410 0.871650 -0.041063
N13   N     N_R   0.188710 0.696590 0.128350 -0.040466
N14   N     N_R   0.205200 0.552990 0.997670 -0.039510
N15   N     N_R   0.794800 0.447010 0.002330 -0.037962
N16   N     N_R   0.814800 0.361830 0.823700 -0.042942
Ni1   Ni    Ni4+2 0.119340 0.493420 0.109960 0.212544
Ni2   Ni    Ni4+2 0.880660 0.506580 0.890040 0.213638
Ni3   Ni    Ni4+2 0.872590 0.372590 0.000000 0.212201
Ni4   Ni    Ni4+2 0.127410 0.627410 0.000000 0.215679

loop_
_geom_bond_atom_site_label_1
_geom_bond_atom_site_label_2
_ccdc_geom_bond_type
C3    C104  A    
C94   H42   S    
C66   C68   A    
C87   C88   A    
C101  C102  A    
C32   H7    S    
C99   H55   S    
C78   N5    A    
C95   C96   A    
C56   C98   S    
C72   C76   A    
C39   C41   S    
C12   H23   S    
C18   H67   S    
C61   C75   A    
C1    N1    A    
C103  H60   S    
C51   H9    S    
N4    N15   A    
C60   C63   A    
C101  H58   S    
C35   C37   A    
C24   C26   A    
C21   H16   S    
C50   C74   A    
N2    N13   A    
C5    C6    A    
C10   C73   S    
C11   C71   S    
C57   C59   A    
C67   C71   A    
C14   C38   A    
C77   C83   A    
C16   C30   A    
C98   C103  A    
C33   C36   A    
C18   C20   A    
N16   Ni2   S    
C95   H52   S    
N1    Ni1   S    
C68   H28   S    
C92   C93   A    
C13   C40   A    
C62   C64   A    
C43   C53   A    
C89   H48   S    
C79   H39   S    
C20   C24   A    
C4    H62   S    
C102  H59   S    
C80   H40   S    
C87   H46   S    
C56   C64   A    
C3    H61   S    
C100  H57   S    
C28   C78   A    
N15   Ni3   S    
N6    N11   A    
C9    C82   S    
C44   C52   A    
C5    H63   S    
C96   H53   S    
C92   H50   S    
C69   H31   S    
N5    Ni4   S    
C55   C60   A    
C27   C30   A    
C70   H32   S    
N11   Ni1   S    
C62   C85   S    
C57   C63   A    
C74   N16   A    
C54   C59   A    
C76   H36   S    
C21   N10   A    
C74   H33   S    
C6    H64   S    
N12   Ni3   S    
C46   C61   A    
N13   Ni4   S    
C80   N7    A    
C29   H6    S    
C93   H51   S    
C8    C94   A    
C19   H68   S    
C80   C82   A    
N8    Ni4   S    
C26   H4    S    
C91   C92   A    
C20   H2    S    
C86   C87   A    
C30   H45   S    
N2    Ni1   S    
C44   H15   S    
C65   C67   A    
C68   C73   A    
C85   C86   A    
C15   C66   A    
N12   N16   A    
C51   C53   A    
C32   C34   A    
C69   C72   A    
C19   C23   A    
N14   Ni4   S    
C22   N11   A    
C17   N9    A    
C46   H30   S    
N9    Ni2   S    
N4    Ni2   S    
C99   C100  A    
C49   C52   A    
C96   C97   A    
C45   N12   A    
C79   N6    A    
C33   H8    S    
C50   C54   S    
C32   C37   A    
C91   C97   A    
C90   H49   S    
C70   C83   A    
C9    C11   A    
C38   H18   S    
C70   N15   A    
C26   C29   A    
C48   H11   S    
C11   C94   A    
C8    C10   A    
C12   C71   A    
C13   C73   A    
C35   C72   S    
C77   N4    A    
C81   H41   S    
C7    C104  A    
C7    H65   S    
C41   C48   A    
C88   H47   S    
C34   C83   S    
C3    C4    A    
C2    C10   A    
C81   C84   A    
C52   C53   A    
C25   H3    S    
C22   H17   S    
C60   C91   S    
C59   H20   S    
C40   H19   S    
C8    C84   S    
C21   C28   A    
C76   N3    A    
C67   H27   S    
C31   H56   S    
C81   N8    A    
C4    C5    A    
C86   H44   S    
N3    Ni1   S    
C65   H25   S    
C85   C90   A    
C6    C7    A    
C25   C27   A    
C54   C62   A    
C45   H29   S    
C14   H22   S    
C24   C36   S    
C15   H24   S    
C17   C84   A    
C97   H54   S    
C78   H38   S    
C2    H43   S    
C29   C31   A    
C44   C48   A    
C23   C37   S    
C13   H34   S    
N3    N14   A    
N6    Ni3   S    
C1    C82   A    
C45   C50   A    
C16   C19   A    
C22   C39   A    
C55   C61   S    
C28   C42   S    
C100  C101  A    
C33   C35   A    
C14   C65   A    
C56   C58   A    
C57   C104  S    
C49   H10   S    
C34   C36   A    
C42   C47   A    
C23   C25   A    
C46   N13   A    
C12   C38   A    
C102  C103  A    
C77   H37   S    
C15   C40   A    
C43   H14   S    
C63   C64   A    
C16   H66   S    
C47   H13   S    
N7    Ni3   S    
C88   C89   A    
C27   H5    S    
C58   H21   S    
C93   C95   A    
C98   C99   A    
C55   C58   A    
C1    H1    S    
N1    N7    A    
C75   H35   S    
C18   C31   A    
N10   Ni2   S    
C66   H26   S    
C42   C49   A    
C89   C90   A    
C2    C9    A    
C43   C47   A    
C69   N14   A    
C41   C51   A    
N8    N9    A    
N5    N10   A    
C17   H12   S    
C39   C79   A    
C75   N2    A    
