data_mof_unit_67690.cif
_audit_creation_date              2012-12-10T19:48:30-0500
_audit_creation_method            fapswitch 2.2
_symmetry_space_group_name_H-M    P1
_symmetry_Int_Tables_number       1
_space_group_crystal_system       triclinic
_cell_length_a                    11.155868
_cell_length_b                    10.641347
_cell_length_c                    9.508218
_cell_angle_alpha                 90.464735
_cell_angle_beta                  89.953908
_cell_angle_gamma                 91.601282
_cell_volume                      1128.27538664

loop_
_atom_site_label
_atom_site_type_symbol
_atom_type_description
_atom_site_fract_x
_atom_site_fract_y
_atom_site_fract_z
_atom_type_partial_charge
C1    C     C_R   0.499305 0.259771 0.499345 0.816272
C2    C     C_R   0.497439 0.740100 0.500518 0.821747
C3    C     C_R   0.872154 0.502316 0.504894 -0.220691
C4    C     C_R   0.128195 0.505888 0.492218 -0.194915
C5    C     C_R   0.942056 0.575302 0.601981 -0.103971
C6    C     C_R   0.058175 0.434336 0.393829 -0.122728
C7    C     C_3   0.558517 0.043244 0.607577 0.595649
C8    C     C_3   0.433841 0.956519 0.391512 0.593605
C9    C     C_3   0.610606 0.960391 0.490718 -0.340964
C10   C     C_3   0.381977 0.039638 0.508556 -0.339075
C11   C     C_3   0.495649 0.877014 0.501537 -0.094704
C12   C     C_3   0.497183 0.122735 0.497617 -0.089500
C13   C     C_3   0.444564 0.959003 0.620676 -0.270634
C14   C     C_3   0.547923 0.040613 0.378469 -0.273850
C15   C     C_3   0.527034 0.608889 0.048775 0.049592
C16   C     C_3   0.473382 0.390809 0.950775 0.005376
C17   C     C_3   0.423126 0.575717 0.951851 0.067012
C18   C     C_3   0.576692 0.423251 0.048639 0.053671
C19   C     C_3   0.604325 0.532928 0.947024 -0.167666
C20   C     C_3   0.396086 0.465743 0.053169 -0.067471
C21   C     C_R   0.262328 0.500850 0.498385 0.851685
C22   C     C_R   0.737733 0.502604 0.501326 0.824317
C23   C     C_R   0.130557 0.444613 0.010519 -0.294355
C24   C     C_R   0.876814 0.527791 0.984667 -0.325597
C25   C     C_R   0.127088 0.482382 0.152320 0.487127
C26   C     C_R   0.894966 0.502737 0.840722 0.531289
C27   C     C_R   0.104921 0.391278 0.256254 0.030691
C28   C     C_R   0.897737 0.602611 0.745158 0.055668
C29   C     C_R   0.095519 0.263522 0.217802 -0.253680
C30   C     C_R   0.880526 0.725993 0.792881 -0.278438
C31   C     C_R   0.104454 0.224390 0.077122 0.518202
C32   C     C_R   0.860271 0.751696 0.936129 0.524991
C33   C     C_R   0.121709 0.317508 0.973085 -0.249545
C34   C     C_R   0.855704 0.650114 0.031323 -0.348472
C35   C     C_R   0.932319 0.425159 0.409353 0.433782
C36   C     C_R   0.067855 0.584144 0.586869 0.450425
Cu1   Cu    Cu3+1 0.500030 0.499990 0.643150 0.963424
Cu2   Cu    Cu3+1 0.499970 0.500010 0.356850 0.994417
H1    H     H_    0.131836 0.294099 0.863004 0.192793
H2    H     H_    0.833146 0.663021 0.140804 0.170683
H3    H     H_    0.678323 0.575151 0.887564 0.162024
H4    H     H_    0.328419 0.407530 0.107067 0.143468
H5    H     H_    0.150269 0.512994 0.929702 0.207621
H6    H     H_    0.876539 0.452526 0.060339 0.213606
H7    H     H_    0.077832 0.193562 0.297761 0.155092
H8    H     H_    0.885327 0.802864 0.718953 0.144214
H9    H     H_    0.703558 0.925861 0.486334 0.134359
H10   H     H_    0.289179 0.074540 0.513306 0.138919
H11   H     H_    0.403381 0.923576 0.719199 0.178634
H12   H     H_    0.588754 0.074708 0.279380 0.187467
N1    N     N_3   0.500090 0.499970 0.858290 -0.210877
N2    N     N_3   0.499910 0.500030 0.141710 -0.200275
O1    O     O_R   0.500060 0.316850 0.620870 -0.550185
O2    O     O_R   0.499940 0.683150 0.379130 -0.546065
O3    O     O_R   0.500000 0.316860 0.379090 -0.600262
O4    O     O_R   0.500000 0.683140 0.620910 -0.600407
O5    O     O_R   0.319670 0.500010 0.620890 -0.566559
O6    O     O_R   0.680330 0.499990 0.379110 -0.557852
O7    O     O_R   0.319620 0.500010 0.379110 -0.546565
O8    O     O_R   0.680380 0.499990 0.620890 -0.601513
C37   C     C_1   0.344274 0.674446 0.905094 0.329918
N3    N     N_1   0.283064 0.755165 0.873263 -0.298236
C38   C     C_1   0.651102 0.323495 0.101575 0.276224
N4    N     N_1   0.707886 0.241700 0.140428 -0.309964
C39   C     C_1   0.561668 0.735080 0.098942 0.314392
N5    N     N_1   0.589274 0.835329 0.136266 -0.291897
C40   C     C_1   0.433091 0.266639 0.899257 0.284337
N6    N     N_1   0.399567 0.168654 0.860520 -0.321728
O9    O     O_3   0.182049 0.595436 0.191685 -0.557728
C41   C     C_3   0.103289 0.693904 0.176679 -0.320884
H13   H     H_    0.020893 0.677357 0.240331 0.139352
H14   H     H_    0.084946 0.710230 0.063737 0.197093
H15   H     H_    0.147582 0.780674 0.218966 0.215275
O10   O     O_3   0.924248 0.384479 0.791201 -0.612751
C42   C     C_3   0.836202 0.293694 0.828255 -0.318475
H16   H     H_    0.743428 0.328754 0.819952 0.205883
H17   H     H_    0.854894 0.257603 0.934636 0.197239
H18   H     H_    0.842653 0.213424 0.753957 0.201319
O11   O     O_3   0.095072 0.095071 0.051555 -0.618052
C43   C     C_3   0.091374 0.060924 0.907917 -0.344477
H19   H     H_    0.177095 0.085665 0.854520 0.178995
H20   H     H_    0.013878 0.102563 0.854126 0.185619
H21   H     H_    0.079459 0.957285 0.899882 0.219111
O12   O     O_3   0.836597 0.875319 0.973379 -0.611928
C44   C     C_3   0.872926 0.908468 0.111189 -0.305064
H22   H     H_    0.968636 0.889361 0.128541 0.181005
H23   H     H_    0.815485 0.862882 0.192197 0.159762
H24   H     H_    0.862886 0.011252 0.124752 0.223955
O13   O     O_3   0.868503 0.334479 0.333622 -0.565973
C45   C     C_3   0.846714 0.229709 0.421992 -0.254920
H25   H     H_    0.770219 0.246896 0.493732 0.176390
H26   H     H_    0.926963 0.204381 0.484472 0.130343
H27   H     H_    0.822434 0.146523 0.356018 0.179748
O14   O     O_3   0.131790 0.671847 0.666254 -0.564598
C46   C     C_3   0.146089 0.781992 0.585020 -0.307233
H28   H     H_    0.182924 0.859035 0.652635 0.192276
H29   H     H_    0.210579 0.767449 0.497510 0.187738
H30   H     H_    0.059173 0.814400 0.542730 0.126355
O15   O     O_3   0.625288 0.100028 0.717632 -0.616181
C47   C     C_3   0.648037 0.009684 0.820319 -0.267643
H31   H     H_    0.693672 0.927445 0.774084 0.182914
H32   H     H_    0.564263 0.978707 0.874674 0.182915
H33   H     H_    0.707311 0.053963 0.901074 0.227403
O16   O     O_3   0.366592 0.900844 0.280834 -0.583549
C48   C     C_3   0.336107 0.994094 0.184145 -0.269716
H34   H     H_    0.417050 0.034692 0.131382 0.171499
H35   H     H_    0.284273 0.069526 0.235477 0.165104
H36   H     H_    0.279222 0.949740 0.101059 0.227825

loop_
_geom_bond_atom_site_label_1
_geom_bond_atom_site_label_2
_ccdc_geom_bond_type
C4    C36   A    
C27   C29   A    
C46   H28   S    
C16   N1    S    
C9    C14   S    
C17   N1    S    
C46   H30   S    
C18   N2    S    
C44   H22   S    
C15   C19   S    
C48   H35   S    
C33   H1    S    
C7    O15   S    
C34   H2    S    
C24   C26   A    
C21   O7    A    
O9    C41   S    
C22   O8    A    
Cu1   N1    S    
C18   C38   S    
Cu2   N2    S    
C15   C39   S    
C5    C36   A    
C17   C20   S    
C23   H5    S    
C6    C35   A    
C15   C17   S    
C18   C19   S    
C1    O1    A    
C17   C37   S    
Cu2   O6    S    
Cu1   O4    S    
Cu2   O3    S    
C6    C27   S    
C23   C33   A    
C31   C33   A    
C41   H13   S    
Cu1   O1    S    
C37   N3    T    
C1    C12   S    
C43   H21   S    
C2    C11   S    
O16   C48   S    
C44   H23   S    
C7    C12   S    
C32   O12   S    
C48   H36   S    
O10   C42   S    
C40   N6    T    
O12   C44   S    
C4    C6    A    
C2    O2    A    
C38   N4    T    
C47   H33   S    
C24   C34   A    
Cu2   O7    S    
C29   H7    S    
C32   C34   A    
C42   H16   S    
C21   O5    A    
Cu1   Cu2   S    
C19   N1    S    
C5    C28   S    
C8    O16   S    
C45   H26   S    
O15   C47   S    
Cu2   O2    S    
C3    C35   A    
C16   C20   S    
C41   H15   S    
C47   H32   S    
C16   C40   S    
C15   N2    S    
C42   H17   S    
C10   C12   S    
C13   H11   S    
C35   O13   S    
C43   H20   S    
C12   C14   S    
C9    H9    S    
C9    C11   S    
C10   H10   S    
C24   H6    S    
C25   O9    S    
C45   H27   S    
C44   H24   S    
C7    C9    S    
C8    C14   S    
C30   H8    S    
C8    C10   S    
C43   H19   S    
C3    C5    A    
C10   C13   S    
C22   O6    A    
C20   H4    S    
C46   H29   S    
C31   O11   S    
C25   C27   A    
C48   H34   S    
C26   C28   A    
C20   N2    S    
C28   C30   A    
C1    O3    A    
C29   C31   A    
C2    O4    A    
C30   C32   A    
C4    C21   S    
C11   C13   S    
C45   H25   S    
C14   H12   S    
C8    C11   S    
C47   H31   S    
C26   O10   S    
C23   C25   A    
O14   C46   S    
C42   H18   S    
Cu1   O8    S    
O11   C43   S    
C36   O14   S    
C7    C13   S    
C16   C18   S    
C39   N5    T    
C3    C22   S    
C41   H14   S    
O13   C45   S    
Cu1   O5    S    
C19   H3    S    
