data_mof_unit_58186.cif
_audit_creation_date              2012-12-10T18:22:26-0500
_audit_creation_method            fapswitch 2.2
_symmetry_space_group_name_H-M    P1
_symmetry_Int_Tables_number       1
_space_group_crystal_system       triclinic
_cell_length_a                    23.529201
_cell_length_b                    10.687701
_cell_length_c                    9.464834
_cell_angle_alpha                 90.776599
_cell_angle_beta                  89.288697
_cell_angle_gamma                 89.674056
_cell_volume                      2379.70795316

loop_
_atom_site_label
_atom_site_type_symbol
_atom_type_description
_atom_site_fract_x
_atom_site_fract_y
_atom_site_fract_z
_atom_type_partial_charge
C1    C     C_R   0.501035 0.259966 0.499576 0.828568
C2    C     C_R   0.499147 0.739847 0.500822 0.822708
C3    C     C_R   0.235095 0.534576 0.398358 0.237393
C4    C     C_R   0.765914 0.487267 0.382916 0.246143
C5    C     C_R   0.295046 0.545491 0.392617 0.171846
C6    C     C_R   0.705906 0.484404 0.374447 0.154095
C7    C     C_R   0.328178 0.494084 0.502030 -0.093458
C8    C     C_R   0.672311 0.498090 0.499638 -0.103739
C9    C     C_R   0.300911 0.432321 0.613483 -0.298405
C10   C     C_R   0.699667 0.512031 0.630187 -0.288040
C11   C     C_R   0.242024 0.425190 0.620916 -0.172593
C12   C     C_R   0.758535 0.512172 0.638004 -0.173908
C13   C     C_R   0.208973 0.477291 0.515218 0.309569
C14   C     C_R   0.791788 0.499233 0.515684 0.309016
C15   C     C_3   0.516963 0.041667 0.626409 0.215221
C16   C     C_3   0.482669 0.958369 0.375908 0.242459
C17   C     C_3   0.552693 0.955604 0.527900 0.058290
C18   C     C_3   0.446837 0.044398 0.475553 0.062013
C19   C     C_3   0.498885 0.875800 0.502533 -0.198250
C20   C     C_3   0.500673 0.123608 0.500224 -0.231975
C21   C     C_3   0.463567 0.962557 0.601854 0.228579
C22   C     C_3   0.536018 0.036939 0.401447 0.226908
C23   C     C_R   0.390999 0.499499 0.500505 0.816188
C24   C     C_R   0.609156 0.499051 0.499126 0.814850
C25   C     C_3   0.538494 0.570948 0.047444 0.424635
C26   C     C_3   0.461304 0.429692 0.951118 0.418196
C27   C     C_3   0.490831 0.611838 0.950647 -0.098068
C28   C     C_3   0.508847 0.387563 0.048788 -0.123023
C29   C     C_3   0.548527 0.460056 0.946747 -0.122813
C30   C     C_3   0.451589 0.540077 0.052741 -0.169496
C31   C     C_R   0.881665 0.601175 0.558509 0.518564
C32   C     C_R   0.119021 0.368145 0.508846 0.522150
C33   C     C_R   0.880055 0.381955 0.505342 0.579019
C34   C     C_R   0.120522 0.587705 0.560077 0.576720
C35   C     C_R   0.939561 0.375412 0.510046 -0.024227
C36   C     C_R   0.060973 0.592495 0.564868 -0.023115
C37   C     C_R   0.970289 0.485481 0.538170 -0.016367
C38   C     C_R   0.030254 0.482007 0.538992 -0.016048
C39   C     C_R   0.941215 0.599300 0.563946 -0.016332
C40   C     C_R   0.059367 0.368370 0.512315 -0.016115
C41   C     C_R   0.968966 0.262190 0.485797 -0.164551
C42   C     C_R   0.031556 0.705120 0.592547 -0.165955
C43   C     C_R   0.028259 0.258684 0.487049 -0.164516
C44   C     C_R   0.972281 0.708468 0.592190 -0.165243
Cu1   Cu    Cu3+1 0.500010 0.499990 0.643150 0.949628
Cu2   Cu    Cu3+1 0.499990 0.500010 0.356850 0.947866
H1    H     H_    0.946307 0.176173 0.464530 0.188654
H2    H     H_    0.054214 0.791257 0.613180 0.188514
H3    H     H_    0.483617 0.705911 0.905759 0.152799
H4    H     H_    0.516111 0.293521 0.093668 0.142984
H5    H     H_    0.589282 0.427393 0.898356 0.129091
H6    H     H_    0.410790 0.572592 0.100312 0.162028
H7    H     H_    0.049603 0.170100 0.466624 0.188350
H8    H     H_    0.950944 0.797059 0.612630 0.188263
H9    H     H_    0.325228 0.387474 0.694410 0.177879
H10   H     H_    0.675528 0.522499 0.727735 0.173807
H11   H     H_    0.221888 0.379711 0.709838 0.162251
H12   H     H_    0.778536 0.521232 0.740065 0.157900
N1    N     N_R   0.852523 0.493975 0.527254 -0.446947
N2    N     N_R   0.148171 0.477232 0.529743 -0.446182
N3    N     N_3   0.500040 0.499970 0.858290 -0.185921
N4    N     N_3   0.499960 0.500030 0.141710 -0.193871
O1    O     O_R   0.500030 0.316850 0.620870 -0.553435
O2    O     O_R   0.499970 0.683150 0.379130 -0.579588
O3    O     O_R   0.500000 0.316860 0.379090 -0.582937
O4    O     O_R   0.500000 0.683140 0.620910 -0.572301
O5    O     O_R   0.417890 0.499960 0.620920 -0.579275
O6    O     O_R   0.582110 0.500040 0.379080 -0.567643
O7    O     O_R   0.417870 0.499970 0.379140 -0.551129
O8    O     O_R   0.582130 0.500030 0.620860 -0.596502
O9    O     O_2   0.853101 0.709495 0.581803 -0.543865
O10   O     O_2   0.147676 0.260545 0.481980 -0.544754
O11   O     O_2   0.849869 0.277441 0.478778 -0.538057
O12   O     O_2   0.150672 0.692669 0.584601 -0.541235
N5    N     N_2   0.580314 0.658444 0.099513 -0.420812
H13   H     H_    0.600338 0.632426 0.189919 0.300499
C45   C     C_3   0.619386 0.703765 0.993027 -0.783967
H14   H     H_    0.646168 0.778753 0.038876 0.238144
H15   H     H_    0.595805 0.742502 0.902521 0.246943
H16   H     H_    0.647654 0.626637 0.954828 0.222770
N6    N     N_2   0.415187 0.359636 0.890140 -0.385970
H17   H     H_    0.378657 0.412647 0.884196 0.233747
C46   C     C_3   0.405578 0.237760 0.948165 -0.757097
H18   H     H_    0.369023 0.193154 0.894639 0.229819
H19   H     H_    0.395961 0.245901 0.063204 0.227412
H20   H     H_    0.443717 0.178408 0.928982 0.262555
N7    N     N_2   0.200332 0.584499 0.290181 -0.420943
H21   H     H_    0.214391 0.667012 0.247401 0.268478
C47   C     C_3   0.183270 0.494181 0.183945 -0.681782
H22   H     H_    0.154070 0.539582 0.108672 0.235899
H23   H     H_    0.160523 0.414954 0.233251 0.257942
H24   H     H_    0.221026 0.457830 0.124483 0.212309
N8    N     N_2   0.800785 0.473777 0.259385 -0.418840
H25   H     H_    0.785433 0.413143 0.183609 0.270160
C48   C     C_3   0.820321 0.590466 0.200907 -0.681291
H26   H     H_    0.849237 0.570720 0.109616 0.233397
H27   H     H_    0.844153 0.645212 0.280804 0.259058
H28   H     H_    0.783727 0.646971 0.164129 0.214511
N9    N     N_2   0.321679 0.607585 0.277582 -0.427597
H29   H     H_    0.303869 0.589066 0.180628 0.249437
C49   C     C_3   0.331240 0.739543 0.302286 -0.721810
H30   H     H_    0.347318 0.782631 0.203652 0.221386
H31   H     H_    0.363189 0.752723 0.386091 0.227746
H32   H     H_    0.291156 0.788105 0.334356 0.235551
N10   N     N_2   0.679781 0.468908 0.240555 -0.429445
H33   H     H_    0.696141 0.523995 0.161488 0.251362
C50   C     C_3   0.669400 0.340926 0.196013 -0.681560
H34   H     H_    0.623730 0.330276 0.171353 0.246024
H35   H     H_    0.680985 0.272998 0.279006 0.230063
H36   H     H_    0.694653 0.317959 0.099041 0.206352
C51   C     C_3   0.610883 0.899853 0.558865 -0.820229
H37   H     H_    0.642551 0.975758 0.569936 0.239536
H38   H     H_    0.608748 0.845322 0.657511 0.233820
H39   H     H_    0.624009 0.834584 0.472287 0.226265
C52   C     C_3   0.388238 0.100187 0.449613 -0.829646
H40   H     H_    0.358505 0.025435 0.416739 0.233823
H41   H     H_    0.372026 0.146423 0.547925 0.239949
H42   H     H_    0.391040 0.170990 0.365172 0.234883
N11   N     N_2   0.535117 0.094074 0.760228 -0.411230
H43   H     H_    0.564577 0.164483 0.749898 0.263201
C53   C     C_3   0.550309 0.005927 0.867610 -0.719242
H44   H     H_    0.545218 0.052545 0.972009 0.249070
H45   H     H_    0.595430 0.976998 0.854372 0.226588
H46   H     H_    0.522730 0.922166 0.864598 0.256665
N12   N     N_2   0.466112 0.908322 0.239697 -0.399861
H47   H     H_    0.441622 0.829281 0.244985 0.268563
C54   C     C_3   0.444369 0.998024 0.141709 -0.719663
H48   H     H_    0.445457 0.956406 0.033844 0.235115
H49   H     H_    0.470491 0.084095 0.143557 0.257164
H50   H     H_    0.399527 0.021715 0.168384 0.228646
N13   N     N_2   0.426559 0.924861 0.717099 -0.429398
H51   H     H_    0.414692 0.998751 0.782035 0.262060
C55   C     C_3   0.379326 0.845232 0.681196 -0.676382
H52   H     H_    0.357830 0.814435 0.779735 0.227940
H53   H     H_    0.394128 0.760540 0.622986 0.229952
H54   H     H_    0.348021 0.896738 0.617136 0.231658
N14   N     N_2   0.574249 0.085875 0.295121 -0.424274
H55   H     H_    0.598957 0.157308 0.333945 0.244901
C56   C     C_3   0.606658 0.994403 0.213967 -0.691754
H56   H     H_    0.626740 0.040623 0.121887 0.219472
H57   H     H_    0.578727 0.918443 0.175134 0.287838
H58   H     H_    0.641213 0.954757 0.278308 0.230853

loop_
_geom_bond_atom_site_label_1
_geom_bond_atom_site_label_2
_ccdc_geom_bond_type
N7    H21   S    
C49   H30   S    
C18   C21   S    
C41   C43   A    
C23   O7    A    
N10   H33   S    
C36   C42   A    
C48   H26   S    
N6    H17   S    
C48   H28   S    
C24   O8    A    
C32   O10   S    
C13   N2    S    
Cu1   Cu2   S    
C14   N1    S    
N10   C50   S    
C22   N14   S    
N8    H25   S    
Cu2   N4    S    
C28   C29   S    
C35   C37   A    
C26   N3    S    
C56   H58   S    
C31   N1    A    
C52   H40   S    
C17   C51   S    
C7    C9    A    
C23   O5    A    
N8    C48   S    
C21   N13   S    
C53   H46   S    
C27   N3    S    
C8    C24   S    
C33   N1    A    
C28   H4    S    
C43   H7    S    
C40   C43   A    
C5    N9    S    
C31   C39   A    
C52   H41   S    
Cu1   O5    S    
C55   H54   S    
C1    O3    A    
C50   H34   S    
C9    H9    S    
C47   H23   S    
C10   H10   S    
C16   N12   S    
C18   C20   S    
C3    C13   A    
C12   H12   S    
Cu1   N3    S    
C31   O9    S    
C2    C19   S    
C49   H31   S    
C27   C30   S    
C34   N2    A    
C50   H35   S    
C42   C44   A    
C1    O1    A    
N6    C46   S    
C2    O2    A    
N11   C53   S    
C25   C29   S    
C15   C20   S    
C29   N3    S    
C3    N7    S    
Cu2   O3    S    
C4    C6    A    
C5    C7    A    
C17   C19   S    
C6    C8    A    
C3    C5    A    
C45   H14   S    
Cu1   O1    S    
Cu2   O2    S    
C25   N5    S    
N5    H13   S    
C54   H49   S    
Cu2   O6    S    
C37   C38   A    
C9    C11   A    
C46   H18   S    
C56   H56   S    
C52   H42   S    
C41   H1    S    
C45   H15   S    
C51   H38   S    
C42   H2    S    
C56   H57   S    
C47   H24   S    
N5    C45   S    
C53   H44   S    
C10   C12   A    
C34   O12   S    
C33   O11   S    
C46   H19   S    
C12   C14   A    
C26   C30   S    
C26   N6    S    
N7    C47   S    
C55   H52   S    
C50   H36   S    
C32   N2    A    
C54   H48   S    
N12   C54   S    
C29   H5    S    
C45   H16   S    
C15   C17   S    
C30   H6    S    
C1    C20   S    
C16   C22   S    
C51   H37   S    
N9    C49   S    
Cu1   O8    S    
N14   C56   S    
C8    C10   A    
C20   C22   S    
N13   C55   S    
C18   C52   S    
N11   H43   S    
C48   H27   S    
C2    O4    A    
C39   C44   A    
C25   C27   S    
N14   H55   S    
C26   C28   S    
C17   C22   S    
N9    H29   S    
C30   N4    S    
C54   H50   S    
C37   C39   A    
C38   C40   A    
C11   C13   A    
N12   H47   S    
C16   C19   S    
C7    C23   S    
C36   C38   A    
C33   C35   A    
C6    N10   S    
C15   N11   S    
C51   H39   S    
C34   C36   A    
C25   N4    S    
C32   C40   A    
C4    C14   A    
N13   H51   S    
C35   C41   A    
C53   H45   S    
C24   O6    A    
C4    N8    S    
C44   H8    S    
C15   C21   S    
C46   H20   S    
C16   C18   S    
Cu1   O4    S    
Cu2   O7    S    
C55   H53   S    
C49   H32   S    
C47   H22   S    
C11   H11   S    
C27   H3    S    
C19   C21   S    
C28   N4    S    
