data_mof_unit_5107.cif
_audit_creation_date              2012-12-11T14:38:12-0500
_audit_creation_method            fapswitch 2.2
_symmetry_space_group_name_H-M    P1
_symmetry_Int_Tables_number       1
_space_group_crystal_system       triclinic
_cell_length_a                    20.065816
_cell_length_b                    11.231148
_cell_length_c                    19.654894
_cell_angle_alpha                 89.843159
_cell_angle_beta                  95.55036
_cell_angle_gamma                 90.006609
_cell_volume                      4408.6853333

loop_
_atom_site_label
_atom_site_type_symbol
_atom_type_description
_atom_site_fract_x
_atom_site_fract_y
_atom_site_fract_z
_atom_type_partial_charge
C1    C     C_R   0.725452 0.952134 0.359136 0.557213
C2    C     C_3   0.180445 0.462139 0.468262 0.147671
C3    C     C_3   0.569922 0.901706 0.482590 -0.143661
C4    C     C_3   0.434862 0.458713 0.946037 -0.088216
C5    C     C_3   0.579423 0.485579 0.059557 -0.084828
C6    C     C_3   0.934859 0.958712 0.946041 -0.088113
C7    C     C_3   0.079421 0.985580 0.059559 -0.084854
C8    C     C_3   0.303990 0.157781 0.965440 -0.065987
C9    C     C_3   0.661908 0.161662 0.060987 -0.081817
C10   C     C_3   0.803989 0.657779 0.965442 -0.066030
C11   C     C_3   0.161907 0.661662 0.060989 -0.081782
C12   C     C_3   0.380795 0.261471 0.147776 -0.308727
C13   C     C_3   0.320224 0.959821 0.531771 0.147930
C14   C     C_3   0.607254 0.137597 0.847645 -0.320493
C15   C     C_3   0.880795 0.761470 0.147777 -0.308702
C16   C     C_3   0.107255 0.637604 0.847648 -0.320680
C17   C     C_3   0.583429 0.866717 0.910570 -0.302894
C18   C     C_3   0.429118 0.991819 0.159116 -0.248580
C19   C     C_3   0.083431 0.366719 0.910575 -0.302671
C20   C     C_3   0.929118 0.491820 0.159120 -0.249276
C21   C     C_3   0.563975 0.853980 0.068549 -0.026165
C22   C     C_3   0.399312 0.897575 0.975692 -0.073162
C23   C     C_3   0.063974 0.353982 0.068554 -0.026131
C24   C     C_3   0.679917 0.965561 0.468575 0.147382
C25   C     C_3   0.899312 0.397574 0.975694 -0.073223
C26   C     C_3   0.592794 0.540191 0.598960 -0.296517
C27   C     C_3   0.406995 0.541651 0.399929 -0.294633
C28   C     C_3   0.093695 0.046804 0.598250 -0.293061
C29   C     C_3   0.907511 0.037702 0.400290 -0.298109
C30   C     C_3   0.579820 0.558998 0.403720 -0.303735
C31   C     C_3   0.419281 0.561207 0.596918 -0.300406
C32   C     C_3   0.081615 0.063887 0.402384 -0.303068
C33   C     C_3   0.920563 0.058500 0.595200 -0.302055
C34   C     C_3   0.749658 0.289052 0.555420 -0.236269
C35   C     C_3   0.252463 0.288028 0.444855 -0.237015
C36   C     C_3   0.246258 0.787914 0.555254 -0.233371
C37   C     C_3   0.749819 0.788950 0.445137 -0.238136
C38   C     C_3   0.757460 0.421972 0.568157 0.076591
C39   C     C_3   0.243235 0.420644 0.431590 0.075187
C40   C     C_3   0.256778 0.920400 0.568332 0.076840
C41   C     C_R   0.274226 0.951556 0.641032 0.549598
C42   C     C_3   0.742296 0.921844 0.431836 0.075348
C43   C     C_3   0.740050 0.387769 0.436200 0.014539
C44   C     C_3   0.260653 0.387345 0.563670 0.013932
C45   C     C_3   0.239780 0.887880 0.436167 0.013265
C46   C     C_3   0.759832 0.888342 0.563873 0.015868
C47   C     C_3   0.799691 0.471212 0.453397 -0.238283
C48   C     C_3   0.200232 0.469211 0.545800 -0.237481
C49   C     C_3   0.300882 0.968485 0.454471 -0.231411
C50   C     C_3   0.700400 0.972322 0.546334 -0.240927
C51   C     C_3   0.753197 0.271091 0.478096 -0.237049
C52   C     C_R   0.225766 0.451542 0.358918 0.554837
C53   C     C_3   0.249183 0.270131 0.522337 -0.238262
C54   C     C_3   0.249903 0.770178 0.477712 -0.235940
C55   C     C_3   0.746393 0.771544 0.522528 -0.236613
C56   C     C_3   0.515081 0.295582 0.960025 0.082076
C57   C     C_3   0.523733 0.301572 0.035996 0.066427
C58   C     C_3   0.015078 0.795583 0.960026 0.082221
C59   C     C_3   0.023732 0.801572 0.035997 0.066299
C60   C     C_3   0.420724 0.124180 0.971945 0.502064
C61   C     C_3   0.556281 0.064895 0.031663 0.523203
C62   C     C_3   0.920723 0.624178 0.971946 0.502085
C63   C     C_R   0.774527 0.452328 0.640822 0.553356
C64   C     C_3   0.056280 0.564896 0.031665 0.523163
C65   C     C_3   0.545970 0.071973 0.949311 0.238852
C66   C     C_3   0.434922 0.140685 0.055138 0.239657
C67   C     C_3   0.045970 0.571975 0.949313 0.238854
C68   C     C_3   0.934922 0.640683 0.055139 0.239642
C69   C     C_R   0.535818 0.180835 0.338037 0.523551
C70   C     C_R   0.463156 0.181291 0.661236 0.522185
C71   C     C_R   0.036553 0.680990 0.338552 0.523162
C72   C     C_R   0.963869 0.681139 0.661748 0.525549
C73   C     C_3   0.485744 0.168050 0.934058 -0.002387
C74   C     C_3   0.674565 0.442837 0.459815 0.030728
C75   C     C_3   0.514053 0.170104 0.067045 0.015329
C76   C     C_3   0.985743 0.668050 0.934059 -0.001983
C77   C     C_3   0.014052 0.670104 0.067046 0.015141
C78   C     C_1   0.753281 0.409386 0.898412 -0.020608
C79   C     C_1   0.240822 0.425795 0.096455 -0.006984
C80   C     C_1   0.253281 0.909386 0.898411 -0.020797
C81   C     C_1   0.740822 0.925795 0.096455 -0.006939
C82   C     C_1   0.739800 0.390110 0.029876 -0.089426
C83   C     C_1   0.253082 0.417457 0.964252 -0.098955
C84   C     C_1   0.239800 0.890110 0.029876 -0.089398
C85   C     C_3   0.325786 0.443991 0.540172 0.029303
C86   C     C_1   0.753082 0.917457 0.964252 -0.098954
C87   C     C_1   0.741804 0.392814 0.957292 -0.076261
C88   C     C_1   0.249043 0.420631 0.036187 -0.064262
C89   C     C_1   0.241804 0.892814 0.957292 -0.076262
C90   C     C_1   0.749043 0.920631 0.036187 -0.064277
C91   C     C_1   0.740658 0.384361 0.091776 -0.039158
C92   C     C_1   0.255661 0.401169 0.903608 -0.040996
C93   C     C_1   0.240658 0.884361 0.091776 -0.039203
C94   C     C_1   0.755661 0.901169 0.903608 -0.040892
C95   C     C_R   0.735996 0.354702 0.363245 0.536261
C96   C     C_3   0.174813 0.945395 0.459327 0.029653
C97   C     C_R   0.264196 0.354489 0.636664 0.531104
C98   C     C_R   0.236114 0.855245 0.363124 0.534445
C99   C     C_R   0.763866 0.855332 0.636889 0.531358
C100  C     C_R   0.722957 0.952747 0.164275 0.547616
C101  C     C_R   0.276169 0.950228 0.834546 0.562159
C102  C     C_R   0.222957 0.452747 0.164275 0.547842
C103  C     C_R   0.776169 0.450227 0.834546 0.561320
C104  C     C_R   0.535388 0.179005 0.140314 0.588667
C105  C     C_R   0.464135 0.178865 0.860173 0.627278
C106  C     C_R   0.035387 0.679005 0.140315 0.589363
C107  C     C_3   0.825436 0.942700 0.539971 0.030249
C108  C     C_R   0.964134 0.678865 0.860174 0.625889
C109  C     C_R   0.735994 0.358005 0.163456 0.515990
C110  C     C_R   0.263552 0.360372 0.835230 0.550152
C111  C     C_R   0.235994 0.858004 0.163456 0.515934
C112  C     C_R   0.763552 0.860372 0.835230 0.549858
C113  C     C_1   0.483330 0.178556 0.593437 -0.046187
C114  C     C_1   0.512620 0.176947 0.404517 -0.025510
C115  C     C_1   0.986265 0.678101 0.594915 -0.030456
C116  C     C_1   0.015659 0.677735 0.406016 -0.034109
C117  C     C_1   0.501177 0.179317 0.463477 -0.101442
C118  C     C_3   0.819727 0.465389 0.531154 0.147936
C119  C     C_1   0.492691 0.180113 0.533867 -0.109360
C120  C     C_1   0.005721 0.680396 0.465400 -0.107716
C121  C     C_1   0.997186 0.680580 0.535797 -0.106457
C122  C     C_3   0.689053 0.477306 0.536602 0.020373
C123  C     C_3   0.311248 0.477415 0.463080 0.022050
C124  C     C_3   0.189383 0.978883 0.536282 0.020990
C125  C     C_3   0.810947 0.976779 0.463033 0.021032
C126  C     C_3   0.931574 0.408566 0.522508 -0.144557
C127  C     C_3   0.068174 0.404209 0.473635 -0.144902
C128  C     C_3   0.433899 0.905180 0.541422 -0.146021
Cr1   Cr    Cr6+3 0.765780 0.160710 0.267420 0.974191
Cr2   Cr    Cr6+3 0.383970 0.323720 0.751490 1.021834
Cr3   Cr    Cr6+3 0.116030 0.823720 0.248510 0.987506
Cr4   Cr    Cr6+3 0.883970 0.823720 0.751490 1.022231
Cr5   Cr    Cr6+3 0.234220 0.160710 0.732580 0.993289
Cr6   Cr    Cr6+3 0.265780 0.660710 0.267420 0.975313
Cr7   Cr    Cr6+3 0.734220 0.660710 0.732580 0.991653
Cr8   Cr    Cr6+3 0.612200 0.009560 0.248850 1.003582
Cr9   Cr    Cr6+3 0.387800 0.009560 0.751150 1.015733
Cr10  Cr    Cr6+3 0.112200 0.509560 0.248850 0.998105
Cr11  Cr    Cr6+3 0.887800 0.509560 0.751150 1.026904
Cr12  Cr    Cr6+3 0.616030 0.323720 0.248510 0.987593
H1    H     H_    0.695995 0.571482 0.539618 0.162987
H2    H     H_    0.157940 0.443791 0.575331 0.140405
H3    H     H_    0.472134 0.930705 0.160141 0.190526
H4    H     H_    0.990534 0.433841 0.887636 0.301928
H5    H     H_    0.101532 0.381719 0.859707 0.157268
H6    H     H_    0.063483 0.274578 0.911869 0.120711
H7    H     H_    0.125683 0.373460 0.950056 0.169887
H8    H     H_    0.858457 0.534883 0.083902 0.237929
H9    H     H_    0.888116 0.436317 0.176531 0.113449
H10   H     H_    0.937826 0.563652 0.197026 0.140623
H11   H     H_    0.972134 0.430704 0.160146 0.190356
H12   H     H_    0.616528 0.856551 0.057456 0.168563
H13   H     H_    0.343832 0.942142 0.426058 0.146891
H14   H     H_    0.541161 0.777307 0.039611 0.052687
H15   H     H_    0.561911 0.831484 0.123136 0.132169
H16   H     H_    0.364796 0.892309 0.015025 0.122905
H17   H     H_    0.447052 0.855906 0.990926 0.180397
H18   H     H_    0.378374 0.832853 0.937048 0.120083
H19   H     H_    0.116527 0.356551 0.057461 0.168609
H20   H     H_    0.041160 0.277306 0.039618 0.052644
H21   H     H_    0.061909 0.331490 0.123141 0.132085
H22   H     H_    0.864797 0.392308 0.015027 0.122921
H23   H     H_    0.947052 0.355903 0.990926 0.180394
H24   H     H_    0.658539 0.950938 0.577219 0.130986
H25   H     H_    0.878373 0.332853 0.937050 0.120030
H26   H     H_    0.606971 0.368773 0.561175 0.248109
H27   H     H_    0.557943 0.503611 0.634196 0.135241
H28   H     H_    0.563878 0.583883 0.555012 0.119159
H29   H     H_    0.624228 0.608419 0.627195 0.189741
H30   H     H_    0.394333 0.370695 0.439520 0.248818
H31   H     H_    0.441257 0.505416 0.364096 0.129709
H32   H     H_    0.436537 0.585618 0.443216 0.124632
H33   H     H_    0.374951 0.609602 0.371998 0.193430
H34   H     H_    0.105281 0.874843 0.560186 0.248514
H35   H     H_    0.566862 0.295636 0.946173 0.210529
H36   H     H_    0.059624 0.012401 0.634905 0.133665
H37   H     H_    0.063932 0.089620 0.554560 0.119754
H38   H     H_    0.126163 0.115210 0.624966 0.193354
H39   H     H_    0.892559 0.866856 0.438974 0.247851
H40   H     H_    0.942605 0.000103 0.365724 0.131673
H41   H     H_    0.936236 0.081940 0.444021 0.121985
H42   H     H_    0.876424 0.105688 0.371206 0.189841
H43   H     H_    0.677464 0.568399 0.378787 0.258108
H44   H     H_    0.567101 0.654472 0.395610 0.163798
H45   H     H_    0.552262 0.523934 0.445641 0.145383
H46   H     H_    0.484503 0.357156 0.053992 0.165955
H47   H     H_    0.563742 0.509460 0.356212 0.167407
H48   H     H_    0.321684 0.568114 0.620989 0.258462
H49   H     H_    0.431169 0.655339 0.609991 0.161697
H50   H     H_    0.447158 0.534463 0.553545 0.143709
H51   H     H_    0.435629 0.504851 0.641843 0.170038
H52   H     H_    0.179325 0.069122 0.377973 0.257472
H53   H     H_    0.069970 0.159041 0.391522 0.166054
H54   H     H_    0.053580 0.033910 0.445094 0.144107
H55   H     H_    0.065109 0.010824 0.356293 0.165497
H56   H     H_    0.823164 0.068233 0.620624 0.258554
H57   H     H_    0.066859 0.795639 0.946174 0.210541
H58   H     H_    0.933507 0.153978 0.602538 0.164426
H59   H     H_    0.947969 0.022553 0.553497 0.144720
H60   H     H_    0.936691 0.009519 0.643049 0.169197
H61   H     H_    0.984502 0.857156 0.053994 0.165938
H62   H     H_    0.635576 0.371740 0.453693 0.158274
H63   H     H_    0.365387 0.373968 0.546818 0.159004
H64   H     H_    0.134948 0.875837 0.452963 0.160277
H65   H     H_    0.303497 0.570946 0.459221 0.163871
H66   H     H_    0.864244 0.871287 0.546431 0.157864
H67   H     H_    0.340971 0.046129 0.551436 0.105404
H68   H     H_    0.660959 0.052845 0.449201 0.113295
H69   H     H_    0.838677 0.552794 0.550181 0.110069
H70   H     H_    0.160518 0.548759 0.448623 0.113210
H71   H     H_    0.288720 0.060896 0.439572 0.067284
H72   H     H_    0.715128 0.063617 0.560508 0.071025
H73   H     H_    0.785763 0.562563 0.438054 0.068951
H74   H     H_    0.213119 0.561202 0.560631 0.069200
H75   H     H_    0.790063 0.240551 0.585344 0.185882
H76   H     H_    0.198080 0.071953 0.539623 0.162353
H77   H     H_    0.212554 0.238889 0.415062 0.187368
H78   H     H_    0.285377 0.737190 0.585474 0.185225
H79   H     H_    0.709243 0.740628 0.415564 0.187061
H80   H     H_    0.701771 0.255317 0.571750 0.098406
H81   H     H_    0.300531 0.255151 0.428607 0.099730
H82   H     H_    0.197699 0.756352 0.571085 0.099080
H83   H     H_    0.797574 0.754726 0.428887 0.097726
H84   H     H_    0.717729 0.202889 0.458670 0.071897
H85   H     H_    0.285304 0.202253 0.542150 0.073272
H86   H     H_    0.213328 0.703991 0.457648 0.071551
H87   H     H_    0.804340 0.071105 0.459357 0.164038
H88   H     H_    0.781787 0.703158 0.542243 0.072581
H89   H     H_    0.970896 0.412071 0.566170 0.146043
H90   H     H_    0.931315 0.493410 0.493844 0.109030
H91   H     H_    0.942247 0.335683 0.487272 0.111505
H92   H     H_    0.068068 0.485206 0.505546 0.106870
H93   H     H_    0.053282 0.327759 0.504466 0.114054
H94   H     H_    0.031882 0.415067 0.427766 0.147259
H95   H     H_    0.454420 0.943549 0.590674 0.168291
H96   H     H_    0.438505 0.967008 0.498122 0.106838
H97   H     H_    0.462350 0.823237 0.533451 0.114261
H98   H     H_    0.805274 0.245793 0.471004 0.195752
H99   H     H_    0.566520 0.992353 0.503555 0.114602
H100  H     H_    0.568880 0.836285 0.524810 0.108818
H101  H     H_    0.526798 0.886169 0.443972 0.141552
H102  H     H_    0.442813 0.505657 0.995664 0.060096
H103  H     H_    0.393169 0.396272 0.944388 0.193005
H104  H     H_    0.419541 0.528351 0.907565 0.139248
H105  H     H_    0.627109 0.524046 0.082677 0.131767
H106  H     H_    0.570662 0.523328 0.007306 0.152911
H107  H     H_    0.540087 0.514836 0.092024 0.099346
H108  H     H_    0.942810 0.005655 0.995668 0.060030
H109  H     H_    0.197179 0.244911 0.529431 0.198326
H110  H     H_    0.893166 0.896271 0.944391 0.193000
H111  H     H_    0.919537 0.028352 0.907569 0.139314
H112  H     H_    0.127108 0.024047 0.082677 0.131750
H113  H     H_    0.070659 0.023330 0.007308 0.152941
H114  H     H_    0.040086 0.014835 0.092028 0.099246
H115  H     H_    0.285430 0.211702 0.005987 0.118375
H116  H     H_    0.305694 0.069758 0.987591 0.137993
H117  H     H_    0.266966 0.158660 0.920035 0.161840
H118  H     H_    0.652022 0.219987 0.016525 0.171480
H119  H     H_    0.715896 0.142299 0.062246 0.122405
H120  H     H_    0.301413 0.743008 0.470659 0.203697
H121  H     H_    0.654892 0.202416 0.110232 0.209409
H122  H     H_    0.785428 0.711701 0.005988 0.118388
H123  H     H_    0.805694 0.569757 0.987594 0.137975
H124  H     H_    0.766965 0.658656 0.920037 0.161889
H125  H     H_    0.152022 0.719988 0.016528 0.171475
H126  H     H_    0.215895 0.642299 0.062249 0.122402
H127  H     H_    0.154891 0.702415 0.110234 0.209432
H128  H     H_    0.382903 0.313824 0.045805 0.253669
H129  H     H_    0.360492 0.352279 0.153336 0.133890
H130  H     H_    0.425897 0.256721 0.184403 0.168525
H131  H     H_    0.694255 0.746734 0.529868 0.193282
H132  H     H_    0.342404 0.196739 0.161279 0.143492
H133  H     H_    0.650316 0.067431 0.937968 0.288565
H134  H     H_    0.588071 0.228625 0.835962 0.165112
H135  H     H_    0.577269 0.071327 0.816174 0.166222
H136  H     H_    0.659298 0.135081 0.832781 0.129477
H137  H     H_    0.882902 0.813822 0.045806 0.253668
H138  H     H_    0.860490 0.852277 0.153337 0.133904
H139  H     H_    0.925896 0.756722 0.184404 0.168817
H140  H     H_    0.842404 0.696736 0.161282 0.143510
H141  H     H_    0.150316 0.567434 0.937970 0.288563
H142  H     H_    0.841882 0.447022 0.423534 0.136230
H143  H     H_    0.088069 0.728630 0.835966 0.164820
H144  H     H_    0.077273 0.571331 0.816176 0.166168
H145  H     H_    0.159300 0.635094 0.832786 0.129627
H146  H     H_    0.490532 0.933839 0.887635 0.301939
H147  H     H_    0.601527 0.881717 0.859700 0.156840
H148  H     H_    0.563481 0.774576 0.911864 0.120595
H149  H     H_    0.625683 0.873456 0.950049 0.170017
H150  H     H_    0.358456 0.034886 0.083899 0.237880
H151  H     H_    0.388116 0.936314 0.176526 0.113897
H152  H     H_    0.437824 0.063650 0.197023 0.140452
N1    N     N_2   0.396106 0.243524 0.077808 -0.550592
N2    N     N_2   0.367157 0.445532 0.424041 -0.524326
N3    N     N_2   0.132973 0.949211 0.575213 -0.521846
N4    N     N_2   0.866368 0.942912 0.423789 -0.522870
N5    N     N_2   0.651302 0.546806 0.419656 -0.527491
N6    N     N_2   0.347979 0.548622 0.579972 -0.522914
N7    N     N_2   0.152918 0.049932 0.419031 -0.525415
N8    N     N_2   0.849012 0.046715 0.579593 -0.527452
N9    N     N_2   0.607503 0.112329 0.920254 -0.564432
N10   N     N_2   0.896104 0.743523 0.077809 -0.550653
N11   N     N_2   0.107503 0.612333 0.920257 -0.564368
N12   N     N_2   0.530699 0.950676 0.921974 -0.463531
N13   N     N_2   0.409944 0.035168 0.090139 -0.461842
N14   N     N_2   0.030700 0.450678 0.921976 -0.463547
N15   N     N_2   0.909945 0.535166 0.090142 -0.461617
N16   N     N_2   0.633489 0.444546 0.575983 -0.521217
O1    O     O_R   0.783100 0.287550 0.345460 -0.549274
O2    O     O_R   0.454350 0.284910 0.836260 -0.453967
O3    O     O_R   0.045650 0.784910 0.163740 -0.504981
O4    O     O_R   0.954350 0.784910 0.836260 -0.454469
O5    O     O_R   0.677950 0.374280 0.185410 -0.482942
O6    O     O_R   0.322050 0.374280 0.814590 -0.485984
O7    O     O_R   0.177950 0.874280 0.185410 -0.483042
O8    O     O_R   0.822050 0.874280 0.814590 -0.486062
O9    O     O_3   0.664670 0.164660 0.254930 -0.273100
O10   O     O_3   0.335330 0.164660 0.745070 -0.259761
O11   O     O_3   0.164670 0.664660 0.254930 -0.272027
O12   O     O_R   0.216900 0.287550 0.654540 -0.552244
O13   O     O_3   0.835330 0.664660 0.745070 -0.261706
O14   O     O_R   0.760020 0.037400 0.337700 -0.516874
O15   O     O_R   0.239980 0.037400 0.662300 -0.517580
O16   O     O_R   0.260020 0.537400 0.337700 -0.516996
O17   O     O_R   0.739980 0.537400 0.662300 -0.519280
O18   O     O_R   0.666600 0.921990 0.332020 -0.478939
O19   O     O_R   0.333400 0.921990 0.667980 -0.492783
O20   O     O_R   0.166600 0.421990 0.332020 -0.482378
O21   O     O_R   0.833400 0.421990 0.667980 -0.482351
O22   O     O_R   0.557260 0.082670 0.312540 -0.501755
O23   O     O_R   0.283100 0.787550 0.345460 -0.548253
O24   O     O_R   0.442740 0.082670 0.687460 -0.523119
O25   O     O_R   0.057260 0.582670 0.312540 -0.509266
O26   O     O_R   0.942740 0.582670 0.687460 -0.505212
O27   O     O_R   0.548410 0.285740 0.316480 -0.537152
O28   O     O_R   0.451590 0.285740 0.683520 -0.531379
O29   O     O_R   0.048410 0.785740 0.316480 -0.535351
O30   O     O_R   0.951590 0.785740 0.683520 -0.534005
O31   O     O_R   0.680500 0.375040 0.327000 -0.503554
O32   O     O_R   0.319500 0.375040 0.673000 -0.510563
O33   O     O_R   0.180500 0.875040 0.327000 -0.504428
O34   O     O_R   0.716900 0.787550 0.654540 -0.552296
O35   O     O_R   0.819500 0.875040 0.673000 -0.509065
O36   O     O_R   0.780350 0.286720 0.192720 -0.528449
O37   O     O_R   0.219650 0.286720 0.807280 -0.528524
O38   O     O_R   0.280350 0.786720 0.192720 -0.528198
O39   O     O_R   0.719650 0.786720 0.807280 -0.529032
O40   O     O_R   0.757470 0.036630 0.196110 -0.508712
O41   O     O_R   0.242530 0.036630 0.803890 -0.501256
O42   O     O_R   0.257470 0.536630 0.196110 -0.508600
O43   O     O_R   0.742530 0.536630 0.803890 -0.501682
O44   O     O_R   0.663840 0.921160 0.179280 -0.515725
O45   O     O_R   0.554710 0.081900 0.170950 -0.483955
O46   O     O_R   0.336160 0.921160 0.820720 -0.492150
O47   O     O_R   0.163840 0.421160 0.179280 -0.515432
O48   O     O_R   0.836160 0.421160 0.820720 -0.493098
O49   O     O_3   0.871091 0.380232 0.547832 -0.555572
O50   O     O_3   0.130293 0.374546 0.452543 -0.558380
O51   O     O_3   0.368399 0.867940 0.545330 -0.565836
O52   O     O_3   0.628193 0.881102 0.451325 -0.552819
O53   O     O_3   0.494203 0.405945 0.927434 -0.557443
O54   O     O_3   0.585503 0.359738 0.057922 -0.578516
O55   O     O_3   0.994199 0.905945 0.927435 -0.557318
O56   O     O_R   0.445290 0.081900 0.829050 -0.494071
O57   O     O_3   0.085502 0.859739 0.057922 -0.578536
O58   O     O_3   0.366670 0.199913 0.947782 -0.581427
O59   O     O_3   0.625487 0.056148 0.055521 -0.588738
O60   O     O_3   0.866670 0.699912 0.947783 -0.581425
O61   O     O_3   0.125486 0.556148 0.055523 -0.588683
O62   O     O_3   0.524978 0.958077 0.052417 -0.541376
O63   O     O_3   0.403042 0.008918 0.941798 -0.532550
O64   O     O_3   0.024976 0.458077 0.052417 -0.541314
O65   O     O_3   0.903042 0.508916 0.941799 -0.532659
O66   O     O_R   0.054710 0.581900 0.170950 -0.483206
O67   O     O_R   0.945290 0.581900 0.829050 -0.495744
O68   O     O_R   0.545650 0.284910 0.163740 -0.505213

loop_
_geom_bond_atom_site_label_1
_geom_bond_atom_site_label_2
_ccdc_geom_bond_type
C128  H96   S    
Cr7   O17   S    
C35   C53   S    
Cr7   O43   S    
C64   C77   S    
C68   N15   S    
C6    H108  S    
C15   H140  S    
C58   O55   S    
C34   H75   S    
C35   H81   S    
Cr10  O47   S    
C17   H147  S    
C106  O3    A    
C33   H59   S    
C82   C87   S    
C71   O25   A    
C54   H120  S    
C20   H9    S    
C100  O40   A    
C3    H101  S    
C21   H12   S    
C37   C42   S    
C53   H85   S    
C44   C53   S    
Cr5   O37   S    
C46   C55   S    
C79   C102  S    
C124  N3    S    
H141  N11   S    
C4    H103  S    
C109  O36   A    
H52   N7    S    
C83   C88   S    
Cr6   O23   S    
C9    H118  S    
Cr9   O56   S    
C19   N14   S    
H39   N4    S    
C29   N4    S    
C32   N7    S    
C65   N12   S    
C56   O53   S    
C60   O58   S    
H34   N3    S    
C6    H110  S    
C118  O49   S    
C50   H24   S    
Cr7   O34   S    
C12   H129  S    
C86   C90   S    
C110  O37   A    
C15   N10   S    
C128  H97   S    
Cr3   O3    S    
C8    H116  S    
C82   C91   T    
C10   H122  S    
C67   N11   S    
Cr6   O42   S    
C3    O52   S    
C9    O59   S    
Cr12  O27   S    
C64   O64   S    
C99   O34   A    
C107  C125  S    
C81   C90   T    
C102  O47   A    
Cr11  O26   S    
C20   N15   S    
C55   H131  S    
H137  N10   S    
C49   H13   S    
C68   C77   S    
C56   C73   S    
C23   O64   S    
C15   H138  S    
C101  O46   A    
Cr6   O11   S    
C6    O55   S    
C22   H17   S    
C52   O16   A    
C20   H11   S    
C62   C68   S    
C107  N8    S    
C30   H47   S    
Cr4   O8    S    
C117  C119  S    
C126  H91   S    
C108  O67   A    
Cr7   O13   S    
Cr8   O22   S    
C85   C123  S    
C5    O54   S    
C61   C65   S    
C101  O41   A    
C63   O21   A    
C103  O43   A    
C16   H145  S    
C43   C47   S    
C44   C48   S    
C24   O52   S    
C78   C87   T    
C115  C121  T    
C111  O38   A    
C26   N16   S    
C5    H106  S    
C1    O14   A    
C58   C76   S    
C56   C57   S    
C62   O65   S    
C31   H50   S    
C123  H65   S    
C34   C51   S    
C18   H3    S    
C70   O24   A    
Cr12  O5    S    
C61   O59   S    
C25   O65   S    
Cr9   O46   S    
C14   N9    S    
C25   H22   S    
Cr2   O32   S    
C3    H100  S    
C84   C93   T    
H48   N6    S    
C50   H72   S    
C104  O45   A    
C46   C107  S    
C122  N16   S    
C35   H77   S    
C4    H102  S    
C96   H64   S    
H8    N15   S    
C70   C113  S    
C24   C50   S    
C40   C124  S    
C26   H27   S    
C127  H93   S    
C19   H6    S    
C29   H42   S    
C100  O44   A    
C30   H45   S    
C126  H89   S    
C62   O60   S    
C102  O42   A    
C45   C96   S    
Cr1   O1    S    
C60   O63   S    
C65   N9    S    
C116  C120  T    
C104  O68   A    
C96   N7    S    
C14   H136  S    
C14   H134  S    
C73   C105  S    
C17   N12   S    
C27   H31   S    
C21   H15   S    
C99   O35   A    
C7    H114  S    
C44   C85   S    
C120  C121  S    
Cr11  O21   S    
C68   N10   S    
Cr6   O38   S    
Cr12  O31   S    
C32   H53   S    
C57   C75   S    
C15   H139  S    
C92   C110  S    
C33   H58   S    
C25   H23   S    
C94   C112  S    
C127  H92   S    
C11   H126  S    
C20   H10   S    
C71   C116  S    
C51   H98   S    
C105  O56   A    
C114  C117  T    
C36   C54   S    
C37   C55   S    
C37   H83   S    
Cr3   O29   S    
C122  H1    S    
C27   H32   S    
C4    H104  S    
C7    O57   S    
C47   H142  S    
C46   C99   S    
Cr2   O6    S    
C58   H57   S    
C52   O20   A    
Cr3   O11   S    
C24   C42   S    
Cr8   O18   S    
C62   C76   S    
C69   O22   A    
Cr12  O9    S    
C6    H111  S    
C118  H69   S    
H146  N12   S    
C22   O63   S    
C12   H130  S    
C45   C98   S    
Cr2   O2    S    
C34   H80   S    
C108  O4    A    
C31   H51   S    
C60   C73   S    
C39   C123  S    
C10   H123  S    
C80   C89   T    
C95   O1    A    
C13   C40   S    
C64   O61   S    
C113  C119  T    
C98   O33   A    
C47   C118  S    
C21   O62   S    
H150  N13   S    
C43   C95   S    
C4    O53   S    
C1    O18   A    
C31   N6    S    
Cr11  O67   S    
C128  H95   S    
C60   C66   S    
C76   C108  S    
C59   C77   S    
C32   H55   S    
C79   C88   T    
C59   O57   S    
H4    N14   S    
Cr4   O13   S    
C11   O61   S    
C48   H74   S    
H26   N16   S    
C36   H78   S    
C17   H148  S    
C28   H36   S    
C74   H62   S    
C33   H60   S    
C25   H25   S    
C58   C59   S    
Cr12  O68   S    
C24   H68   S    
C19   H7    S    
C18   N13   S    
C35   C39   S    
Cr9   O24   S    
C72   C115  S    
C45   C49   S    
C51   H84   S    
C95   O31   A    
Cr1   O36   S    
C41   O15   A    
C57   H46   S    
C38   C122  S    
C93   C111  S    
C74   C122  S    
Cr10  O25   S    
C9    H119  S    
C75   C104  S    
C37   H79   S    
C125  N4    S    
C38   C63   S    
C77   C106  S    
C109  O5    A    
C12   H132  S    
C5    H105  S    
Cr11  O48   S    
Cr10  O66   S    
C81   C100  S    
C13   O51   S    
C22   H18   S    
C18   H151  S    
C31   H49   S    
C8    H115  S    
Cr7   O39   S    
C16   H143  S    
C106  O66   A    
C43   C51   S    
C18   H152  S    
C66   C75   S    
C47   H73   S    
C16   N11   S    
Cr1   O14   S    
Cr1   O40   S    
C72   O30   A    
C85   H63   S    
C38   C118  S    
C1    C42   S    
C2    C48   S    
C11   H127  S    
C71   O29   A    
C125  H87   S    
H43   N5    S    
Cr9   O19   S    
C3    H99   S    
C23   H19   S    
Cr1   O9    S    
C112  O8    A    
Cr5   O41   S    
C16   H144  S    
C8    O58   S    
C27   H33   S    
Cr4   O30   S    
C22   H16   S    
C61   C75   S    
C83   C92   T    
C26   H28   S    
C19   H5    S    
C29   H41   S    
C126  H90   S    
C112  O39   A    
H133  N9    S    
Cr5   O10   S    
C66   N13   S    
C69   O27   A    
Cr2   O28   S    
C98   O23   A    
C8    H117  S    
C65   C73   S    
H128  N1    S    
C54   H86   S    
C107  H66   S    
C86   C94   T    
C42   C125  S    
C103  O48   A    
C33   N8    S    
C2    C39   S    
C127  O50   S    
Cr2   O10   S    
C26   H29   S    
C29   H40   S    
C9    H121  S    
C21   H14   S    
C13   H67   S    
C97   O32   A    
Cr3   O33   S    
Cr10  O11   S    
Cr8   O44   S    
Cr5   O15   S    
C43   C74   S    
C39   C52   S    
Cr4   O35   S    
C7    H113  S    
C5    H107  S    
C14   H135  S    
C128  O51   S    
C12   N1    S    
C69   C114  S    
C2    H70   S    
C96   C124  S    
C56   H35   S    
C64   C67   S    
Cr11  O13   S    
C36   C40   S    
C32   H54   S    
C61   O62   S    
C66   N1    S    
C97   O12   A    
Cr3   O7    S    
C55   H88   S    
C105  O2    A    
C44   C97   S    
C59   H61   S    
C7    H112  S    
C111  O7    A    
C85   N6    S    
Cr8   O9    S    
C23   H20   S    
C49   H71   S    
Cr6   O16   S    
C11   H125  S    
C48   H2    S    
C53   H109  S    
Cr4   O4    S    
C13   C49   S    
C40   C41   S    
C45   C54   S    
C84   C89   S    
C27   N2    S    
Cr9   O10   S    
C36   H82   S    
C126  O49   S    
C124  H76   S    
C127  H94   S    
C72   O26   A    
C78   C103  S    
C34   C38   S    
C30   H44   S    
C63   O17   A    
Cr5   O12   S    
Cr8   O45   S    
C30   N5    S    
C10   O60   S    
C28   H37   S    
C46   C50   S    
C80   C101  S    
C41   O19   A    
C91   C109  S    
C57   O54   S    
H56   N8    S    
C17   H149  S    
Cr10  O20   S    
C10   H124  S    
C70   O28   A    
C2    O50   S    
C110  O6    A    
C74   N5    S    
C67   C76   S    
C28   N3    S    
C123  N2    S    
C28   H38   S    
H30   N2    S    
C23   H21   S    
C67   N14   S    
