data_mof_unit_25435.cif
_audit_creation_date              2012-12-11T15:04:15-0500
_audit_creation_method            fapswitch 2.2
_symmetry_space_group_name_H-M    P1
_symmetry_Int_Tables_number       1
_space_group_crystal_system       triclinic
_cell_length_a                    8.319599
_cell_length_b                    15.193477
_cell_length_c                    18.81696
_cell_angle_alpha                 100.386814
_cell_angle_beta                  91.116313
_cell_angle_gamma                 100.119912
_cell_volume                      2299.93976212

loop_
_atom_site_label
_atom_site_type_symbol
_atom_type_description
_atom_site_fract_x
_atom_site_fract_y
_atom_site_fract_z
_atom_type_partial_charge
Ba1   Ba    Ba6+2 0.854120 0.540280 0.465540 1.678826
Ba2   Ba    Ba6+2 0.335710 0.459790 0.534460 1.719037
C1    C     C_3   0.749692 0.852373 0.315855 -0.179864
C2    C     C_R   0.894626 0.407888 0.093885 0.026995
C3    C     C_R   0.736858 0.362138 0.068229 -0.064321
C4    C     C_3   0.136485 0.718037 0.267829 0.366456
C5    C     C_R   0.679930 0.361428 0.997589 -0.073551
C6    C     C_R   0.779970 0.405838 0.950707 0.042006
C7    C     C_R   0.938741 0.451664 0.975473 0.050705
C8    C     C_R   0.722800 0.405302 0.879839 -0.078434
C9    C     C_R   0.822372 0.449084 0.831894 -0.008333
C10   C     C_R   0.982590 0.496222 0.856726 0.007985
C11   C     C_R   0.039217 0.497288 0.928832 0.034258
C12   C     C_3   0.646764 0.767737 0.267824 0.330348
C13   C     C_R   0.765022 0.450408 0.760696 0.051933
C14   C     C_R   0.867984 0.497013 0.716523 -0.205651
C15   C     C_R   0.029358 0.538907 0.737097 -0.011492
C16   C     C_3   0.120326 0.740442 0.192673 -0.317694
C17   C     C_R   0.086020 0.542603 0.809950 -0.077265
C18   C     C_R   0.154213 0.498644 0.072768 0.003356
C19   C     C_R   0.210466 0.501931 0.145384 0.000110
C20   C     C_R   0.105514 0.460375 0.193651 -0.052007
C21   C     C_R   0.950641 0.410433 0.165490 -0.043045
C22   C     C_R   0.239227 0.593169 0.838613 0.032984
C23   C     C_3   0.440516 0.318997 0.315720 0.346377
C24   C     C_R   0.293453 0.595089 0.910322 0.027774
C25   C     C_R   0.196017 0.544668 0.954765 0.000896
C26   C     C_R   0.254568 0.543809 0.026011 0.024315
C27   C     C_R   0.444082 0.647582 0.938872 0.013567
C28   C     C_3   0.145174 0.765626 0.671444 0.259929
C29   C     C_R   0.507215 0.641373 0.006732 -0.072447
C30   C     C_R   0.413624 0.589038 0.050559 0.019530
C31   C     C_R   0.372450 0.546007 0.169028 -0.047554
C32   C     C_R   0.474490 0.584704 0.119552 -0.129161
C33   C     C_R   0.426159 0.552080 0.241879 -0.020521
C34   C     C_3   0.416951 0.297179 0.233101 -0.203784
C35   C     C_R   0.317120 0.518020 0.290560 -0.280146
C36   C     C_R   0.159287 0.470535 0.268080 0.065630
C37   C     C_R   0.761403 0.233971 0.519377 -0.312263
C38   C     C_R   0.852774 0.177351 0.546223 0.000363
C39   C     C_R   0.792691 0.083904 0.534496 -0.053236
C40   C     C_3   0.192941 0.853888 0.729146 -0.191913
C41   C     C_R   0.630504 0.046857 0.505816 -0.000493
C42   C     C_R   0.541822 0.107223 0.479031 -0.099378
C43   C     C_R   0.610825 0.198735 0.482373 -0.032762
C44   C     C_R   0.414898 0.906958 0.455191 -0.020180
C45   C     C_3   0.992685 0.244419 0.725954 0.213656
C46   C     C_R   0.353728 0.813897 0.443268 0.034065
C47   C     C_R   0.585902 0.789914 0.512249 0.031697
C48   C     C_R   0.635254 0.885559 0.532988 -0.106933
C49   C     C_R   0.560373 0.945705 0.498232 0.002209
C50   C     C_R   0.445317 0.755029 0.467037 -0.257096
C51   C     C_3   0.901137 0.239612 0.336318 0.214485
C52   C     C_3   0.817817 0.154998 0.280759 -0.167406
C53   C     C_3   0.701934 0.687296 0.693308 0.246244
C54   C     C_3   0.746654 0.739106 0.771058 -0.211047
C55   C     C_2   0.161567 0.841476 0.805317 0.452773
C56   C     C_3   0.871586 0.168814 0.751111 -0.214910
C57   C     C_2   0.992514 0.210521 0.394969 0.475500
C58   C     C_2   0.765138 0.176058 0.210095 0.540334
C59   C     C_2   0.668550 0.934443 0.330204 0.380914
C60   C     C_2   0.786902 0.678950 0.820843 0.334661
C61   C     C_2   0.614146 0.788788 0.800361 0.591901
C62   C     C_2   0.599973 0.789199 0.196028 0.562496
C63   C     C_2   0.295797 0.211630 0.203939 0.650841
C64   C     C_2   0.098065 0.305807 0.787603 0.490772
C65   C     C_2   0.952757 0.100978 0.780675 0.638507
C66   C     C_2   0.741055 0.919813 0.599659 0.512367
C67   C     C_3   0.502099 0.228562 0.686066 0.319336
C68   C     C_2   0.829344 0.329913 0.524881 0.570953
C69   C     C_2   0.175806 0.786380 0.597548 0.515526
C70   C     C_3   0.448307 0.134710 0.704620 -0.330195
C71   C     C_R   0.995969 0.452810 0.047424 0.012576
H1    H     H_    0.534208 0.748350 0.296500 -0.118342
H2    H     H_    0.324096 0.332470 0.338919 0.023640
H3    H     H_    0.535224 0.381681 0.330262 0.016975
H4    H     H_    0.374682 0.354346 0.213921 -0.056823
H5    H     H_    0.536630 0.292030 0.209779 0.068954
H6    H     H_    0.778575 0.834732 0.368779 0.085539
H7    H     H_    0.198992 0.806821 0.190337 0.156436
H8    H     H_    0.919446 0.288544 0.703228 -0.069794
H9    H     H_    0.794959 0.199714 0.792875 0.073577
H10   H     H_    0.790483 0.131988 0.703872 0.104203
H11   H     H_    0.314692 0.121030 0.710704 0.146115
H12   H     H_    0.324860 0.882589 0.726683 0.133422
H13   H     H_    0.656669 0.327262 0.102935 0.072438
H14   H     H_    0.599491 0.370932 0.863033 0.111195
H15   H     H_    0.869682 0.374494 0.198944 0.093723
H16   H     H_    0.317910 0.631526 0.805640 0.126242
H17   H     H_    0.512801 0.694235 0.908998 0.136334
H18   H     H_    0.627072 0.680093 0.025915 0.123126
H19   H     H_    0.262525 0.706527 0.276818 -0.084022
H20   H     H_    0.359706 0.523224 0.346110 0.063898
H21   H     H_    0.342742 0.947160 0.431227 0.100390
H22   H     H_    0.398415 0.682563 0.456271 0.058710
H23   H     H_    0.121611 0.905376 0.717048 0.054835
H24   H     H_    0.157974 0.686807 0.151698 0.052739
H25   H     H_    0.085147 0.882495 0.837522 0.061189
H26   H     H_    0.053917 0.262316 0.438163 0.010819
H27   H     H_    0.850111 0.217434 0.181172 -0.003606
H28   H     H_    0.734159 0.995958 0.364168 0.059265
H29   H     H_    0.906468 0.692563 0.848719 0.071043
H30   H     H_    0.492205 0.770098 0.775069 0.061314
H31   H     H_    0.472302 0.780258 0.178856 -0.031287
H32   H     H_    0.866791 0.872018 0.290476 0.145857
H33   H     H_    0.266325 0.193536 0.146142 -0.018681
H34   H     H_    0.805888 0.276846 0.359726 -0.063817
H35   H     H_    0.179299 0.364895 0.776671 0.058277
H36   H     H_    0.084861 0.109494 0.786031 0.008445
H37   H     H_    0.634440 0.238138 0.676017 -0.057134
H38   H     H_    0.433106 0.230882 0.635660 0.107201
H39   H     H_    0.478179 0.082055 0.660421 0.135121
H40   H     H_    0.048025 0.654748 0.270072 0.084636
H41   H     H_    0.510888 0.129930 0.756012 0.138405
H42   H     H_    0.557202 0.326015 0.979613 0.094652
H43   H     H_    0.817643 0.505673 0.665924 0.112679
H44   H     H_    0.600391 0.615119 0.134864 0.098321
H45   H     H_    0.710193 0.119805 0.305140 0.103658
H46   H     H_    0.877830 0.041924 0.545801 0.067021
H47   H     H_    0.859046 0.899719 0.604630 0.040331
H48   H     H_    0.420694 0.085655 0.453961 0.115032
H49   H     H_    0.889150 0.355901 0.480570 -0.023055
H50   H     H_    0.991837 0.744727 0.179364 0.177802
H51   H     H_    0.168698 0.730151 0.552477 0.003945
H52   H     H_    0.015665 0.737980 0.674038 -0.061826
H53   H     H_    0.903389 0.106593 0.267401 0.139573
H54   H     H_    0.794256 0.646303 0.673859 -0.054997
H55   H     H_    0.583230 0.641660 0.690641 0.095107
H56   H     H_    0.855826 0.791425 0.769239 0.055619
O1    O     O_2   0.871030 0.438240 0.324420 -0.473136
O2    O     O_2   0.189443 0.183982 0.544575 -0.461499
O3    O     O_3   0.095296 0.204597 0.675861 -0.629027
O4    O     O_3   0.120590 0.445310 0.413740 -0.506767
O5    O     O_3   0.582100 0.611510 0.537680 -0.477022
O6    O     O_2   0.334040 0.276520 0.462890 -0.449264
O7    O     O_3   0.490312 0.246158 0.341469 -0.607417
O8    O     O_2   0.434478 0.465230 0.757458 -0.467451
O9    O     O_3   0.469405 0.295679 0.743051 -0.611534
O10   O     O_3   0.663040 0.605930 0.370050 -0.463707
O11   O     O_2   0.747066 0.527193 0.244273 -0.486660
O12   O     O_3   0.695050 0.753524 0.651653 -0.649413
O13   O     O_3   0.016228 0.294172 0.302201 -0.669598
O14   O     O_3   0.742567 0.698995 0.255091 -0.610439
O15   O     O_2   0.855660 0.723510 0.537160 -0.489557
O16   O     O_3   0.086340 0.654970 0.406630 -0.498224
O17   O     O_2   0.020870 0.818328 0.453057 -0.459549
O18   O     O_2   0.224969 0.788411 0.832730 -0.595768
O19   O     O_2   0.001716 0.131070 0.394761 -0.594671
O20   O     O_2   0.629692 0.141677 0.182273 -0.555171
O21   O     O_2   0.531609 0.933541 0.305130 -0.572707
O22   O     O_2   0.685232 0.615176 0.831277 -0.620523
O23   O     O_3   0.103123 0.790896 0.319250 -0.578994
O24   O     O_2   0.642524 0.849799 0.853379 -0.519605
O25   O     O_2   0.704707 0.815741 0.156299 -0.570333
O26   O     O_2   0.230428 0.162048 0.243492 -0.522386
O27   O     O_2   0.092775 0.291652 0.849475 -0.612148
O28   O     O_2   0.869537 0.035697 0.799770 -0.529203
O29   O     O_2   0.693355 0.968126 0.650812 -0.581871
O30   O     O_2   0.813686 0.382452 0.579477 -0.596720
O31   O     O_2   0.209431 0.864520 0.587253 -0.624330
O32   O     O_2   0.318670 0.561790 0.675630 -0.453487
O33   O     O_3   0.069120 0.554770 0.586270 -0.477001
O34   O     O_3   0.526680 0.394150 0.629950 -0.442378
O35   O     O_3   0.244815 0.704020 0.683074 -0.644872
O36   O     O_3   0.607620 0.388570 0.462320 -0.481700
O37   O     O_3   0.103380 0.345110 0.593380 -0.468871
P1    P     P_3+3 0.038110 0.412300 0.335300 0.941512
P2    P     P_3+3 0.679950 0.711710 0.558590 0.995977
P3    P     P_3+3 0.142315 0.770493 0.405927 1.000547
P4    P     P_3+3 0.151600 0.587780 0.664700 0.984694
P5    P     P_3+3 0.059145 0.226504 0.589255 0.978106
P6    P     P_3+3 0.641027 0.596572 0.276625 0.944300
P7    P     P_3+3 0.510786 0.273955 0.436016 0.974952
P8    P     P_3+3 0.551260 0.402625 0.723610 0.996387

loop_
_geom_bond_atom_site_label_1
_geom_bond_atom_site_label_2
_ccdc_geom_bond_type
C53   C54   S    
C70   H39   S    
C53   O12   S    
C70   H41   S    
C57   H26   S    
Ba1   O16   S    
C28   O35   S    
C1    H6    S    
C22   H16   S    
Ba2   O33   S    
C28   C69   S    
C51   C57   S    
C5    C6    A    
C55   O18   D    
C52   C58   S    
C51   C52   S    
C1    H32   S    
C69   O31   D    
C52   H53   S    
O2    P5    D    
C24   C25   A    
Ba2   O5    S    
O15   P2    D    
C40   H23   S    
C12   H1    S    
C33   C35   A    
C22   C24   A    
O14   P6    S    
Ba1   Ba2   S    
C34   H4    S    
O4    P1    S    
Ba1   O4    S    
C19   C31   A    
O35   P4    S    
Ba1   P1    S    
O36   P7    S    
C13   C14   A    
C20   C36   A    
C62   O25   D    
C42   H48   S    
Ba2   O32   S    
C50   H22   S    
C68   O30   D    
C5    H42   S    
C23   O7    S    
C7    C11   A    
C15   C17   A    
O13   P1    S    
O7    P7    S    
C9    C13   A    
O1    P1    D    
C65   H36   S    
C63   O26   D    
C14   C15   A    
C44   H21   S    
O9    P8    S    
C16   H24   S    
C59   O21   D    
Ba2   O37   S    
C45   C64   S    
C54   H56   S    
Ba1   O10   S    
C16   H50   S    
C37   C43   A    
C4    O23   S    
C57   O19   D    
C32   H44   S    
C28   H52   S    
O37   P5    S    
O11   P6    D    
C19   C20   A    
C33   P6    S    
C39   C41   A    
C7    C71   A    
C66   O29   D    
C14   H43   S    
C40   C55   S    
C27   H17   S    
C48   C49   A    
C44   C46   A    
C1    C59   S    
C36   P1    S    
C4    C16   S    
O16   P3    S    
C8    H14   S    
Ba2   O4    S    
C60   O22   D    
C69   H51   S    
C26   C30   A    
C61   O24   D    
C47   P2    S    
C61   H30   S    
Ba1   O1    S    
C37   C38   A    
C3    C5    A    
C2    C21   A    
C34   C63   S    
C6    C7    A    
C18   C26   A    
Ba1   P2    S    
C44   C49   A    
C23   H2    S    
C30   C32   A    
C67   C70   S    
C59   H28   S    
C41   C42   A    
C4    H40   S    
C35   C36   A    
C43   P7    S    
C67   H37   S    
C68   H49   S    
C29   C30   A    
O33   P4    S    
Ba1   O36   S    
C51   O13   S    
C47   C50   A    
C12   C62   S    
C18   C19   A    
C31   C32   A    
C54   C61   S    
C35   H20   S    
O10   P6    S    
C65   O28   D    
C40   H12   S    
C39   H46   S    
C51   H34   S    
Ba2   O36   S    
C2    C71   A    
C70   H11   S    
C1    C12   S    
Ba2   P4    S    
C3    H13   S    
C16   H7    S    
C38   C39   A    
O3    P5    S    
C53   H54   S    
Ba1   O33   S    
C29   H18   S    
C21   H15   S    
C52   H45   S    
C54   C60   S    
O32   P4    D    
Ba1   O5    S    
O6    P7    D    
C63   H33   S    
C42   C43   A    
C67   O9    S    
C62   H31   S    
C12   O14   S    
O12   P2    S    
C13   P8    S    
C15   P4    S    
C11   C25   A    
C64   H35   S    
C2    C3    A    
C58   H27   S    
Ba2   O34   S    
C9    C10   A    
Ba2   O6    S    
C45   O3    S    
C23   H3    S    
C56   H9    S    
C17   C22   A    
O8    P8    D    
C27   C29   A    
Ba1   O15   S    
C34   H5    S    
C56   H10   S    
C66   H47   S    
C45   C56   S    
C64   O27   D    
O23   P3    S    
C67   H38   S    
C41   C49   S    
C4    H19   S    
C55   H25   S    
C10   C17   A    
C31   C33   A    
C37   C68   S    
C18   C71   A    
O5    P2    S    
C58   O20   D    
C45   H8    S    
C8    C9    A    
C23   C34   S    
C46   P3    S    
C56   C65   S    
C46   C50   A    
C53   H55   S    
C24   C27   A    
C6    C8    A    
C47   C48   A    
O17   P3    D    
C25   C26   A    
C20   C21   A    
C28   C40   S    
C10   C11   A    
O34   P8    S    
C48   C66   S    
C38   P5    S    
C60   H29   S    
