data_mof_unit_66834.cif
_audit_creation_date              2013-03-05T15:41:46-0500
_audit_creation_method            fapswitch 2.2
_symmetry_space_group_name_H-M    P1
_symmetry_Int_Tables_number       1
_space_group_crystal_system       triclinic
_cell_length_a                    8.68161
_cell_length_b                    15.122066
_cell_length_c                    15.393427
_cell_angle_alpha                 97.390096
_cell_angle_beta                  101.057072
_cell_angle_gamma                 98.455088
_cell_volume                      1936.06910002

loop_
_atom_site_label
_atom_site_type_symbol
_atom_site_description
_atom_site_fract_x
_atom_site_fract_y
_atom_site_fract_z
_atom_type_partial_charge
P1    P     P_3+3 0.004200 0.709230 0.580350 0.499245
O1    O     O_2   0.174080 0.723060 0.553930 -0.339124
O2    O     O_3   0.901570 0.609580 0.550840 -0.342673
O3    O     O_3   0.370350 0.665080 0.388270 -0.378360
O4    O     O_2   0.326234 0.816027 0.479375 -0.336976
O5    O     O_3   0.066517 0.737621 0.696461 -0.618889
O6    O     O_3   0.317944 0.828129 0.316996 -0.466714
C1    C     C_3   0.434742 0.907218 0.212563 -0.885267
H1    H     H_    0.363439 0.956568 0.236087 0.262813
P2    P     P_3+3 0.305000 0.425570 0.290900 0.557071
P3    P     P_3+3 0.876433 0.604888 0.222931 0.520496
O7    O     O_2   0.134790 0.452800 0.278150 -0.373534
O8    O     O_3   0.937650 0.618620 0.340860 -0.315191
O9    O     O_2   0.991639 0.548982 0.187776 -0.323966
O10   O     O_3   0.291128 0.305157 0.277137 -0.590754
O11   O     O_3   0.933496 0.708017 0.184273 -0.485728
C2    C     C_3   0.830144 0.772369 0.190479 0.325740
C3    C     C_3   0.878605 0.851789 0.137168 -0.349960
C4    C     C_3   0.734719 0.298939 0.236933 0.381868
C5    C     C_3   0.703564 0.240353 0.143624 -0.932730
H2    H     H_    0.639837 0.171016 0.143553 0.286295
H3    H     H_    0.633396 0.271861 0.091637 0.265331
H4    H     H_    0.816621 0.236931 0.121917 0.252277
Ba1   Ba    Ba6+2 0.154730 0.543770 0.458180 1.663487
C6    C     C_3   0.090283 0.663948 0.740332 0.078782
H5    H     H_    0.169609 0.624513 0.709442 0.127794
H6    H     H_    0.973927 0.619606 0.735046 0.135779
C7    C     C_3   0.171051 0.701601 0.840033 -0.527788
H7    H     H_    0.301312 0.715950 0.845096 0.208499
C8    C     C_3   0.144531 0.245187 0.245910 0.229330
H8    H     H_    0.045039 0.281573 0.237914 0.122766
C9    C     C_3   0.144651 0.184256 0.155031 -0.196513
P4    P     P_3+3 0.806080 0.290760 0.419570 0.565951
O12   O     O_2   0.636200 0.276890 0.446040 -0.302559
O13   O     O_3   0.908720 0.390410 0.449080 -0.360228
O14   O     O_3   0.439930 0.334910 0.611650 -0.370086
O15   O     O_3   0.780248 0.245947 0.303163 -0.559449
P5    P     P_3+3 0.940758 0.379030 0.773469 0.471999
O16   O     O_3   0.402060 0.547860 0.609750 -0.358730
O17   O     O_3   0.872630 0.381370 0.659060 -0.366002
O18   O     O_2   0.845192 0.439086 0.823120 -0.340566
O19   O     O_3   0.876467 0.270012 0.793968 -0.487467
Ba2   Ba    Ba6+2 0.655430 0.456220 0.541750 1.602171
P6    P     P_3+3 0.416683 0.784777 0.408404 0.504331
C10   C     C_3   0.390240 0.814863 0.243346 0.281996
H9    H     H_    0.502686 0.790141 0.262023 -0.005746
H10   H     H_    0.559327 0.935592 0.246483 0.205599
O20   O     O_3   0.408220 0.452130 0.390170 -0.296565
C11   C     C_3   0.598747 0.747707 0.732936 0.401426
H11   H     H_    0.537737 0.740678 0.662360 0.066392
C12   C     C_3   0.594287 0.844377 0.777981 -0.557644
H12   H     H_    0.654045 0.854748 0.850202 0.214048
H13   H     H_    0.662595 0.893696 0.745815 0.184851
P7    P     P_3+3 0.502409 0.570387 0.724036 0.448896
O21   O     O_2   0.675490 0.547140 0.721820 -0.367597
O22   O     O_3   0.518573 0.684176 0.774612 -0.620452
C13   C     C_3   0.896250 0.206446 0.723365 0.316402
H14   H     H_    0.792033 0.196851 0.666235 0.132275
H15   H     H_    0.006780 0.227781 0.699095 0.032378
C14   C     C_3   0.910596 0.116073 0.755632 -0.728299
H16   H     H_    0.922361 0.065697 0.699190 0.137011
H17   H     H_    0.018595 0.125397 0.809742 0.220197
P8    P     P_3+3 0.391776 0.216454 0.596708 0.409140
C15   C     C_3   0.418580 0.219040 0.768986 0.188950
H18   H     H_    0.298739 0.237461 0.748026 -0.011921
O23   O     O_2   0.496676 0.185228 0.533220 -0.419294
O24   O     O_3   0.474820 0.179732 0.695839 -0.553828
C16   C     C_3   0.403958 0.148741 0.833233 -0.337734
H19   H     H_    0.524511 0.134838 0.860336 0.235906
C17   C     C_R   0.174688 0.167473 0.545015 0.073939
C18   C     C_R   0.104178 0.074581 0.540499 -0.060150
C19   C     C_R   0.957499 0.891075 0.541616 -0.039702
C20   C     C_R   0.118627 0.922612 0.578033 -0.135865
C21   C     C_R   0.194003 0.007085 0.566611 -0.137553
C22   C     C_R   0.888081 0.797921 0.536912 0.242911
H20   H     H_    0.192188 0.878392 0.607507 0.191640
C23   C     C_R   0.721229 0.772207 0.506060 -0.312340
C24   C     C_R   0.912472 0.203628 0.476715 0.209364
C25   C     C_R   0.842119 0.109015 0.469453 0.026766
C26   C     C_R   0.936532 0.046807 0.507376 0.032239
C27   C     C_R   0.684256 0.070919 0.421065 0.100202
C28   C     C_R   0.617196 0.982272 0.424668 -0.303541
C29   C     C_R   0.702950 0.922340 0.465135 0.016622
C30   C     C_R   0.865333 0.953557 0.505368 0.047787
C31   C     C_R   0.631084 0.831008 0.462895 0.126327
C32   C     C_R   0.078050 0.229106 0.513146 -0.453007
H21   H     H_    0.494245 0.960923 0.392473 0.187839
C33   C     C_R   0.245664 0.461886 0.764558 -0.446495
C34   C     C_R   0.158338 0.418105 0.817759 0.212765
C35   C     C_R   0.233346 0.411346 0.905576 -0.355020
C36   C     C_R   0.385369 0.464491 0.948105 0.104158
C37   C     C_R   0.470005 0.511174 0.890518 -0.171967
C38   C     C_R   0.403468 0.503228 0.797548 0.187650
C39   C     C_R   0.611716 0.501656 0.089206 -0.213063
C40   C     C_R   0.668233 0.539000 0.179909 0.012570
C41   C     C_R   0.407413 0.482851 0.208443 0.271901
C42   C     C_R   0.342296 0.467377 0.113704 -0.236928
C43   C     C_R   0.445965 0.476879 0.051164 0.044870
C44   C     C_R   0.563769 0.531683 0.238633 -0.391936
H22   H     H_    0.698905 0.496282 0.048897 0.207110
H23   H     H_    0.167321 0.367641 0.940799 0.153056
H24   H     H_    0.185549 0.471455 0.699702 0.204384
C45   C     C_2   0.278226 0.744574 0.172506 0.716322
H25   H     H_    0.190140 0.763713 0.121939 0.049236
O25   O     O_2   0.282099 0.664460 0.173277 -0.582238
C46   C     C_2   0.139633 0.634005 0.900332 0.582055
H26   H     H_    0.025997 0.589192 0.887582 0.104381
O26   O     O_2   0.239988 0.632746 0.967293 -0.573708
C47   C     C_2   0.125297 0.790214 0.875398 0.608742
H27   H     H_    0.067526 0.831334 0.831153 0.053737
O27   O     O_2   0.163190 0.821001 0.955041 -0.615803
C48   C     C_2   0.132687 0.184770 0.315929 0.390139
H28   H     H_    0.237831 0.183225 0.366455 0.057576
O28   O     O_2   0.009702 0.133360 0.314237 -0.600833
C49   C     C_2   0.424857 0.905635 0.113861 0.606300
H29   H     H_    0.408241 0.842884 0.068491 0.140194
O29   O     O_2   0.444155 0.976523 0.084252 -0.560725
N1    N     N_3   0.159184 0.242197 0.086573 -0.158108
H30   H     H_    0.276793 0.273884 0.094315 0.146422
H31   H     H_    0.125834 0.204206 0.022250 0.190223
C50   C     C_2   0.992125 0.115131 0.121231 0.530721
H32   H     H_    0.897960 0.109418 0.158025 0.084970
O30   O     O_2   0.973412 0.063656 0.050582 -0.575316
N2    N     N_3   0.276873 0.133210 0.167308 -0.199922
H33   H     H_    0.385381 0.176807 0.191886 0.136085
H34   H     H_    0.282844 0.098657 0.105172 0.239969
N3    N     N_3   0.764063 0.736178 0.741566 -0.193272
H35   H     H_    0.825583 0.791032 0.720051 0.060100
H36   H     H_    0.812649 0.737936 0.809485 0.129222
N4    N     N_3   0.432967 0.864557 0.768545 -0.175585
H37   H     H_    0.351856 0.815503 0.721250 0.194516
H38   H     H_    0.399639 0.864943 0.830214 0.163455
N5    N     N_3   0.763254 0.913881 0.137632 -0.227305
H39   H     H_    0.790525 0.959099 0.198110 0.149906
H40   H     H_    0.764423 0.952858 0.086442 0.173188
C51   C     C_2   0.769065 0.079782 0.790391 0.715492
H41   H     H_    0.652555 0.063702 0.746302 0.075257
O31   O     O_2   0.784475 0.066603 0.867917 -0.542728
C52   C     C_2   0.534721 0.304267 0.814208 0.598471
H42   H     H_    0.553090 0.359224 0.776860 0.087061
O32   O     O_2   0.610030 0.312748 0.891390 -0.566356
C53   C     C_2   0.338116 0.183849 0.910882 0.646576
H43   H     H_    0.239402 0.220216 0.900713 -0.055683
O33   O     O_2   0.395925 0.171411 0.985931 -0.601152
C54   C     C_2   0.845309 0.811968 0.287882 0.497275
H44   H     H_    0.763742 0.854828 0.306052 -0.079168
O34   O     O_2   0.954238 0.800733 0.346168 -0.479323
N6    N     N_3   0.302454 0.063214 0.787677 -0.202206
H45   H     H_    0.369155 0.026161 0.752245 0.188209
H46   H     H_    0.208032 0.075928 0.740699 0.115783
C55   C     C_2   0.359522 0.010049 0.557234 0.730235
H47   H     H_    0.391536 0.034019 0.499365 0.024747
O35   O     O_2   0.455354 0.978819 0.608104 -0.654770
N7    N     N_3   0.592915 0.116656 0.359602 -0.144121
H48   H     H_    0.475468 0.109411 0.368325 0.124820
H49   H     H_    0.590907 0.086809 0.294297 0.136018
N8    N     N_3   0.642630 0.685337 0.518724 -0.126204
H50   H     H_    0.691354 0.672529 0.581732 0.130377
H51   H     H_    0.528432 0.688922 0.527871 0.160188
C56   C     C_2   0.158049 0.319378 0.506007 0.740039
H52   H     H_    0.219783 0.329037 0.452305 0.001112
O36   O     O_2   0.159874 0.383635 0.562565 -0.571361
C57   C     C_2   0.168305 0.459547 0.082386 0.674886
H53   H     H_    0.122390 0.503904 0.037809 0.103634
O37   O     O_2   0.073779 0.401981 0.102318 -0.600969
C58   C     C_2   0.657587 0.728738 0.151225 0.358191
H54   H     H_    0.592184 0.689963 0.189910 -0.008594
O38   O     O_2   0.587776 0.737030 0.077073 -0.609643
C59   C     C_2   0.612254 0.581393 0.925425 0.629307
H55   H     H_    0.597367 0.650379 0.942555 0.123977
O39   O     O_2   0.745073 0.564560 0.925066 -0.547791
C60   C     C_2   0.616719 0.582628 0.329497 0.805675
H56   H     H_    0.617059 0.654665 0.339608 -0.150988
O40   O     O_2   0.680549 0.547976 0.390552 -0.494797
C61   C     C_2   0.043248 0.906540 0.176950 0.546905
H57   H     H_    0.125259 0.920255 0.133513 0.028299
O41   O     O_2   0.080821 0.942971 0.255361 -0.543902
C62   C     C_2   0.877812 0.815410 0.039926 0.652413
H58   H     H_    0.868195 0.860141 0.990089 0.021678
O42   O     O_2   0.893964 0.737722 0.016611 -0.542578
C63   C     C_2   0.591361 0.331136 0.247923 0.510105
H59   H     H_    0.492672 0.324730 0.192214 -0.031678
O43   O     O_2   0.594589 0.375310 0.319392 -0.506260
N9    N     N_3   0.856450 0.376568 0.241326 -0.166300
H60   H     H_    0.831000 0.403444 0.182158 0.144041
H61   H     H_    0.858845 0.427351 0.294786 0.185461

loop_
_geom_bond_atom_site_label_1
_geom_bond_atom_site_label_2
_geom_bond_distance
_ccdc_geom_bond_type
C8    C9    1.573305 S    
N8    H50   1.035475 S    
C52   O32   1.222167 D    
C20   C21   1.395348 A    
C9    N2    1.471097 S    
N4    H38   1.043726 S    
C57   H53   1.082499 S    
C26   C30   1.447982 A    
C4    C63   1.432635 S    
C48   O28   1.218650 D    
C62   H58   1.085637 S    
C35   C36   1.427468 A    
C61   O41   1.221428 D    
C63   H59   1.072959 S    
C6    C7    1.554462 S    
P5    C34   1.859098 S    
O2    Ba2   2.882483 S    
C15   C16   1.550239 S    
C7    H7    1.105311 S    
C57   O37   1.216797 D    
N6    H46   1.042401 S    
P5    O19   1.749196 S    
P2    O20   1.584447 S    
C2    C58   1.517969 S    
C47   O27   1.217144 D    
C8    H8    1.086446 S    
O3    Ba1   2.880658 S    
P3    O9    1.531822 D    
C40   C44   1.400924 A    
P4    C24   1.925480 S    
C13   H15   1.114422 S    
O5    C6    1.395531 S    
C46   H26   1.079787 S    
C39   C43   1.419782 A    
C49   H29   1.076870 S    
C41   C44   1.406710 A    
C42   C43   1.444767 A    
Ba1   O16   2.839067 S    
N9    H60   1.043080 S    
C3    N5    1.470408 S    
C14   H17   1.106406 S    
P1    O1    1.595467 D    
C59   H55   1.075397 S    
N1    H30   1.039749 S    
C18   C26   1.426600 A    
P7    C38   1.860569 S    
C10   C45   1.501901 S    
C1    C49   1.502135 S    
C1    C10   1.551160 S    
O17   Ba2   2.818706 S    
C29   C30   1.409962 A    
C7    C46   1.496669 S    
C1    H1    1.106149 S    
C49   O29   1.219474 D    
C55   H47   1.072653 S    
P8    C17   1.896428 S    
C16   C53   1.491766 S    
C17   C18   1.434734 A    
P2    C41   1.908190 S    
O14   P8    1.753093 S    
C4    O15   1.409444 S    
Ba2   O20   2.838550 S    
C14   C51   1.492186 S    
N7    H49   1.043471 S    
C16   N6    1.461355 S    
C3    C61   1.513071 S    
C24   C32   1.414788 A    
P8    O23   1.535128 D    
C23   C31   1.414843 A    
N8    H51   1.035889 S    
C58   O38   1.216451 D    
C59   O39   1.217716 D    
O2    Ba1   3.055465 S    
C19   C22   1.435326 A    
O19   C13   1.409292 S    
C48   H28   1.085048 S    
C54   O34   1.220318 D    
C12   N4    1.461065 S    
C60   O40   1.215440 D    
C54   H44   1.078906 S    
P8    O24   1.752259 S    
C63   O43   1.204563 D    
C11   N3    1.454050 S    
P7    O22   1.768949 S    
Ba1   O13   2.881763 S    
C12   H12   1.113408 S    
P4    Ba2   3.493367 S    
C15   O24   1.408406 S    
N6    H45   1.041499 S    
P5    O18   1.543855 D    
C51   O31   1.220481 D    
C36   C37   1.443033 A    
C25   C27   1.425082 A    
C24   C25   1.451987 A    
O11   C2    1.423704 S    
C13   C14   1.526706 S    
O16   Ba2   3.043192 S    
C44   C60   1.460556 S    
O3    P6    1.768605 S    
C11   C12   1.544513 S    
C6    H5    1.108792 S    
C10   H9    1.096688 S    
P4    O15   1.791426 S    
C27   N7    1.429749 S    
P1    O5    1.742133 S    
O8    Ba1   2.818160 S    
C8    C48   1.508375 S    
C14   H16   1.110078 S    
C12   H13   1.109349 S    
P1    C22   1.905762 S    
C2    C54   1.514645 S    
N3    H36   1.045039 S    
C35   H23   1.076730 S    
C42   C57   1.476986 S    
P3    O11   1.776594 S    
Ba1   O20   3.044148 S    
C62   O42   1.219790 D    
C61   H57   1.082542 S    
C5    H4    1.101810 S    
C39   H22   1.072312 S    
C37   C59   1.467797 S    
C41   C42   1.434659 A    
C2    C3    1.590670 S    
N7    H48   1.045523 S    
C45   O25   1.218399 D    
O6    P6    1.756227 S    
C5    H2    1.111012 S    
C22   C23   1.413513 A    
C50   H32   1.079799 S    
C19   C30   1.425153 A    
P2    O7    1.574848 D    
Ba2   O21   2.892767 S    
C29   C31   1.422698 A    
O4    P6    1.529322 D    
C5    H3    1.111301 S    
C28   C29   1.389030 A    
O1    Ba1   2.880025 S    
C58   H54   1.068851 S    
C20   H20   1.073944 S    
C53   O33   1.217849 D    
C21   C55   1.466292 S    
P6    C31   1.877381 S    
C17   C32   1.415227 A    
O6    C10   1.403913 S    
O13   Ba2   3.056518 S    
C60   H56   1.079888 S    
O10   C8    1.409621 S    
N2    H34   1.043550 S    
P3    C40   1.881471 S    
P7    O21   1.598284 D    
C33   C38   1.387522 A    
C9    C50   1.518421 S    
C16   H19   1.110582 S    
O12   Ba2   2.880503 S    
C9    N1    1.466339 S    
C19   C20   1.390224 A    
C4    N9    1.444590 S    
C18   C21   1.425080 A    
C33   H24   1.072165 S    
C52   H42   1.079685 S    
C7    C47   1.517087 S    
C6    H6    1.109914 S    
C11   O22   1.397211 S    
O7    Ba1   2.892685 S    
N9    H61   1.045728 S    
P2    O10   1.789281 S    
P2    Ba1   3.509671 S    
C15   H18   1.115232 S    
C4    C5    1.540879 S    
N4    H37   1.042568 S    
C1    H10   1.102665 S    
C47   H27   1.082470 S    
C56   H52   1.081630 S    
P5    O17   1.753669 S    
P3    O8    1.766782 S    
C13   H14   1.111945 S    
N5    H39   1.046140 S    
C46   O26   1.219578 D    
C37   C38   1.419335 A    
P4    O13   1.595285 S    
P4    O12   1.595831 D    
C55   O35   1.220316 D    
C36   C43   1.550177 S    
C39   C40   1.400713 A    
N1    H31   1.043583 S    
C50   O30   1.221610 D    
C25   C26   1.442915 A    
O16   P7    1.772187 S    
C28   H21   1.069486 S    
C33   C34   1.383396 A    
C3    C62   1.525276 S    
P1    Ba1   3.492680 S    
C27   C28   1.393215 A    
C11   H11   1.097790 S    
C23   N8    1.443135 S    
C45   H25   1.081285 S    
N5    H40   1.043655 S    
Ba1   Ba2   4.804893 S    
C53   H43   1.081979 S    
C51   H41   1.079237 S    
O14   Ba2   2.879915 S    
P1    O2    1.595256 S    
C34   C35   1.406888 A    
C32   C56   1.465267 S    
N3    H35   1.044640 S    
C56   O36   1.214490 D    
N2    H33   1.040046 S    
C15   C52   1.509997 S    
