data_mof_unit_25189.cif
_audit_creation_date              2012-12-10T17:51:30-0500
_audit_creation_method            fapswitch 2.2
_symmetry_space_group_name_H-M    P1
_symmetry_Int_Tables_number       1
_space_group_crystal_system       triclinic
_cell_length_a                    9.876799
_cell_length_b                    10.728238
_cell_length_c                    16.669097
_cell_angle_alpha                 91.671342
_cell_angle_beta                  85.14602
_cell_angle_gamma                 89.595376
_cell_volume                      1759.10452876

loop_
_atom_site_label
_atom_site_type_symbol
_atom_type_description
_atom_site_fract_x
_atom_site_fract_y
_atom_site_fract_z
_atom_type_partial_charge
C1    C     C_R   0.499291 0.739951 0.494351 0.867831
C2    C     C_R   0.529145 0.551341 0.264969 -0.031783
C3    C     C_R   0.243993 0.889325 0.475321 -0.261988
C4    C     C_R   0.481050 0.502493 0.653541 0.854179
C5    C     C_R   0.121339 0.950487 0.498771 -0.243115
C6    C     C_R   0.121573 0.063330 0.541782 0.663298
C7    C     C_R   0.244718 0.120493 0.554080 -0.253710
C8    C     C_R   0.369722 0.064370 0.523404 0.013969
C9    C     C_R   0.369454 0.940400 0.495499 0.102388
C10   C     C_R   0.495022 0.873675 0.489972 -0.101324
C11   C     C_R   0.618058 0.936109 0.494011 -0.214190
C12   C     C_R   0.345490 0.564873 0.780430 -0.204283
C13   C     C_R   0.618252 0.063002 0.504466 -0.181617
C14   C     C_R   0.495133 0.128100 0.517014 -0.108143
C15   C     C_R   0.843832 0.665168 0.605056 -0.176244
C16   C     C_R   0.498665 0.260870 0.507836 0.891875
C17   C     C_R   0.906619 0.746209 0.656646 -0.164840
C18   C     C_R   0.046670 0.745490 0.656822 -0.183187
C19   C     C_R   0.124685 0.663975 0.605238 -0.172971
C20   C     C_R   0.064582 0.581155 0.551765 0.159781
C21   C     C_R   0.919773 0.581392 0.551699 0.167334
C22   C     C_R   0.936024 0.421879 0.450764 -0.076028
C23   C     C_R   0.430503 0.671224 0.163780 -0.233146
C24   C     C_R   0.079375 0.421930 0.450773 -0.092522
C25   C     C_R   0.518737 0.507162 0.346968 0.861059
C26   C     C_R   0.469414 0.524275 0.740425 -0.037537
C27   C     C_R   0.585804 0.517063 0.782614 -0.236321
C28   C     C_R   0.579471 0.553512 0.863220 -0.069461
C29   C     C_R   0.457229 0.600213 0.902172 0.231979
C30   C     C_R   0.339589 0.602481 0.861106 -0.174897
C31   C     C_R   0.419574 0.618672 0.238843 -0.170202
C32   C     C_R   0.652087 0.542128 0.216468 -0.214205
C33   C     C_R   0.662255 0.593345 0.140430 -0.123919
C34   C     C_R   0.549943 0.654425 0.112986 0.093403
C35   C     C_2   0.446080 0.630648 0.988337 -0.367547
C36   C     C_2   0.549402 0.676617 0.027065 0.571396
F1    F     F_    0.002502 0.119877 0.568869 -0.685642
F2    F     F_    0.664166 0.719417 0.986239 -0.677790
H1    H     H_    0.682055 0.484268 0.753223 0.173571
H2    H     H_    0.845999 0.809708 0.696902 0.174429
H3    H     H_    0.325544 0.631895 0.276661 0.154000
H4    H     H_    0.095389 0.808531 0.697097 0.162549
H5    H     H_    0.231452 0.668833 0.609027 0.209236
H6    H     H_    0.139701 0.358136 0.410682 0.149431
H7    H     H_    0.738936 0.493622 0.236718 0.150811
H8    H     H_    0.243559 0.634142 0.891398 0.145490
H9    H     H_    0.343649 0.720126 0.143820 0.138233
H10   H     H_    0.254143 0.570748 0.749091 0.163175
H11   H     H_    0.354249 0.599267 0.022134 0.122669
H12   H     H_    0.754848 0.579177 0.101422 0.163538
H13   H     H_    0.669552 0.542320 0.895087 0.180291
H14   H     H_    0.714958 0.887203 0.488478 0.177998
H15   H     H_    0.238366 0.804270 0.439544 0.191617
H16   H     H_    0.026149 0.908775 0.485056 0.164801
H17   H     H_    0.240981 0.207800 0.588348 0.188915
H18   H     H_    0.715232 0.110011 0.501638 0.206783
H19   H     H_    0.888165 0.358124 0.410631 0.142141
H20   H     H_    0.735983 0.671089 0.609201 0.209600
N1    N     N_R   0.857140 0.501200 0.500750 -0.120846
N2    N     N_R   0.142740 0.501280 0.500770 -0.127942
O1    O     O_R   0.385310 0.683220 0.500000 -0.650744
O2    O     O_R   0.614640 0.683250 0.500010 -0.641113
O3    O     O_R   0.371780 0.500010 0.615800 -0.639040
O4    O     O_R   0.601110 0.500030 0.615800 -0.628387
O5    O     O_R   0.385360 0.316750 0.499990 -0.619683
O6    O     O_R   0.614690 0.316780 0.500000 -0.606071
O7    O     O_R   0.398890 0.499970 0.384200 -0.622123
O8    O     O_R   0.628220 0.499990 0.384200 -0.613690
Zn1   Zn    Zn3+2 0.346870 0.499980 0.499990 0.928205
Zn2   Zn    Zn3+2 0.653130 0.500020 0.500010 0.950276

loop_
_geom_bond_atom_site_label_1
_geom_bond_atom_site_label_2
_ccdc_geom_bond_type
C35   H11   S    
C4    C26   S    
C21   N1    A    
C6    C7    A    
C3    C9    A    
O4    Zn2   S    
C20   N2    A    
C3    H15   S    
C9    C10   A    
C4    O4    A    
C19   C20   A    
C25   O7    A    
C7    H17   S    
C12   H10   S    
C13   H18   S    
C27   C28   A    
C32   C33   A    
C23   C34   A    
C22   H19   S    
C36   F2    S    
C17   C18   A    
C6    F1    S    
C7    C8    A    
O6    Zn2   S    
C13   C14   A    
C1    O2    A    
C11   C13   A    
C4    O3    A    
C26   C27   A    
C29   C30   A    
C25   O8    A    
N2    Zn1   S    
O5    Zn1   S    
C22   C24   A    
O8    Zn2   S    
C28   C29   A    
C28   H13   S    
C19   H5    S    
C33   C34   A    
C2    C25   S    
C34   C36   S    
C18   H4    S    
C5    C6    A    
C24   H6    S    
C15   H20   S    
C14   C16   S    
C35   C36   D    
C23   H9    S    
C10   C11   A    
N1    Zn2   S    
C27   H1    S    
C24   N2    A    
C3    C5    A    
C5    H16   S    
C15   C21   A    
C16   O6    A    
C20   C21   A    
O2    Zn2   S    
C2    C32   A    
C18   C19   A    
C32   H7    S    
O1    Zn1   S    
C22   N1    A    
C15   C17   A    
C29   C35   S    
C23   C31   A    
C2    C31   A    
C8    C14   A    
C11   H14   S    
C31   H3    S    
C12   C30   A    
C33   H12   S    
C16   O5    A    
C30   H8    S    
C1    C10   S    
O3    Zn1   S    
C12   C26   A    
C8    C9    A    
O7    Zn1   S    
C17   H2    S    
C1    O1    A    
