data_mof_unit_27783.cif
_audit_creation_date              2012-12-11T14:17:44-0500
_audit_creation_method            fapswitch 2.2
_symmetry_space_group_name_H-M    P1
_symmetry_Int_Tables_number       1
_space_group_crystal_system       triclinic
_cell_length_a                    6.940801
_cell_length_b                    13.621215
_cell_length_c                    20.523997
_cell_angle_alpha                 102.310375
_cell_angle_beta                  89.877025
_cell_angle_gamma                 90.512561
_cell_volume                      1895.69148816

loop_
_atom_site_label
_atom_site_type_symbol
_atom_type_description
_atom_site_fract_x
_atom_site_fract_y
_atom_site_fract_z
_atom_type_partial_charge
O1    O     O_R   0.506860 0.599390 0.449240 -0.539284
O2    O     O_R   0.180220 0.594600 0.586780 -0.541826
O3    O     O_R   0.004500 0.400610 0.550760 -0.539608
C1    C     C_R   0.348844 0.615660 0.613612 0.750663
O4    O     O_R   0.177490 0.611290 0.451970 -0.538980
O5    O     O_R   0.001750 0.417420 0.414990 -0.547273
C2    C     C_R   0.346582 0.636727 0.434443 0.679967
O6    O     O_R   0.509610 0.582580 0.585010 -0.543496
O7    O     O_3   0.337420 0.436370 0.488020 -0.376122
V1    V     V_3+5 0.064680 0.511800 0.502220 1.457295
O8    O     O_R   0.671710 0.405400 0.413220 -0.539649
C3    C     C_R   0.840471 0.386444 0.385850 0.625692
O9    O     O_R   0.674440 0.388710 0.548030 -0.542953
C4    C     C_R   0.842675 0.363366 0.565673 0.688536
V2    V     V_3+5 0.564010 0.488200 0.497780 1.456613
O10   O     O_3   0.841140 0.563630 0.511980 -0.364717
C5    C     C_R   0.924347 0.116522 0.611631 -0.100214
H1    H     H_    0.950239 0.174287 0.523005 0.124408
H2    H     H_    0.968677 0.043123 0.584815 0.170144
C6    C     C_R   0.851706 0.287189 0.606152 -0.114065
C7    C     C_R   0.878665 0.313840 0.926954 0.208291
C8    C     C_R   0.886912 0.389740 0.889789 0.300248
C9    C     C_R   0.887904 0.363093 0.820516 -0.106161
C10   C     C_R   0.861490 0.262654 0.785372 -0.039149
C11   C     C_R   0.859613 0.185071 0.822105 -0.052973
C12   C     C_R   0.851332 0.237744 0.714273 0.055800
C13   C     C_R   0.884592 0.136886 0.680625 0.016438
C14   C     C_R   0.881003 0.059155 0.716605 -0.065808
C15   C     C_R   0.857596 0.082872 0.786746 0.246135
C16   C     C_R   0.810378 0.310160 0.675371 0.292893
C17   C     C_R   0.914571 0.191682 0.575646 -0.230032
C18   C     C_R   0.863830 0.212595 0.893405 -0.150783
H3    H     H_    0.916512 0.423312 0.795107 0.199877
C19   C     C_2   0.996676 0.275589 0.286792 0.024025
C20   C     C_2   0.847700 0.336687 0.313981 -0.208056
C21   C     C_2   0.002440 0.226511 0.214549 -0.044640
C22   C     C_2   0.860553 0.164223 0.185753 0.212390
H4    H     H_    0.131503 0.236304 0.186471 0.137717
C23   C     C_2   0.204364 0.785945 0.784163 -0.114328
C24   C     C_2   0.364690 0.816116 0.819813 -0.254265
H5    H     H_    0.065309 0.811463 0.805244 0.148240
H6    H     H_    0.504744 0.790823 0.800105 0.122983
C25   C     C_2   0.202698 0.718239 0.716451 -0.132894
C26   C     C_2   0.360798 0.683078 0.680581 -0.277105
H7    H     H_    0.061160 0.697212 0.695285 0.143239
H8    H     H_    0.504093 0.702903 0.699991 0.134625
C27   C     C_R   0.395312 0.884336 0.385373 -0.134341
H9    H     H_    0.426877 0.831561 0.475694 0.131334
H10   H     H_    0.357299 0.011932 0.307153 0.161953
H11   H     H_    0.416566 0.962079 0.410622 0.125165
C28   C     C_R   0.356893 0.710819 0.392386 -0.102243
C29   C     C_R   0.382171 0.682240 0.070313 -0.127351
C30   C     C_R   0.411873 0.607743 0.107527 -0.056908
C31   C     C_R   0.409123 0.634787 0.177246 -0.028496
C32   C     C_R   0.361590 0.732396 0.211946 0.005044
C33   C     C_R   0.346641 0.809871 0.175291 0.000420
C34   C     C_R   0.347093 0.756351 0.283141 0.081382
C35   C     C_R   0.366581 0.858338 0.316285 0.076921
C36   C     C_R   0.353786 0.934069 0.280565 -0.252967
C37   C     C_R   0.330427 0.911374 0.211191 0.296873
C38   C     C_R   0.316848 0.683638 0.323267 -0.090482
C39   C     C_R   0.399889 0.810369 0.422528 -0.147399
C40   C     C_R   0.356819 0.783643 0.104143 -0.099293
H12   H     H_    0.449728 0.578555 0.204467 0.163036
O11   O     O_R   0.203230 0.917310 0.915020 -0.531324
O12   O     O_R   0.535500 0.888690 0.048040 -0.560613
O13   O     O_R   0.711080 0.082610 0.085000 -0.537936
C41   C     C_R   0.366296 0.862146 0.064843 0.861072
O14   O     O_R   0.532630 0.905370 0.913230 -0.547497
O15   O     O_R   0.708190 0.099410 0.949230 -0.535523
C42   C     C_R   0.364626 0.884172 0.886516 0.780298
O16   O     O_R   0.206120 0.900510 0.050790 -0.517744
O17   O     O_3   0.375360 0.063570 0.011990 -0.373242
V3    V     V_3+5 0.648170 0.988200 0.997780 1.538359
O18   O     O_R   0.038240 0.111390 0.951940 -0.546665
C43   C     C_R   0.870067 0.137147 0.934713 0.908653
O19   O     O_R   0.041120 0.094710 0.086750 -0.543243
C44   C     C_R   0.872624 0.111186 0.114654 0.675337
V4    V     V_3+5 0.148810 0.011930 0.002180 1.570839
O20   O     O_3   0.871750 0.936430 0.988010 -0.375655
C45   C     C_2   0.694346 0.368985 0.272201 0.570717
H13   H     H_    0.556792 0.394647 0.294420 0.034950
O21   O     O_2   0.722549 0.372742 0.214049 -0.484295
O22   O     O_3   0.705692 0.147146 0.224681 -0.624932
H14   H     H_    0.625590 0.091856 0.199031 0.316279
C46   C     C_2   0.901476 0.951928 0.682260 0.313213
H15   H     H_    0.993771 0.903101 0.703480 0.068441
O23   O     O_2   0.807808 0.916249 0.632402 -0.534128
C47   C     C_2   0.218126 0.585491 0.297217 0.370241
H16   H     H_    0.250185 0.520420 0.317821 0.034401
O24   O     O_2   0.093733 0.577681 0.254373 -0.503953
C48   C     C_2   0.388240 0.654993 0.996029 0.344880
H17   H     H_    0.490093 0.599991 0.970552 0.058889
O25   O     O_2   0.277463 0.692914 0.962552 -0.520355
C49   C     C_2   0.442112 0.500277 0.074644 0.438044
H18   H     H_    0.424424 0.474237 0.021326 0.027962
O26   O     O_2   0.484800 0.438248 0.107119 -0.479376
O27   O     O_3   0.296493 0.988169 0.178389 -0.660566
H19   H     H_    0.277201 0.052078 0.211212 0.310647
O28   O     O_3   0.717755 0.398041 0.705186 -0.657261
H20   H     H_    0.696976 0.441606 0.673110 0.284585
O29   O     O_3   0.893494 0.335179 0.995754 -0.636687
H21   H     H_    0.971022 0.397354 0.010234 0.310080
O30   O     O_3   0.895209 0.490836 0.918963 -0.629720
H22   H     H_    0.830428 0.501828 0.962921 0.292572
O31   O     O_3   0.838303 0.006809 0.821533 -0.662499
H23   H     H_    0.772029 0.948210 0.793403 0.269618
C50   C     C_2   0.154288 0.247869 0.328312 0.326018
H24   H     H_    0.133760 0.250727 0.381052 0.064741
O32   O     O_2   0.309396 0.219552 0.303401 -0.542107

loop_
_geom_bond_atom_site_label_1
_geom_bond_atom_site_label_2
_ccdc_geom_bond_type
O12   C41   A    
C32   C33   A    
O18   C43   A    
O11   V4    S    
C24   C42   S    
C30   C49   S    
O17   V3    S    
C49   H18   S    
C28   C38   A    
C1    O6    A    
C27   C39   A    
C45   H13   S    
C20   C45   S    
C23   H5    S    
C6    C16   A    
O19   C44   A    
C28   C39   A    
C12   C13   A    
C14   C15   A    
C10   C12   A    
O16   V4    S    
C37   O27   S    
O5    C3    A    
C46   O23   D    
O31   H23   S    
V2    O10   S    
O12   V3    S    
C16   O28   S    
C8    O30   S    
C50   H24   S    
C19   C20   D    
O14   C42   A    
C48   H17   S    
C31   C32   A    
O8    V2    S    
C38   C47   S    
C9    H3    S    
O15   V3    S    
C9    C10   A    
C22   O22   S    
O1    V2    S    
C47   O24   D    
O7    V1    S    
C11   C18   A    
C24   H6    S    
C36   C37   A    
V3    O20   S    
O9    C4    A    
O13   C44   A    
O30   H22   S    
C45   O21   D    
C26   H8    S    
C27   H11   S    
O19   V4    S    
C11   C15   A    
C7    C18   A    
C5    C13   A    
C4    C6    S    
O22   H14   S    
C23   C24   D    
O4    C2    A    
C46   H15   S    
C23   C25   S    
C1    C26   S    
C35   C36   A    
C30   C31   A    
C33   C37   A    
O2    C1    A    
C25   C26   D    
O5    V1    S    
H9    C39   S    
C41   O16   A    
C48   O25   D    
O17   V4    S    
C33   C40   A    
O14   V3    S    
O13   V3    S    
C10   C11   A    
C3    C20   S    
C25   H7    S    
O3    C4    A    
C7    O29   S    
C12   C16   A    
O6    V2    S    
O9    V2    S    
O15   C43   A    
C5    C17   A    
C15   O31   S    
C29   C48   S    
O2    V1    S    
C29   C30   A    
C40   C41   S    
C21   C22   D    
O1    C2    A    
C29   C40   A    
C18   C43   S    
O8    C3    A    
C49   O26   D    
C34   C38   A    
C22   C44   S    
H10   C36   S    
C19   C50   S    
C32   C34   A    
O7    V2    S    
C2    C28   S    
O4    V1    S    
O3    V1    S    
V1    O10   S    
C27   C35   A    
C14   C46   S    
C34   C35   A    
C31   H12   S    
C21   H4    S    
O28   H20   S    
C5    H2    S    
C50   O32   D    
C19   C21   S    
O29   H21   S    
V4    O20   S    
O11   C42   A    
O27   H19   S    
C13   C14   A    
C8    C9    A    
H1    C17   S    
C47   H16   S    
C7    C8    A    
O18   V4    S    
C6    C17   A    
