data_mof_unit_65241.cif
_audit_creation_date              2013-03-05T16:31:37-0500
_audit_creation_method            fapswitch 2.2
_symmetry_space_group_name_H-M    P1
_symmetry_Int_Tables_number       1
_space_group_crystal_system       triclinic
_cell_length_a                    38.56386
_cell_length_b                    32.084487
_cell_length_c                    21.361119
_cell_angle_alpha                 90.000218
_cell_angle_beta                  123.70091
_cell_angle_gamma                 90.000182
_cell_volume                      21988.4377474

loop_
_atom_site_label
_atom_site_type_symbol
_atom_site_description
_atom_site_fract_x
_atom_site_fract_y
_atom_site_fract_z
_atom_type_partial_charge
O1    O     O_R   0.939010 0.034440 0.439030 -0.624530
O2    O     O_R   0.060990 0.034440 0.560970 -0.624586
O3    O     O_R   0.439010 0.534440 0.439030 -0.624601
O4    O     O_R   0.560990 0.534440 0.560970 -0.624622
O5    O     O_R   0.939030 0.965580 0.439000 -0.605760
O6    O     O_R   0.060970 0.965580 0.561000 -0.605930
O7    O     O_R   0.439030 0.465580 0.439000 -0.605772
O8    O     O_R   0.560970 0.465580 0.561000 -0.605855
C1    C     C_R   0.919297 0.000005 0.419445 0.951451
C2    C     C_R   0.080703 0.000006 0.580558 0.951447
C3    C     C_R   0.419297 0.500006 0.419442 0.951399
C4    C     C_R   0.580703 0.500006 0.580559 0.951400
O9    O     O_R   0.000010 0.034440 0.593030 -0.632084
O10   O     O_R   0.999990 0.034440 0.406970 -0.632124
O11   O     O_R   0.500010 0.534440 0.593030 -0.632151
O12   O     O_R   0.499990 0.534440 0.406970 -0.632174
O13   O     O_R   0.000020 0.965580 0.593000 -0.618301
O14   O     O_R   0.999980 0.965580 0.407000 -0.618314
O15   O     O_R   0.500020 0.465580 0.593000 -0.618242
O16   O     O_R   0.499980 0.465580 0.407000 -0.618241
C5    C     C_R   0.000041 0.000015 0.621803 0.947169
C6    C     C_R   0.999960 0.000015 0.378198 0.947249
C7    C     C_R   0.500043 0.500015 0.621805 0.947180
C8    C     C_R   0.499958 0.500015 0.378195 0.947217
Zn1   Zn    Zn3+2 1.000000 0.045990 0.500000 0.976321
Zn2   Zn    Zn3+2 0.500000 0.545990 0.500000 0.976133
Zn3   Zn    Zn3+2 0.000000 0.954030 0.500000 1.004657
Zn4   Zn    Zn3+2 0.500000 0.454030 0.500000 1.004591
C9    C     C_3   0.972149 0.971742 0.700946 -0.291105
C10   C     C_3   0.027786 0.971676 0.298989 -0.291012
C11   C     C_3   0.472101 0.471792 0.700897 -0.291205
C12   C     C_3   0.527871 0.471764 0.299075 -0.291155
C13   C     C_3   0.010260 0.961782 0.780687 -0.048892
C14   C     C_3   0.989652 0.961804 0.219225 -0.048985
C15   C     C_3   0.510195 0.461766 0.780621 -0.048723
C16   C     C_3   0.489768 0.461774 0.219341 -0.048773
H1    H     H_    0.949345 0.948854 0.659474 0.159834
H2    H     H_    0.050537 0.948736 0.340407 0.159995
H3    H     H_    0.449258 0.448945 0.659384 0.159752
H4    H     H_    0.550693 0.448894 0.340565 0.159831
C17   C     C_3   0.999969 0.999678 0.810934 -0.030963
C18   C     C_3   0.000031 0.999675 0.189066 -0.030951
C19   C     C_3   0.499969 0.499679 0.810934 -0.030953
C20   C     C_3   0.500031 0.499677 0.189065 -0.030950
C21   C     C_3   0.961759 0.009984 0.732088 -0.148907
C22   C     C_3   0.038265 0.009894 0.267936 -0.148736
C23   C     C_3   0.461778 0.510052 0.732107 -0.148865
C24   C     C_3   0.538232 0.510014 0.267903 -0.148774
C25   C     C_3   0.989961 0.038200 0.719502 -0.204484
C26   C     C_3   0.010128 0.038175 0.280588 -0.204621
C27   C     C_3   0.490030 0.538219 0.719571 -0.204504
C28   C     C_3   0.510008 0.538208 0.280467 -0.204570
C29   C     C_3   0.028188 0.027989 0.799501 -0.237677
C30   C     C_3   0.971878 0.028051 0.200565 -0.237881
C31   C     C_3   0.528238 0.527940 0.799552 -0.237734
C32   C     C_3   0.471790 0.527966 0.200476 -0.237843
C33   C     C_3   0.037668 0.989882 0.767898 0.310271
C34   C     C_3   0.962309 0.989967 0.232079 0.310555
C35   C     C_3   0.537652 0.489817 0.767883 0.310292
C36   C     C_3   0.462338 0.489852 0.232107 0.310437
C37   C     C_3   0.000335 0.999988 0.689336 -0.082781
C38   C     C_3   0.999666 0.999986 0.310665 -0.082809
C39   C     C_3   0.500338 0.499988 0.689338 -0.082767
C40   C     C_3   0.499663 0.499987 0.310662 -0.082782
H5    H     H_    0.930417 0.018367 0.718761 0.157553
H6    H     H_    0.069626 0.018204 0.281284 0.157681
H7    H     H_    0.430451 0.518490 0.718794 0.157565
H8    H     H_    0.569567 0.518422 0.281225 0.157635
H9    H     H_    0.981462 0.069508 0.692912 0.165374
H10   H     H_    0.018700 0.069463 0.307252 0.165284
H11   H     H_    0.481586 0.569542 0.693037 0.165362
H12   H     H_    0.518482 0.569523 0.307033 0.165321
H13   H     H_    0.051338 0.050583 0.841147 0.167740
H14   H     H_    0.948780 0.050698 0.158971 0.167555
H15   H     H_    0.551428 0.550494 0.841237 0.167764
H16   H     H_    0.448621 0.550542 0.158813 0.167667
H17   H     H_    0.788264 0.975902 0.193974 0.170909
H18   H     H_    0.211733 0.966909 0.799668 0.169130
H19   H     H_    0.288264 0.471604 0.196706 0.170225
H20   H     H_    0.711734 0.467543 0.800204 0.169318
C41   C     C_R   0.728173 0.986389 0.175087 -0.182074
C42   C     C_R   0.271825 0.981332 0.821333 -0.181914
C43   C     C_R   0.228173 0.483973 0.176625 -0.182051
C44   C     C_R   0.771826 0.481689 0.821636 -0.181949
H21   H     H_    0.711469 0.975872 0.117188 0.149957
H22   H     H_    0.288527 0.966874 0.876440 0.149459
H23   H     H_    0.211470 0.471571 0.119926 0.149774
H24   H     H_    0.788528 0.467508 0.876977 0.149525
C45   C     C_R   0.706573 0.999933 0.206588 0.163263
C46   C     C_R   0.293427 0.999949 0.793421 0.163454
C47   C     C_R   0.206573 0.499942 0.206583 0.163315
C48   C     C_R   0.793427 0.499949 0.793422 0.163411
C49   C     C_R   0.728248 0.013493 0.281353 -0.173350
C50   C     C_R   0.271755 0.018588 0.722256 -0.173438
C51   C     C_R   0.228247 0.515931 0.279800 -0.173418
C52   C     C_R   0.771754 0.518231 0.721954 -0.173454
H25   H     H_    0.711605 0.024005 0.305907 0.143427
H26   H     H_    0.288400 0.033038 0.700489 0.143342
H27   H     H_    0.211604 0.528325 0.303155 0.143423
H28   H     H_    0.788399 0.532405 0.699953 0.143387
C53   C     C_R   0.771684 0.013507 0.324786 -0.188293
C54   C     C_R   0.228319 0.018604 0.678828 -0.187887
C55   C     C_R   0.271683 0.515945 0.323230 -0.188164
C56   C     C_R   0.728318 0.518247 0.678526 -0.187948
H29   H     H_    0.788388 0.024025 0.382684 0.139929
H30   H     H_    0.211618 0.033060 0.623719 0.140315
H31   H     H_    0.288386 0.528346 0.379929 0.140100
H32   H     H_    0.711616 0.532426 0.623183 0.140292
C57   C     C_R   0.793282 0.999964 0.293288 0.156160
C58   C     C_R   0.206718 0.999983 0.706733 0.156466
C59   C     C_R   0.293282 0.499974 0.293276 0.156256
C60   C     C_R   0.706718 0.499983 0.706734 0.156427
C61   C     C_R   0.771613 0.986406 0.218521 -0.151907
C62   C     C_R   0.228385 0.981352 0.777906 -0.151620
C63   C     C_R   0.271614 0.483991 0.220055 -0.151819
C64   C     C_R   0.728386 0.481708 0.778209 -0.151673
C65   C     C_1   0.662132 0.999937 0.162156 -0.064350
C66   C     C_1   0.337869 0.999945 0.837846 -0.064261
C67   C     C_1   0.162132 0.499942 0.162154 -0.064358
C68   C     C_1   0.837869 0.499946 0.837847 -0.064301
C69   C     C_1   0.837717 0.999976 0.337745 -0.050964
C70   C     C_1   0.162283 0.999985 0.662270 -0.050926
C71   C     C_1   0.337717 0.499980 0.337736 -0.051004
C72   C     C_1   0.662283 0.499985 0.662271 -0.050971
C73   C     C_1   0.875034 0.999991 0.375122 -0.129977
C74   C     C_1   0.124966 0.999994 0.624887 -0.130155
C75   C     C_1   0.375034 0.499992 0.375116 -0.130163
C76   C     C_1   0.624966 0.499994 0.624888 -0.130240
C77   C     C_1   0.624809 0.999956 0.124836 -0.171260
C78   C     C_1   0.375192 0.999959 0.875165 -0.171233
C79   C     C_1   0.124809 0.499958 0.124835 -0.171276
C80   C     C_1   0.875191 0.499959 0.875165 -0.171253
O17   O     O_R   0.034440 0.939060 0.034360 -0.604484
O18   O     O_R   0.965560 0.939060 0.965640 -0.604395
O19   O     O_R   0.534440 0.439060 0.034360 -0.604383
O20   O     O_R   0.465560 0.439060 0.965640 -0.604362
C81   C     C_R   1.000000 0.919343 0.000001 1.011068
C82   C     C_R   0.500000 0.419344 0.000000 1.011227
O21   O     O_R   0.034440 0.000050 0.941370 -0.597851
O22   O     O_R   0.965560 0.000050 0.058630 -0.597783
O23   O     O_R   0.534440 0.500050 0.941370 -0.597908
O24   O     O_R   0.465560 0.500050 0.058630 -0.597890
O25   O     O_R   0.965570 0.000070 0.872530 -0.641894
O26   O     O_R   0.034430 0.000070 0.127470 -0.641914
O27   O     O_R   0.465570 0.500070 0.872530 -0.641868
O28   O     O_R   0.534430 0.500070 0.127470 -0.641864
C83   C     C_R   0.999967 0.000117 0.878162 0.944028
C84   C     C_R   0.000033 0.000115 0.121838 0.943951
C85   C     C_R   0.499967 0.500118 0.878162 0.944017
C86   C     C_R   0.500033 0.500117 0.121838 0.943984
Zn5   Zn    Zn3+2 0.045990 0.000050 0.045940 1.009635
Zn6   Zn    Zn3+2 0.954010 0.000050 0.954060 1.009497
Zn7   Zn    Zn3+2 0.545990 0.500050 0.045940 1.009744
Zn8   Zn    Zn3+2 0.454010 0.500050 0.954060 1.009619
O29   O     O_R   0.034450 0.061050 0.034440 -0.624212
O30   O     O_R   0.965550 0.061050 0.965560 -0.624295
O31   O     O_R   0.534450 0.561050 0.034440 -0.624237
O32   O     O_R   0.465550 0.561050 0.965560 -0.624300
C87   C     C_R   0.000000 0.080768 0.000000 0.886473
C88   C     C_R   0.500000 0.580768 0.000000 0.886432
O33   O     O_R   0.500030 0.939050 0.052570 -0.614698
O34   O     O_R   0.499970 0.939050 0.947430 -0.614584
O35   O     O_R   0.000030 0.439050 0.052570 -0.614657
O36   O     O_R   0.999970 0.439050 0.947430 -0.614603
C89   C     C_R   0.500000 0.919522 1.000000 0.901703
C90   C     C_R   1.000000 0.419522 1.000000 0.901655
O37   O     O_R   0.561000 0.000050 0.113470 -0.615514
O38   O     O_R   0.439000 0.000050 0.886530 -0.615433
O39   O     O_R   0.061000 0.500050 0.113470 -0.615405
O40   O     O_R   0.939000 0.500050 0.886530 -0.615361
O41   O     O_R   0.561000 0.999980 0.008430 -0.613637
O42   O     O_R   0.439000 0.999980 0.991570 -0.613460
O43   O     O_R   0.061000 0.499980 0.008430 -0.613618
O44   O     O_R   0.939000 0.499980 0.991570 -0.613530
C91   C     C_R   0.580534 0.999988 0.080513 0.902098
C92   C     C_R   0.419466 0.999988 0.919487 0.901913
C93   C     C_R   0.080534 0.499988 0.080513 0.901940
C94   C     C_R   0.919466 0.499988 0.919487 0.901854
Zn9   Zn    Zn3+2 0.500020 0.000060 0.070120 0.976062
Zn10  Zn    Zn3+2 0.499980 0.000060 0.929880 0.975978
Zn11  Zn    Zn3+2 0.000020 0.500060 0.070120 0.976225
Zn12  Zn    Zn3+2 0.999980 0.500060 0.929880 0.976188
O45   O     O_R   0.500000 0.061040 0.052440 -0.614665
O46   O     O_R   0.500000 0.061040 0.947560 -0.614802
O47   O     O_R   0.000000 0.561040 0.052440 -0.614606
O48   O     O_R   0.000000 0.561040 0.947560 -0.614668
C95   C     C_R   0.500000 0.080593 0.000000 0.902905
C96   C     C_R   1.000000 0.580593 0.000000 0.902720
H33   H     H_    0.973477 0.788389 0.066229 0.157224
H34   H     H_    0.026520 0.788389 0.933771 0.157219
H35   H     H_    0.482133 0.288390 0.079454 0.156612
H36   H     H_    0.517864 0.288390 0.920545 0.156601
C97   C     C_R   0.489937 0.228275 0.044738 -0.179430
C98   C     C_R   0.510060 0.228274 0.955260 -0.179517
C99   C     C_R   0.985061 0.728274 0.037288 -0.179571
C100  C     C_R   0.014937 0.728274 0.962712 -0.179622
H37   H     H_    0.482129 0.211604 0.079449 0.146126
H38   H     H_    0.517868 0.211603 0.920549 0.146069
H39   H     H_    0.973468 0.711603 0.066216 0.146227
H40   H     H_    0.026529 0.711603 0.933784 0.146189
C101  C     C_R   0.499998 0.206636 0.999999 0.164845
C102  C     C_R   0.999999 0.706635 1.000000 0.164801
C103  C     C_R   0.014934 0.771711 0.962707 -0.169031
C104  C     C_R   0.985064 0.771711 0.037293 -0.169057
C105  C     C_R   0.510059 0.271712 0.955258 -0.168914
C106  C     C_R   0.489938 0.271712 0.044740 -0.168916
C107  C     C_R   0.999999 0.793343 0.000000 0.153141
C108  C     C_R   0.499999 0.293343 0.999999 0.153660
C109  C     C_1   0.499999 0.162193 1.000000 -0.064540
C110  C     C_1   0.999999 0.662193 0.000000 -0.064573
C111  C     C_1   0.999999 0.837773 0.000001 -0.045277
C112  C     C_1   0.499999 0.337774 1.000000 -0.045075
C113  C     C_1   0.999999 0.875086 0.000001 -0.088447
C114  C     C_1   0.499999 0.375087 0.000000 -0.088136
C115  C     C_1   0.499999 0.124869 1.000000 -0.171768
C116  C     C_1   1.000000 0.624869 0.000000 -0.171759
H41   H     H_    0.968149 0.211748 0.879165 0.141109
H42   H     H_    0.031852 0.211750 0.120835 0.141086
H43   H     H_    0.468087 0.711748 0.879153 0.141090
H44   H     H_    0.531913 0.711750 0.120847 0.141082
C117  C     C_R   0.482029 0.771857 0.931950 -0.177974
C118  C     C_R   0.517971 0.771858 0.068048 -0.177948
C119  C     C_R   0.982064 0.271857 0.931958 -0.177956
C120  C     C_R   0.017937 0.271858 0.068042 -0.177955
H45   H     H_    0.468084 0.788529 0.879151 0.143594
H46   H     H_    0.531916 0.788531 0.120847 0.143579
H47   H     H_    0.968146 0.288529 0.879164 0.143617
H48   H     H_    0.031854 0.288531 0.120835 0.143597
C121  C     C_R   0.500000 0.793493 0.999999 0.166107
C122  C     C_R   0.000000 0.293493 0.999999 0.166084
C123  C     C_R   0.017936 0.228422 0.068042 -0.179380
C124  C     C_R   0.982065 0.228421 0.931958 -0.179368
C125  C     C_R   0.517970 0.728422 0.068048 -0.179380
C126  C     C_R   0.482030 0.728421 0.931951 -0.179386
C127  C     C_R   0.000000 0.206787 1.000000 0.168343
C128  C     C_R   0.500000 0.706787 1.000000 0.168352
C129  C     C_1   0.500000 0.837931 0.999999 -0.066788
C130  C     C_1   0.000000 0.337931 0.999999 -0.066788
C131  C     C_1   0.000000 0.162352 0.000000 -0.069973
C132  C     C_1   0.500000 0.662352 0.000000 -0.069985
C133  C     C_1   0.000000 0.125033 0.000000 -0.171924
C134  C     C_1   0.500000 0.625033 0.000000 -0.171921
C135  C     C_1   0.500000 0.875251 0.999999 -0.171870
C136  C     C_1   1.000000 0.375251 0.999999 -0.171863
C137  C     C_2   0.021892 0.918774 0.813303 0.438142
H49   H     H_    0.028766 0.895050 0.785537 0.074162
O49   O     O_2   0.023700 0.910173 0.870665 -0.586939
C138  C     C_2   0.977923 0.918821 0.186511 0.438274
H50   H     H_    0.970989 0.895115 0.214218 0.074282
O50   O     O_2   0.976101 0.910221 0.129137 -0.586850
C139  C     C_2   0.521749 0.418737 0.813161 0.437772
H51   H     H_    0.528582 0.395001 0.785355 0.074078
O51   O     O_2   0.523539 0.410133 0.870505 -0.587036
C140  C     C_2   0.478173 0.418756 0.186760 0.437848
H52   H     H_    0.471315 0.395027 0.214540 0.074142
O52   O     O_2   0.476377 0.410152 0.129410 -0.586996
N1    N     N_R   0.079455 0.978863 0.788645 0.193043
O53   O     O_R   0.108483 0.971354 0.858672 -0.374183
O54   O     O_R   0.088168 0.976868 0.738019 -0.417845
N2    N     N_R   0.920497 0.979044 0.211309 0.192844
O55   O     O_R   0.891450 0.971606 0.141264 -0.374893
O56   O     O_R   0.911782 0.977067 0.261932 -0.418362
N3    N     N_R   0.579420 0.478726 0.788612 0.193040
O57   O     O_R   0.608433 0.471163 0.858626 -0.374058
O58   O     O_R   0.588134 0.476727 0.737988 -0.417812
N4    N     N_R   0.420559 0.478801 0.211368 0.192942
O59   O     O_R   0.391538 0.471267 0.141346 -0.374425
O60   O     O_R   0.411845 0.476810 0.261991 -0.418073

loop_
_geom_bond_atom_site_label_1
_geom_bond_atom_site_label_2
_geom_bond_distance
_ccdc_geom_bond_type
C34   C38   1.520850 S    
O19   C82   1.273210 A    
C43   H23   1.083670 S    
C101  C109  1.425928 S    
C118  C125  1.393615 A    
O17   C81   1.273212 A    
C32   H16   1.110229 S    
C31   C35   1.535609 S    
C117  C126  1.393619 A    
O35   Zn11  1.993089 S    
C90   C136  1.420396 S    
H36   C105  1.083716 S    
O12   C8    1.263690 A    
O37   Zn9   1.992759 S    
C14   C18   1.528996 S    
O3    C3    1.273025 A    
C56   H32   1.083714 S    
O26   C84   1.263700 A    
C10   C14   1.544505 S    
C18   C84   1.436173 S    
O22   C84   1.264297 A    
O18   C81   1.273210 A    
C123  C127  1.398980 A    
C79   C93   1.420454 S    
O23   C85   1.264292 A    
N3    O57   1.300208 A    
C99   C102  1.399097 A    
C98   H38   1.083652 S    
C138  H50   1.084380 S    
O25   C83   1.263704 A    
O42   C92   1.284979 A    
O21   C83   1.264295 A    
C109  C115  1.197509 T    
C27   H11   1.110160 S    
O40   C94   1.285160 A    
C28   H12   1.110161 S    
C12   C16   1.544506 S    
C35   N3    1.457975 S    
Zn8   O32   1.991863 S    
O26   Zn5   2.023211 S    
H19   C63   1.083715 S    
H41   C124  1.083661 S    
C18   C22   1.537280 S    
C118  H46   1.083655 S    
C51   H27   1.083664 S    
H34   C103  1.083740 S    
C139  O51   1.219676 D    
C43   C63   1.393697 A    
C1    C73   1.420101 S    
C50   H26   1.083668 S    
C53   C57   1.398972 A    
C130  C136  1.197403 T    
C48   C52   1.399045 A    
C97   C101  1.399065 A    
C10   H2    1.110336 S    
C55   C59   1.398972 A    
N1    O53   1.300209 A    
Zn12  O48   1.992549 S    
O39   C93   1.285160 A    
C107  C111  1.425536 S    
O16   C8    1.264369 A    
C29   H13   1.110232 S    
C140  O52   1.219676 D    
O14   Zn3   2.020431 S    
C69   C73   1.197242 T    
C30   H14   1.110230 S    
N3    O58   1.299870 A    
C71   C75   1.197242 T    
Zn6   O30   1.991863 S    
C118  C121  1.398997 A    
C51   C55   1.393566 A    
C98   C105  1.393660 A    
O17   Zn5   1.991608 S    
C67   C79   1.197436 T    
Zn7   O31   1.991868 S    
C13   C137  1.497991 S    
C89   C135  1.420396 S    
C122  C130  1.425764 S    
C21   C25   1.548930 S    
O4    C4    1.273026 A    
C15   C19   1.528996 S    
O22   Zn6   2.020856 S    
O34   Zn10  1.993091 S    
C19   C85   1.436171 S    
C119  C122  1.398995 A    
C57   C61   1.399005 A    
C72   C76   1.197245 T    
C31   H15   1.110229 S    
C41   H21   1.083667 S    
C7    C39   1.436317 S    
C17   C29   1.537491 S    
C9    C13   1.544507 S    
C11   C23   1.550604 S    
C137  H49   1.084383 S    
O40   Zn12  1.992762 S    
O32   C88   1.273515 A    
C12   C24   1.550602 S    
H43   C126  1.083663 S    
O9    Zn1   2.021275 S    
O20   Zn8   1.991612 S    
H18   C62   1.083712 S    
C126  C128  1.398979 A    
O19   Zn7   1.991608 S    
C102  C110  1.425924 S    
H17   C61   1.083719 S    
C120  H48   1.083652 S    
O44   Zn11  1.992786 S    
C23   H7    1.110137 S    
C108  C112  1.425523 S    
C33   N1    1.457975 S    
C138  O50   1.219679 D    
C36   C40   1.520847 S    
C46   C50   1.399003 A    
C99   H39   1.083674 S    
O30   C87   1.273515 A    
H33   C104  1.083742 S    
C53   H29   1.083686 S    
C15   C35   1.524792 S    
C9    C37   1.537347 S    
C25   C37   1.537703 S    
C129  C135  1.197403 T    
C10   C38   1.537350 S    
O29   C87   1.273516 A    
O13   Zn3   2.020432 S    
Zn9   O45   1.992552 S    
H20   C64   1.083735 S    
H44   C125  1.083661 S    
C139  H51   1.084381 S    
O35   C90   1.285361 A    
O1    C1    1.273028 A    
C42   C62   1.393694 A    
O20   C82   1.273209 A    
C28   C40   1.537702 S    
C120  C123  1.393615 A    
C49   C53   1.393562 A    
C100  H40   1.083677 S    
C56   C60   1.399011 A    
Zn11  O47   1.992552 S    
O15   C7    1.264371 A    
O47   C96   1.283887 A    
C23   C27   1.548927 S    
C99   C104  1.393660 A    
O16   Zn4   2.020431 S    
C27   C31   1.550868 S    
C78   C92   1.420451 S    
C42   H22   1.083671 S    
C98   C101  1.399060 A    
C103  C107  1.398996 A    
C110  C116  1.197502 T    
C124  C127  1.398979 A    
C20   C86   1.436169 S    
O7    Zn4   1.990901 S    
C32   C36   1.535610 S    
C117  H45   1.083653 S    
C9    C21   1.550605 S    
C9    H1    1.110338 S    
N1    O54   1.299871 A    
H35   C106  1.083722 S    
C70   C74   1.197245 T    
C12   C40   1.537345 S    
O7    C3    1.273109 A    
O5    C1    1.273106 A    
C140  H52   1.084378 S    
C66   C78   1.197432 T    
C120  C122  1.398994 A    
C6    C38   1.436317 S    
O34   C89   1.285360 A    
C41   C61   1.393700 A    
C20   C32   1.537495 S    
C49   H25   1.083666 S    
O4    Zn2   1.991526 S    
O6    Zn3   1.990893 S    
C17   C83   1.436171 S    
C104  C107  1.398991 A    
O43   C93   1.284980 A    
O8    C4    1.273112 A    
O18   Zn6   1.991612 S    
C15   C139  1.497984 S    
C132  C134  1.197342 T    
O9    C5    1.263688 A    
C131  C133  1.197342 T    
C26   C30   1.550882 S    
C17   C21   1.537276 S    
O24   Zn8   2.020856 S    
C100  C103  1.393660 A    
C33   C37   1.520848 S    
O15   Zn4   2.020432 S    
O39   Zn11  1.992759 S    
N4    O60   1.299871 A    
C96   C116  1.420570 S    
C3    C75   1.420107 S    
O42   Zn9   1.992786 S    
N2    O56   1.299865 A    
O25   Zn6   2.023209 S    
C111  C113  1.197168 T    
C112  C114  1.197168 T    
O43   Zn12  1.992780 S    
O31   C88   1.273516 A    
Zn5   O29   1.991868 S    
C52   C56   1.393566 A    
C14   C138  1.497996 S    
O10   C6    1.263694 A    
O8    Zn4   1.990893 S    
C47   C67   1.425812 S    
O41   Zn10  1.992780 S    
C16   C20   1.528993 S    
C26   C38   1.537695 S    
O33   Zn9   1.993089 S    
O27   Zn8   2.023209 S    
C121  C129  1.425764 S    
O2    C2    1.273027 A    
C46   C66   1.425813 S    
C58   C62   1.399013 A    
C60   C64   1.399056 A    
C65   C77   1.197436 T    
C119  C124  1.393615 A    
C28   C32   1.550872 S    
O37   C91   1.285164 A    
C30   C34   1.535613 S    
C105  C108  1.398961 A    
C19   C31   1.537493 S    
O38   C92   1.285160 A    
C59   C71   1.425597 S    
O44   C94   1.284979 A    
C82   C114  1.419963 S    
C13   C33   1.524793 S    
C97   C106  1.393660 A    
O28   C86   1.263708 A    
C81   C113  1.419973 S    
O14   C6    1.264367 A    
C5    C37   1.436317 S    
C10   C22   1.550592 S    
O3    Zn2   1.991528 S    
C34   N2    1.457975 S    
C68   C80   1.197432 T    
C44   H24   1.083698 S    
C45   C65   1.425819 S    
N2    O55   1.300209 A    
O11   Zn2   2.021275 S    
O12   Zn2   2.021270 S    
C29   C33   1.535613 S    
O6    C2    1.273112 A    
C59   C63   1.399011 A    
O1    Zn1   1.991528 S    
C22   H6    1.110144 S    
C60   C72   1.425600 S    
C4    C76   1.420107 S    
C11   C39   1.537339 S    
C43   C47   1.399098 A    
C24   H8    1.110139 S    
C22   C26   1.548927 S    
C27   C39   1.537705 S    
C35   C39   1.520846 S    
C42   C46   1.399096 A    
O46   C95   1.283894 A    
C127  C131  1.425697 S    
C97   H37   1.083646 S    
C55   H31   1.083689 S    
C13   C17   1.528997 S    
O24   C86   1.264294 A    
O36   C90   1.285358 A    
C48   C68   1.425816 S    
C41   C45   1.399092 A    
C20   C24   1.537270 S    
O38   Zn10  1.992762 S    
C58   C70   1.425600 S    
C21   H5    1.110138 S    
C18   C30   1.537487 S    
O5    Zn3   1.990901 S    
O23   Zn7   2.020857 S    
O21   Zn5   2.020857 S    
C26   H10   1.110163 S    
O28   Zn7   2.023211 S    
O41   C91   1.284980 A    
C54   C58   1.398978 A    
C25   C29   1.550877 S    
C52   H28   1.083690 S    
C11   C15   1.544506 S    
O11   C7    1.263685 A    
C137  O49   1.219676 D    
C11   H3    1.110337 S    
C95   C115  1.420573 S    
C8    C40   1.436317 S    
O2    Zn1   1.991526 S    
C119  H47   1.083649 S    
C12   H4    1.110337 S    
O10   Zn1   2.021270 S    
C45   C49   1.398995 A    
C36   N4    1.457973 S    
C125  C128  1.398985 A    
C16   C140  1.497990 S    
H42   C123  1.083659 S    
C19   C23   1.537269 S    
O36   Zn12  1.993091 S    
N4    O59   1.300208 A    
C47   C51   1.398999 A    
C128  C132  1.425697 S    
C24   C28   1.548926 S    
O27   C85   1.263707 A    
C50   C54   1.393566 A    
C44   C64   1.393698 A    
C54   H30   1.083687 S    
C117  C121  1.398998 A    
C14   C34   1.524795 S    
C16   C36   1.524797 S    
C77   C91   1.420454 S    
C25   H9    1.110161 S    
C57   C69   1.425594 S    
C44   C48   1.399124 A    
C88   C134  1.420226 S    
C2    C74   1.420107 S    
C106  C108  1.398956 A    
O48   C96   1.283892 A    
C87   C133  1.420226 S    
O33   C89   1.285359 A    
O45   C95   1.283889 A    
Zn10  O46   1.992549 S    
C100  C102  1.399090 A    
C80   C94   1.420451 S    
O13   C5    1.264368 A    
