data_mof_unit_29425.cif
_audit_creation_date              2013-03-05T17:00:25-0500
_audit_creation_method            fapswitch 2.2
_symmetry_space_group_name_H-M    P1
_symmetry_Int_Tables_number       1
_space_group_crystal_system       triclinic
_cell_length_a                    10.754799
_cell_length_b                    16.201653
_cell_length_c                    16.77823
_cell_angle_alpha                 89.765881
_cell_angle_beta                  92.291777
_cell_angle_gamma                 91.860883
_cell_volume                      2919.64107658

loop_
_atom_site_label
_atom_site_type_symbol
_atom_site_description
_atom_site_fract_x
_atom_site_fract_y
_atom_site_fract_z
_atom_type_partial_charge
O1    O     O_R   0.494530 0.422540 0.612660 -0.581653
O2    O     O_R   0.505470 0.577460 0.387340 -0.564519
O3    O     O_R   0.504350 0.561840 0.618900 -0.626341
O4    O     O_R   0.495650 0.438160 0.381100 -0.644955
C1    C     C_R   0.495177 0.490406 0.654617 0.912406
C2    C     C_R   0.505152 0.509493 0.345842 0.895876
O5    O     O_R   0.678310 0.430340 0.496890 -0.523459
O6    O     O_R   0.321690 0.569660 0.503110 -0.530004
O7    O     O_R   0.688140 0.569650 0.503130 -0.671825
O8    O     O_R   0.311860 0.430350 0.496870 -0.663914
C3    C     C_R   0.740428 0.499429 0.491311 0.894197
C4    C     C_R   0.261252 0.499808 0.512327 0.911323
Zn1   Zn    Zn3+2 0.493440 0.406980 0.495830 1.010308
Zn2   Zn    Zn3+2 0.506560 0.593020 0.504170 1.015500
C5    C     C_R   0.887327 0.343409 0.465897 0.339651
C6    C     C_R   0.114062 0.651941 0.550173 0.360984
C7    C     C_R   0.937603 0.268308 0.495098 0.103363
C8    C     C_R   0.066618 0.726531 0.517187 0.106887
C9    C     C_R   0.046778 0.272859 0.545373 0.160456
C10   C     C_R   0.970389 0.719577 0.457128 0.157994
C11   C     C_R   0.108785 0.349629 0.556951 -0.207642
C12   C     C_R   0.903837 0.644222 0.448653 -0.235379
C13   C     C_R   0.058901 0.423361 0.527254 -0.011915
C14   C     C_R   0.945718 0.572133 0.485887 -0.012896
C15   C     C_R   0.938164 0.420945 0.493345 -0.035016
C16   C     C_R   0.063729 0.574450 0.522731 -0.033564
C17   C     C_R   0.127444 0.499505 0.529547 -0.108410
C18   C     C_R   0.876286 0.496879 0.482393 -0.116695
H1    H     H_    0.196561 0.351647 0.590274 0.172977
H2    H     H_    0.823351 0.640685 0.408927 0.177541
C19   C     C_R   0.478244 0.486451 0.743518 -0.192853
C20   C     C_R   0.498783 0.511005 0.256692 -0.178456
C21   C     C_R   0.431668 0.554605 0.786669 0.110361
C22   C     C_R   0.479157 0.435284 0.215957 -0.008497
C23   C     C_R   0.374373 0.536917 0.859517 0.140221
C24   C     C_R   0.397234 0.431619 0.148597 0.154765
C25   C     C_R   0.428345 0.474887 0.907943 0.190756
C26   C     C_R   0.366620 0.506065 0.109631 0.188788
C27   C     C_R   0.503435 0.417585 0.871533 0.095280
C28   C     C_R   0.401541 0.582657 0.144864 0.042893
C29   C     C_R   0.495914 0.411731 0.787895 0.101386
C30   C     C_R   0.482946 0.584960 0.213049 0.195950
N1    N     N_2   0.432512 0.477044 0.992553 -0.180990
N2    N     N_2   0.341373 0.504643 0.026190 -0.170783
N3    N     N_R   0.515300 0.716920 0.509720 -0.171111
N4    N     N_R   0.484700 0.283080 0.490280 -0.145996
C31   C     C_R   0.438305 0.757209 0.455952 0.391072
C32   C     C_R   0.544244 0.234777 0.548254 0.297509
C33   C     C_R   0.435826 0.845003 0.452601 -0.137596
C34   C     C_R   0.506569 0.150392 0.557652 -0.087627
C35   C     C_R   0.512554 0.892187 0.507619 0.119493
C36   C     C_R   0.448296 0.108463 0.492196 0.121488
C37   C     C_R   0.591555 0.849877 0.561313 0.237400
C38   C     C_R   0.401582 0.155818 0.428485 0.206891
C39   C     C_R   0.595025 0.761867 0.561019 0.072296
C40   C     C_R   0.408052 0.243540 0.432606 0.105515
N5    N     N_2   0.525591 0.981220 0.507078 -0.102177
N6    N     N_2   0.429496 0.020298 0.490464 -0.129845
C41   C     C_3   0.939602 0.788080 0.398613 -0.399998
C42   C     C_3   0.831534 0.838019 0.425251 -0.845163
H3    H     H_    0.854255 0.864334 0.484975 0.302863
H4    H     H_    0.814336 0.889288 0.382526 0.261224
H5    H     H_    0.745816 0.798166 0.427215 0.243432
H6    H     H_    0.021900 0.829040 0.387922 0.210978
H7    H     H_    0.914545 0.761051 0.339279 0.210837
C43   C     C_3   0.109280 0.196977 0.579242 -0.453020
C44   C     C_3   0.055922 0.171504 0.658926 -0.770144
H8    H     H_    0.064537 0.223695 0.701724 0.263464
H9    H     H_    0.956561 0.151934 0.651109 0.305347
H10   H     H_    0.107635 0.118716 0.684339 0.237200
H11   H     H_    0.101962 0.144491 0.536906 0.223913
H12   H     H_    0.210936 0.209739 0.588372 0.196457
C45   C     C_3   0.526959 0.107598 0.637958 -0.240060
C46   C     C_3   0.406968 0.069749 0.670428 -0.846161
H13   H     H_    0.334832 0.116911 0.671918 0.238307
H14   H     H_    0.370922 0.016417 0.634365 0.283497
H15   H     H_    0.425647 0.047313 0.732243 0.266132
H16   H     H_    0.597953 0.060281 0.633348 0.295185
H17   H     H_    0.562337 0.152317 0.684103 0.218993
C47   C     C_3   0.355135 0.885704 0.387935 -0.311977
C48   C     C_3   0.434249 0.922977 0.322334 -0.670989
H18   H     H_    0.499833 0.971879 0.346203 0.268864
H19   H     H_    0.488662 0.874256 0.294793 0.240348
H20   H     H_    0.372706 0.950339 0.275285 0.272015
H21   H     H_    0.286120 0.842109 0.359042 0.233713
H22   H     H_    0.294678 0.931308 0.413927 0.243122
N7    N     N_R   0.666128 0.897993 0.617752 0.206845
O9    O     O_R   0.620461 0.915122 0.686177 -0.424409
O10   O     O_R   0.762174 0.940947 0.594220 -0.439692
N8    N     N_R   0.342107 0.114904 0.360887 0.214912
O11   O     O_R   0.239632 0.071416 0.369041 -0.452869
O12   O     O_R   0.384268 0.126903 0.290026 -0.424884
C49   C     C_3   0.700203 0.718121 0.605878 -0.367325
C50   C     C_3   0.734297 0.746825 0.690816 -0.825483
H23   H     H_    0.805584 0.797597 0.691201 0.286392
H24   H     H_    0.651520 0.768058 0.719958 0.298842
H25   H     H_    0.774039 0.695240 0.726334 0.235919
H26   H     H_    0.675580 0.652553 0.611823 0.266579
H27   H     H_    0.784800 0.723318 0.570477 0.216386
C51   C     C_3   0.327988 0.290898 0.372049 -0.306125
C52   C     C_3   0.190392 0.263879 0.369022 -0.841446
H28   H     H_    0.167720 0.225453 0.315410 0.293831
H29   H     H_    0.168163 0.227473 0.422437 0.268047
H30   H     H_    0.130075 0.318327 0.365683 0.251800
H31   H     H_    0.328708 0.356401 0.383796 0.265519
H32   H     H_    0.363297 0.283390 0.311898 0.212614
N9    N     N_R   0.807884 0.342635 0.395247 0.183282
O13   O     O_R   0.706776 0.296461 0.390012 -0.441893
O14   O     O_R   0.842368 0.385135 0.333489 -0.470872
N10   N     N_R   0.205491 0.653338 0.614831 0.185108
O15   O     O_R   0.196308 0.599572 0.672298 -0.483777
O16   O     O_R   0.303973 0.701780 0.612675 -0.447273
C53   C     C_3   0.877302 0.184908 0.470727 -0.303386
C54   C     C_3   0.916565 0.155551 0.389394 -0.832594
H33   H     H_    0.850874 0.105592 0.367348 0.261753
H34   H     H_    0.916199 0.206499 0.344941 0.293088
H35   H     H_    0.010633 0.129659 0.394751 0.277147
H36   H     H_    0.897330 0.136004 0.515236 0.232516
H37   H     H_    0.774731 0.187495 0.470019 0.262754
C55   C     C_3   0.118795 0.810987 0.544358 -0.380776
C56   C     C_3   0.081967 0.831566 0.628694 -0.790214
H38   H     H_    0.980106 0.839376 0.628954 0.267341
H39   H     H_    0.108366 0.782880 0.672168 0.279578
H40   H     H_    0.128983 0.890641 0.647897 0.252157
H41   H     H_    0.221135 0.814582 0.540220 0.243914
H42   H     H_    0.085090 0.861979 0.506209 0.209567
C57   C     C_3   0.570479 0.367212 0.231974 -0.313414
C58   C     C_3   0.657563 0.357938 0.163148 -0.810829
H43   H     H_    0.605130 0.335263 0.108955 0.247946
H44   H     H_    0.705090 0.418096 0.150004 0.264049
H45   H     H_    0.729351 0.312480 0.179672 0.278827
H46   H     H_    0.629985 0.383747 0.284320 0.300811
H47   H     H_    0.525031 0.306891 0.244570 0.214109
C59   C     C_3   0.454633 0.645403 0.765658 -0.309031
C60   C     C_3   0.515671 0.694038 0.835595 -0.971777
H48   H     H_    0.455180 0.692286 0.886873 0.267330
H49   H     H_    0.607637 0.668779 0.853109 0.275822
H50   H     H_    0.527073 0.760224 0.819675 0.280286
H51   H     H_    0.517446 0.654376 0.716516 0.259225
H52   H     H_    0.366562 0.675008 0.749160 0.279751
C61   C     C_3   0.343011 0.349645 0.116738 -0.396804
C62   C     C_3   0.201840 0.345107 0.123792 -0.839015
H53   H     H_    0.177495 0.352818 0.187026 0.268602
H54   H     H_    0.157268 0.393803 0.086841 0.261019
H55   H     H_    0.164606 0.283985 0.102611 0.257720
H56   H     H_    0.365644 0.340820 0.053593 0.215752
H57   H     H_    0.380423 0.296146 0.149895 0.223763
C63   C     C_3   0.259742 0.582969 0.881951 -0.371731
C64   C     C_3   0.145218 0.524593 0.882811 -0.815211
H58   H     H_    0.125830 0.498088 0.822431 0.277226
H59   H     H_    0.158704 0.473205 0.925846 0.260393
H60   H     H_    0.063098 0.559307 0.899960 0.242865
H61   H     H_    0.274394 0.615148 0.939567 0.217734
H62   H     H_    0.236905 0.631967 0.838132 0.231997
C65   C     C_3   0.589017 0.362586 0.920739 -0.397277
C66   C     C_3   0.698776 0.412728 0.958591 -0.850473
H63   H     H_    0.751377 0.445434 0.911621 0.262748
H64   H     H_    0.667293 0.458741 0.001504 0.268391
H65   H     H_    0.762601 0.370586 0.991148 0.252575
H66   H     H_    0.536231 0.329603 0.967272 0.198881
H67   H     H_    0.630577 0.315211 0.883452 0.214273
C67   C     C_3   0.352631 0.661765 0.108450 -0.366007
C68   C     C_3   0.440673 0.702102 0.049514 -0.914035
H68   H     H_    0.511535 0.743017 0.080392 0.254624
H69   H     H_    0.488600 0.654463 0.015941 0.277407
H70   H     H_    0.386535 0.741455 0.007412 0.254988
H71   H     H_    0.261014 0.648286 0.077440 0.206843
H72   H     H_    0.333880 0.706432 0.156253 0.238175
C69   C     C_3   0.461182 0.326634 0.754467 -0.358606
C70   C     C_3   0.320020 0.316346 0.745146 -0.891724
H73   H     H_    0.280407 0.369286 0.712013 0.265793
H74   H     H_    0.295282 0.258254 0.712966 0.250148
H75   H     H_    0.278631 0.313360 0.804757 0.263097
H76   H     H_    0.504517 0.313667 0.698297 0.261958
H77   H     H_    0.492368 0.276282 0.794580 0.192104
C71   C     C_3   0.583565 0.653773 0.214241 -0.303946
C72   C     C_3   0.686414 0.650467 0.278768 -0.870119
H78   H     H_    0.653507 0.675908 0.335061 0.285968
H79   H     H_    0.720782 0.586993 0.287016 0.255354
H80   H     H_    0.765886 0.690560 0.260530 0.233542
H81   H     H_    0.631102 0.650117 0.156765 0.195825
H82   H     H_    0.542276 0.715451 0.216090 0.239820
N11   N     N_R   0.656292 0.262745 0.592928 0.182222
O17   O     O_R   0.738313 0.209601 0.616330 -0.477535
O18   O     O_R   0.679162 0.338788 0.612983 -0.379201
N12   N     N_R   0.367589 0.710467 0.396792 0.233819
O19   O     O_R   0.401027 0.715341 0.323516 -0.465685
O20   O     O_R   0.252459 0.689780 0.408879 -0.440022

loop_
_geom_bond_atom_site_label_1
_geom_bond_atom_site_label_2
_geom_bond_distance
_ccdc_geom_bond_type
C60   H50   1.108152 S    
C2    C20   1.494750 S    
N7    O9    1.301093 A    
C49   C50   1.527798 S    
C69   C70   1.523774 S    
C68   H68   1.107711 S    
C39   C49   1.525780 S    
C58   H43   1.108148 S    
C48   H20   1.110035 S    
C48   H18   1.108757 S    
N5    N6    1.250861 D    
C7    C53   1.529697 S    
C60   H48   1.098924 S    
C27   C29   1.405797 A    
C65   H67   1.108550 S    
C15   C18   1.425383 A    
C71   H82   1.107652 S    
C16   C17   1.415489 A    
C52   H28   1.110560 S    
C46   H14   1.107606 S    
C42   H5    1.109709 S    
O1    C1    1.307688 A    
C66   H63   1.111136 S    
C68   H69   1.109649 S    
C14   C16   1.388792 A    
C67   C68   1.526720 S    
C64   H59   1.109117 S    
C59   H52   1.100589 S    
Zn1   N4    2.008898 S    
C55   H42   1.104620 S    
C5    C15   1.424443 A    
C70   H73   1.107749 S    
C9    C43   1.517764 S    
C42   H4    1.110208 S    
C28   C67   1.518020 S    
C45   C46   1.529782 S    
N3    C31   1.377012 A    
C5    N9    1.433059 S    
O4    Zn1   1.989017 S    
C57   H46   1.094777 S    
C56   H40   1.110688 S    
C47   H22   1.102451 S    
C21   C23   1.414805 A    
N10   O15   1.301298 A    
C21   C59   1.525925 S    
C43   H12   1.110714 S    
C22   C57   1.516574 S    
C72   H79   1.110307 S    
C46   H15   1.110474 S    
C34   C36   1.408461 A    
C69   H76   1.092088 S    
C19   C21   1.437304 A    
C35   N5    1.444763 S    
C13   C17   1.416285 A    
C19   C29   1.432576 A    
C49   H27   1.107022 S    
C22   C24   1.405202 A    
C28   C30   1.412371 A    
C43   C44   1.525958 S    
C41   C42   1.520124 S    
C52   H29   1.100857 S    
C53   H37   1.104878 S    
N9    O14   1.301417 A    
C62   H55   1.110423 S    
O2    C2    1.305078 A    
C63   H62   1.106575 S    
C48   H19   1.110724 S    
C36   C38   1.399677 A    
C54   H33   1.111541 S    
Zn2   N3    2.008899 S    
N4    C32   1.394701 A    
C37   C39   1.427627 A    
C6    C16   1.421946 A    
C71   H81   1.112080 S    
C36   N6    1.436401 S    
C38   C40   1.422517 A    
C46   H13   1.107497 S    
C4    C17   1.478929 S    
C6    N10   1.434478 S    
C44   H8    1.110747 S    
C57   H47   1.101921 S    
C68   H70   1.109973 S    
C63   C64   1.528859 S    
C31   C33   1.424360 A    
C64   H60   1.110418 S    
C59   H51   1.092940 S    
C55   H41   1.105241 S    
C50   H25   1.111346 S    
C33   C35   1.421745 A    
C45   H16   1.104476 S    
C11   H1    1.077385 S    
C53   H36   1.106915 S    
C27   C65   1.519637 S    
C42   H3    1.105790 S    
C31   N12   1.430221 S    
C20   C22   1.412514 A    
C25   N1    1.419053 S    
O5    C3    1.289808 A    
O7    Zn2   2.002028 S    
N11   O17   1.300968 A    
C26   N2    1.415512 S    
C47   H21   1.106700 S    
N8    O12   1.300946 A    
C43   H11   1.109057 S    
O6    C4    1.298476 A    
C72   H80   1.108755 S    
C51   H31   1.079906 S    
C37   N7    1.432594 S    
C10   C41   1.514678 S    
C50   H24   1.098198 S    
C32   C34   1.423223 A    
O7    C3    1.304690 A    
C56   H38   1.107039 S    
O3    Zn2   1.989017 S    
O8    C4    1.297430 A    
C61   H56   1.107387 S    
C38   N8    1.433685 S    
C67   H72   1.111222 S    
O4    C2    1.299091 A    
C71   C72   1.518582 S    
C10   C12   1.399845 A    
C52   H30   1.111758 S    
C11   C13   1.406587 A    
N1    N2    1.246595 D    
C12   C14   1.401073 A    
C34   C45   1.524105 S    
O1    Zn1   1.976889 S    
C63   H61   1.103510 S    
C40   C51   1.526125 S    
N9    O13   1.299948 A    
N12   O20   1.295828 A    
C57   C58   1.526528 S    
C58   H45   1.110644 S    
C8    C55   1.526378 S    
C62   H54   1.110590 S    
C55   C56   1.525610 S    
C23   C25   1.414424 A    
C53   C54   1.526809 S    
C44   H9    1.107602 S    
C60   H49   1.110918 S    
C24   C61   1.523235 S    
O6    Zn2   2.011220 S    
C12   H2    1.071338 S    
C9    C11   1.402595 A    
C65   H66   1.108922 S    
C66   H65   1.110464 S    
C14   C18   1.409093 A    
C47   C48   1.528456 S    
O3    C1    1.303826 A    
O8    Zn1   2.002029 S    
C58   H44   1.111194 S    
C32   N11   1.454087 S    
C54   H34   1.110228 S    
C5    C7    1.424647 A    
C59   C60   1.530061 S    
C69   H77   1.107325 S    
C45   H17   1.110068 S    
C51   H32   1.101004 S    
C33   C47   1.523520 S    
C44   H10   1.109752 S    
N11   O18   1.291782 A    
C25   C27   1.407144 A    
C30   C71   1.527896 S    
C61   C62   1.526956 S    
C41   H7    1.109004 S    
C24   C26   1.411664 A    
C26   C28   1.410085 A    
N8    O11   1.300237 A    
C29   C69   1.520215 S    
C3    C18   1.476632 S    
C66   H64   1.108643 S    
C51   C52   1.528455 S    
C7    C9    1.418188 A    
C8    C10   1.417447 A    
C23   C63   1.522302 S    
C13   C15   1.396107 A    
C50   H23   1.105972 S    
O2    Zn2   1.976888 S    
N10   O16   1.299203 A    
C56   H39   1.108209 S    
C54   H35   1.107937 S    
C61   H57   1.106111 S    
C67   H71   1.111399 S    
C41   H6    1.108851 S    
O5    Zn1   2.011221 S    
N3    C39   1.382696 A    
C6    C8    1.427964 A    
C72   H78   1.107531 S    
N4    C40   1.390423 A    
C65   C66   1.529289 S    
N7    O10   1.300338 A    
C20   C30   1.413149 A    
C62   H53   1.111395 S    
C70   H74   1.106588 S    
C35   C37   1.405342 A    
N12   O19   1.296072 A    
C64   H58   1.111325 S    
C49   H26   1.091585 S    
C1    C19   1.510726 S    
C70   H75   1.111136 S    
