data_mof_unit_21482.cif
_audit_creation_date              2012-12-10T16:47:16-0500
_audit_creation_method            fapswitch 2.2
_symmetry_space_group_name_H-M    P1
_symmetry_Int_Tables_number       1
_space_group_crystal_system       triclinic
_cell_length_a                    11.998079
_cell_length_b                    12.654787
_cell_length_c                    8.010892
_cell_angle_alpha                 90.002027
_cell_angle_beta                  93.364455
_cell_angle_gamma                 90.000398
_cell_volume                      1214.22242601

loop_
_atom_site_label
_atom_site_type_symbol
_atom_type_description
_atom_site_fract_x
_atom_site_fract_y
_atom_site_fract_z
_atom_type_partial_charge
C1    C     C_R   0.352614 0.853747 0.457270 0.804849
C2    C     C_2   0.743603 0.786734 0.565739 0.218235
C3    C     C_2   0.706119 0.245880 0.556504 0.227007
C4    C     C_2   0.256419 0.786711 0.434260 0.218201
C5    C     C_2   0.787239 0.740329 0.433320 0.186711
C6    C     C_2   0.230521 0.275161 0.570020 0.170502
C7    C     C_2   0.212766 0.740324 0.566681 0.186726
C8    C     C_2   0.769456 0.275179 0.429963 0.170481
C9    C     C_3   0.878251 0.834040 0.244171 -0.041113
C10   C     C_3   0.302204 0.275894 0.842811 -0.058727
C11   C     C_3   0.121730 0.834051 0.755799 -0.041149
C12   C     C_R   0.641693 0.150992 0.541415 0.813828
C13   C     C_3   0.697614 0.275938 0.157254 -0.058641
C14   C     C_3   0.403600 0.357015 0.301440 -0.266297
C15   C     C_3   0.865202 0.889668 0.714837 -0.161812
C16   C     C_3   0.596336 0.357060 0.698369 -0.266593
C17   C     C_3   0.134784 0.889612 0.285195 -0.161697
C18   C     C_R   0.647396 0.853756 0.542730 0.804811
C19   C     C_R   0.358303 0.150988 0.458585 0.813945
C20   C     C_R   0.852043 0.354841 0.455907 0.867361
C21   C     C_R   0.141523 0.650830 0.542265 0.796311
C22   C     C_R   0.147953 0.354839 0.544089 0.867304
C23   C     C_R   0.858482 0.650835 0.457738 0.796321
C24   C     C_2   0.293866 0.245864 0.443485 0.226944
H1    H     H_    0.950479 0.780061 0.250144 0.153254
H2    H     H_    0.748558 0.302035 0.053740 0.243195
H3    H     H_    0.652118 0.345441 0.205345 0.089977
H4    H     H_    0.633918 0.220071 0.103624 0.181746
H5    H     H_    0.475511 0.302950 0.327278 0.107963
H6    H     H_    0.406319 0.421732 0.395572 0.153987
H7    H     H_    0.414754 0.391963 0.176578 0.203114
H8    H     H_    0.810202 0.958929 0.691569 0.193540
H9    H     H_    0.924353 0.890027 0.614192 0.045527
H10   H     H_    0.911161 0.901387 0.837296 0.163398
H11   H     H_    0.524429 0.302906 0.672951 0.108257
H12   H     H_    0.893789 0.900888 0.331838 0.084192
H13   H     H_    0.593505 0.421538 0.603864 0.153606
H14   H     H_    0.585265 0.392300 0.823036 0.203375
H15   H     H_    0.189743 0.958892 0.308550 0.193455
H16   H     H_    0.075619 0.889916 0.385815 0.045465
H17   H     H_    0.088846 0.901344 0.162726 0.163405
H18   H     H_    0.821423 0.043893 0.165712 0.362114
H19   H     H_    0.178583 0.043874 0.834383 0.362115
H20   H     H_    0.320489 0.581384 0.169009 0.364751
H21   H     H_    0.679537 0.581379 0.830919 0.364720
H22   H     H_    0.876713 0.864485 0.115346 0.209794
H23   H     H_    0.251145 0.302081 0.946134 0.243114
H24   H     H_    0.347823 0.345327 0.794779 0.089967
H25   H     H_    0.365791 0.220015 0.896677 0.181923
H26   H     H_    0.123253 0.864485 0.884637 0.209765
H27   H     H_    0.049495 0.780078 0.749770 0.153232
H28   H     H_    0.106209 0.900905 0.668147 0.084254
N1    N     N_2   0.541470 0.000000 0.055820 0.104251
N2    N     N_2   0.458530 0.000000 0.944180 0.104216
N3    N     N_2   0.041470 0.500000 0.055820 0.103203
N4    N     N_2   0.958530 0.500000 0.944180 0.103243
O1    O     O_R   0.375700 0.885870 0.609240 -0.541731
O2    O     O_R   0.597720 0.114130 0.675960 -0.577227
O3    O     O_R   0.597720 0.885870 0.675960 -0.553692
O4    O     O_R   0.402280 0.114130 0.324040 -0.577241
O5    O     O_R   0.902280 0.385870 0.324040 -0.585380
O6    O     O_R   0.097720 0.614130 0.675960 -0.553704
O7    O     O_R   0.097720 0.385870 0.675960 -0.585465
O8    O     O_R   0.902280 0.614130 0.324040 -0.553733
O9    O     O_3   0.776067 0.783349 0.274345 -0.499446
O10   O     O_3   0.232273 0.222307 0.721989 -0.613802
O11   O     O_3   0.223921 0.783364 0.725649 -0.499422
O12   O     O_R   0.624300 0.114130 0.390760 -0.583370
O13   O     O_3   0.767660 0.222369 0.277946 -0.613703
O14   O     O_3   0.299282 0.304800 0.297963 -0.560046
O15   O     O_3   0.805784 0.792984 0.716055 -0.535702
O16   O     O_3   0.700666 0.304851 0.701982 -0.559952
O17   O     O_3   0.194247 0.792957 0.283938 -0.535645
O18   O     O_2   0.696715 0.871378 0.968729 -0.201316
O19   O     O_2   0.722154 0.059042 0.894041 -0.364417
O20   O     O_3   0.751105 0.010345 0.197617 -0.511097
O21   O     O_2   0.303336 0.871289 0.031175 -0.201155
O22   O     O_2   0.277845 0.058902 0.106062 -0.364486
O23   O     O_R   0.624300 0.885870 0.390760 -0.541727
O24   O     O_3   0.248892 0.010330 0.802433 -0.511111
O25   O     O_2   0.220600 0.501060 0.868152 -0.343584
O26   O     O_2   0.158428 0.667624 0.990910 -0.219594
O27   O     O_3   0.258445 0.530943 0.182077 -0.524663
O28   O     O_2   0.779395 0.501039 0.131833 -0.343520
O29   O     O_2   0.841546 0.667610 0.009086 -0.219645
O30   O     O_3   0.741566 0.530909 0.817896 -0.524588
O31   O     O_R   0.375700 0.114130 0.609240 -0.583365
O32   O     O_R   0.875700 0.385870 0.609240 -0.568797
O33   O     O_R   0.124300 0.614130 0.390760 -0.560550
O34   O     O_R   0.124300 0.385870 0.390760 -0.568818
O35   O     O_R   0.875700 0.614130 0.609240 -0.560548
O36   O     O_R   0.402280 0.885870 0.324040 -0.553649
S1    S     S_3+6 0.678768 0.983980 0.017694 0.127085
S2    S     S_3+6 0.321245 0.983912 0.982316 0.127100
S3    S     S_3+6 0.170154 0.550897 0.015156 0.168566
S4    S     S_3+6 0.829839 0.550880 0.984837 0.168597
Zn1   Zn    Zn3+2 0.482250 0.000000 0.690430 1.133238
Zn2   Zn    Zn3+2 0.517750 0.000000 0.309570 1.133245
Zn3   Zn    Zn3+2 0.982250 0.500000 0.690430 1.148219
Zn4   Zn    Zn3+2 0.017750 0.500000 0.309570 1.148214

loop_
_geom_bond_atom_site_label_1
_geom_bond_atom_site_label_2
_ccdc_geom_bond_type
N3    N4    D    
C2    C18   S    
O23   Zn2   S    
C21   O6    A    
C16   O16   S    
C14   H7    S    
H20   O27   S    
C9    H1    S    
C15   H8    S    
C21   O33   A    
N1    N2    D    
C12   O12   A    
C8    O13   S    
C8    C20   S    
C19   O31   A    
C16   H11   S    
C17   H15   S    
O25   S3    D    
O29   S4    D    
C6    C22   S    
O21   S2    D    
O28   S4    D    
C20   O5    A    
O7    Zn3   S    
C3    C12   S    
C22   O7    A    
O1    Zn1   S    
C18   O23   A    
N3    Zn4   S    
C9    H12   S    
C13   H4    S    
C11   H28   S    
C15   H10   S    
C16   H13   S    
C12   O2    A    
O27   S3    S    
C9    H22   S    
C17   O17   S    
C14   O14   S    
O18   S1    D    
O2    Zn1   S    
C14   H6    S    
C4    C7    D    
O34   Zn4   S    
C11   O11   S    
C17   H17   S    
C10   O10   S    
O33   Zn4   S    
O36   Zn2   S    
N3    S3    S    
C3    C8    D    
H19   O24   S    
C7    C21   S    
N1    S1    S    
C17   H16   S    
C1    O1    A    
O20   S1    S    
C5    C23   S    
O8    Zn4   S    
C6    C24   D    
C9    O9    S    
C22   O34   A    
N2    Zn1   S    
C4    O17   S    
O30   S4    S    
C5    O9    S    
C23   O8    A    
C1    O36   A    
C10   H24   S    
O3    Zn1   S    
C23   O35   A    
C13   H2    S    
O5    Zn4   S    
C14   H5    S    
O24   S2    S    
C2    O15   S    
O19   S1    D    
N4    S4    S    
O26   S3    D    
C19   C24   S    
N1    Zn2   S    
C15   O15   S    
H18   O20   S    
C1    C4    S    
C3    O16   S    
C11   H26   S    
C24   O14   S    
C13   O13   S    
O22   S2    D    
C20   O32   A    
H21   O30   S    
O12   Zn2   S    
N2    S2    S    
O32   Zn3   S    
C11   H27   S    
C7    O11   S    
O6    Zn3   S    
C2    C5    D    
C18   O3    A    
C6    O10   S    
O4    Zn2   S    
C10   H23   S    
C13   H3    S    
C19   O4    A    
N4    Zn3   S    
O35   Zn3   S    
C10   H25   S    
C15   H9    S    
C16   H14   S    
O31   Zn1   S    
