data_mof_unit_6701.cif
_audit_creation_date              2012-12-11T15:53:34-0500
_audit_creation_method            fapswitch 2.2
_symmetry_space_group_name_H-M    P1
_symmetry_Int_Tables_number       1
_space_group_crystal_system       triclinic
_cell_length_a                    6.92751
_cell_length_b                    14.565216
_cell_length_c                    15.962492
_cell_angle_alpha                 90.412823
_cell_angle_beta                  90.004375
_cell_angle_gamma                 89.972624
_cell_volume                      1610.58429441

loop_
_atom_site_label
_atom_site_type_symbol
_atom_type_description
_atom_site_fract_x
_atom_site_fract_y
_atom_site_fract_z
_atom_type_partial_charge
O1    O     O_R   0.361600 0.167310 0.164620 -0.546592
O2    O     O_R   0.638400 0.832690 0.835380 -0.546592
O3    O     O_R   0.691080 0.157570 0.338750 -0.535197
O4    O     O_R   0.308920 0.842430 0.661250 -0.535206
O5    O     O_R   0.861410 0.336420 0.339360 -0.514100
O6    O     O_R   0.138590 0.663580 0.660640 -0.514102
C1    C     C_R   0.522044 0.135204 0.367501 0.715991
C2    C     C_R   0.477956 0.864796 0.632500 0.715948
O7    O     O_R   0.691320 0.156280 0.165240 -0.549127
O8    O     O_R   0.308680 0.843720 0.834760 -0.549126
O9    O     O_R   0.861640 0.335130 0.164600 -0.537446
O10   O     O_R   0.138360 0.664870 0.835400 -0.537443
C3    C     C_R   0.522274 0.133788 0.136056 0.672441
C4    C     C_R   0.477726 0.866212 0.863944 0.672445
O11   O     O_R   0.361370 0.168600 0.339370 -0.543665
O12   O     O_R   0.638630 0.831400 0.660630 -0.543651
O13   O     O_3   0.527990 0.310540 0.251980 -0.360264
O14   O     O_3   0.472010 0.689460 0.748020 -0.360255
V1    V     V_3+5 0.802830 0.240980 0.251990 1.472055
V2    V     V_3+5 0.197170 0.759020 0.748010 1.472056
O15   O     O_R   0.191360 0.346160 0.165220 -0.548894
O16   O     O_R   0.808640 0.653840 0.834780 -0.548898
C5    C     C_R   0.022263 0.368324 0.136118 0.703480
C6    C     C_R   0.977737 0.631676 0.863882 0.703453
O17   O     O_R   0.191130 0.347440 0.338740 -0.543401
O18   O     O_R   0.808870 0.652560 0.661260 -0.543399
C7    C     C_R   0.022137 0.369535 0.367356 0.818643
C8    C     C_R   0.977864 0.630460 0.632648 0.818632
V3    V     V_3+5 0.302840 0.262750 0.251990 1.457615
V4    V     V_3+5 0.697160 0.737250 0.748010 1.457622
O19   O     O_3   0.027820 0.193180 0.251990 -0.379588
O20   O     O_3   0.972180 0.806820 0.748010 -0.379582
C9    C     C_3   0.930981 0.419631 0.525684 -0.046728
C10   C     C_3   0.069021 0.580360 0.474323 -0.046714
C11   C     C_3   0.104408 0.470575 0.564638 -0.050045
C12   C     C_3   0.895593 0.529416 0.435367 -0.050014
C13   C     C_3   0.989307 0.561240 0.562755 -0.131546
C14   C     C_3   0.010693 0.438752 0.437250 -0.131550
C15   C     C_3   0.813702 0.510341 0.523994 -0.211624
C16   C     C_3   0.186295 0.489649 0.476012 -0.211637
H1    H     H_    0.660531 0.518217 0.543311 0.148228
H2    H     H_    0.339466 0.481773 0.456698 0.148252
C17   C     C_R   0.820289 0.526774 0.968612 -0.145381
C18   C     C_R   0.179710 0.473225 0.031388 -0.145377
H3    H     H_    0.679298 0.546466 0.945613 0.116296
H4    H     H_    0.320702 0.453533 0.054387 0.116296
C19   C     C_R   0.831283 0.463890 0.034456 -0.137435
C20   C     C_R   0.168716 0.536109 0.965544 -0.137432
H5    H     H_    0.698232 0.436943 0.059977 0.118736
H6    H     H_    0.301767 0.563057 0.940023 0.118736
C21   C     C_R   0.011155 0.436185 0.066786 -0.036881
C22   C     C_R   0.988845 0.563814 0.933214 -0.036883
C23   C     C_R   0.677943 0.020566 0.463315 -0.154152
C24   C     C_R   0.322057 0.979436 0.536687 -0.154156
H7    H     H_    0.817455 0.035163 0.435871 0.127320
H8    H     H_    0.182546 0.964839 0.564131 0.127332
C25   C     C_R   0.667068 0.955474 0.527157 -0.127289
C26   C     C_R   0.332932 0.044528 0.472844 -0.127292
H9    H     H_    0.798665 0.921767 0.546878 0.131621
H10   H     H_    0.201336 0.078235 0.453124 0.131592
C27   C     C_R   0.488950 0.934005 0.564669 -0.046256
C28   C     C_R   0.511051 0.065997 0.435332 -0.046208
C29   C     C_R   0.679525 0.025514 0.032750 -0.145888
C30   C     C_R   0.320474 0.974486 0.967250 -0.145887
H11   H     H_    0.820355 0.044120 0.056878 0.116046
H12   H     H_    0.179645 0.955880 0.943122 0.116047
C31   C     C_R   0.668507 0.961480 0.967029 -0.141445
C32   C     C_R   0.331492 0.038520 0.032971 -0.141446
H13   H     H_    0.801395 0.932581 0.942739 0.117366
H14   H     H_    0.198604 0.067419 0.057261 0.117366
C33   C     C_R   0.488826 0.935065 0.933313 -0.041839
C34   C     C_R   0.511174 0.064935 0.066687 -0.041838
C35   C     C_2   0.224323 0.433845 0.635158 0.779163
O21   O     O_2   0.315040 0.362647 0.625040 -0.537344
O22   O     O_R   0.231129 0.480363 0.711920 -0.663429
H15   H     H_    0.316967 0.448656 0.754258 0.297669
C36   C     C_2   0.775689 0.566146 0.364845 0.779148
O23   O     O_2   0.684875 0.637313 0.374982 -0.537302
O24   O     O_R   0.769012 0.519667 0.288062 -0.663443
H16   H     H_    0.683166 0.551372 0.245725 0.297673
C37   C     C_2   0.852054 0.330911 0.558212 0.796061
O25   O     O_2   0.786227 0.328066 0.629170 -0.531500
O26   O     O_R   0.855448 0.252009 0.508038 -0.674299
H17   H     H_    0.799441 0.196700 0.537543 0.292592
C38   C     C_2   0.148025 0.669070 0.441806 0.796024
O27   O     O_2   0.214089 0.671882 0.370887 -0.531457
O28   O     O_R   0.144475 0.747994 0.491949 -0.674296
H18   H     H_    0.200757 0.803269 0.462485 0.292598

loop_
_geom_bond_atom_site_label_1
_geom_bond_atom_site_label_2
_ccdc_geom_bond_type
C6    C22   S    
C14   C16   S    
O28   H18   S    
C29   H11   S    
C26   C28   A    
C10   C13   S    
O13   V3    S    
C4    C33   S    
C23   H7    S    
O4    C2    A    
V1    O19   S    
C37   O25   D    
C19   H5    S    
C36   O23   D    
O9    V1    S    
C9    C15   S    
C10   C16   S    
C30   C32   A    
C11   C13   S    
O3    C1    A    
C12   C36   S    
C24   C26   A    
C17   C22   A    
C25   H9    S    
C7    C14   S    
O12   V4    S    
C35   O21   D    
C30   C33   A    
O7    C3    A    
C9    C11   S    
O5    C7    A    
O7    V1    S    
O6    C8    A    
O8    V2    S    
O3    V1    S    
O14   V4    S    
C31   C33   A    
C2    C27   S    
C20   H6    S    
C2    O12   A    
C35   O22   S    
C37   O26   S    
C18   H4    S    
O11   V3    S    
C26   H10   S    
C29   C31   A    
C38   O28   S    
O17   V3    S    
C13   C15   S    
C24   H8    S    
C15   H1    S    
O8    C4    A    
C23   C25   A    
C19   C21   A    
C1    O11   A    
C38   O27   D    
O15   V3    S    
C31   H13   S    
C10   C38   S    
C30   H12   S    
O22   H15   S    
C1    C28   S    
C23   C28   A    
C5    C21   S    
O26   H17   S    
C32   C34   A    
O10   V2    S    
O1    V3    S    
C36   O24   S    
C17   H3    S    
C18   C21   A    
C24   C27   A    
O18   V4    S    
O15   C5    A    
O16   C6    A    
O1    C3    A    
V2    O20   S    
C11   C35   S    
O16   V4    S    
C12   C15   S    
C16   H2    S    
C25   C27   A    
O5    V1    S    
C3    C34   S    
O17   C7    A    
O6    V2    S    
O10   C6    A    
O18   C8    A    
C9    C14   S    
O2    V4    S    
C12   C14   S    
C11   C16   S    
V3    O19   S    
V4    O20   S    
C17   C19   A    
C8    C13   S    
O9    C5    A    
O13   V1    S    
C10   C12   S    
O14   V2    S    
O2    C4    A    
O24   H16   S    
O4    V2    S    
C20   C22   A    
C29   C34   A    
C32   H14   S    
C9    C37   S    
C18   C20   A    
