data_mof_unit_63028.cif
_audit_creation_date              2012-12-10T17:42:58-0500
_audit_creation_method            fapswitch 2.2
_symmetry_space_group_name_H-M    P1
_symmetry_Int_Tables_number       1
_space_group_crystal_system       triclinic
_cell_length_a                    24.358848
_cell_length_b                    24.358879
_cell_length_c                    51.386779
_cell_angle_alpha                 90.000132
_cell_angle_beta                  90.000083
_cell_angle_gamma                 89.999824
_cell_volume                      30490.5627374

loop_
_atom_site_label
_atom_site_type_symbol
_atom_type_description
_atom_site_fract_x
_atom_site_fract_y
_atom_site_fract_z
_atom_type_partial_charge
C1    C     C_R   0.000000 0.500000 0.179801 0.885359
C2    C     C_R   0.500000 1.000000 0.986193 -0.137952
C3    C     C_R   0.143283 0.694248 0.766375 -0.241856
C4    C     C_R   0.694207 0.856680 0.233598 -0.234608
C5    C     C_R   0.305797 0.143328 0.766407 -0.241865
C6    C     C_R   0.194220 0.643307 0.266393 -0.234607
C7    C     C_R   0.805806 0.356662 0.733587 -0.241867
C8    C     C_R   0.305757 0.856715 0.766378 -0.234589
C9    C     C_R   0.643286 0.194245 0.266377 -0.241861
C10   C     C_R   0.805758 0.643285 0.733622 -0.234588
C11   C     C_R   0.143261 0.305730 0.233640 -0.241853
C12   C     C_R   0.643339 0.194188 0.733584 -0.234604
C13   C     C_R   1.000000 0.500000 0.013807 -0.137948
C14   C     C_R   0.356695 0.805774 0.266391 -0.241855
C15   C     C_R   0.143330 0.305803 0.766409 -0.234602
C16   C     C_R   0.856682 0.694213 0.233601 -0.241861
C17   C     C_R   0.856715 0.694242 0.766378 -0.234597
C18   C     C_R   0.194269 0.356738 0.266360 -0.241851
C19   C     C_R   0.356715 0.805758 0.733622 -0.234595
C20   C     C_R   0.694245 0.143286 0.233622 -0.241852
C21   C     C_R   0.194197 0.356670 0.733591 -0.234610
C22   C     C_R   0.805787 0.643318 0.266399 -0.241864
C23   C     C_R   0.694188 0.143339 0.766416 -0.234613
C24   C     C_R   1.000000 0.500001 0.986193 -0.137949
C25   C     C_R   0.305774 0.856695 0.233609 -0.241864
C26   C     C_R   0.856712 0.305761 0.233620 -0.234599
C27   C     C_R   0.194248 0.643283 0.733625 -0.241849
C28   C     C_R   0.356737 0.194264 0.266363 -0.234591
C29   C     C_R   0.694247 0.856716 0.766376 -0.241850
C30   C     C_R   0.143307 0.694220 0.233606 -0.234596
C31   C     C_R   0.856662 0.305806 0.766413 -0.241858
C32   C     C_R   0.643320 0.805793 0.266402 -0.234605
C33   C     C_R   0.356672 0.194203 0.733593 -0.241858
C34   C     C_R   0.351599 0.148401 0.250000 -0.051424
C35   C     C_R   0.000000 0.500000 0.513807 -0.137950
C36   C     C_R   0.648402 0.851597 0.750000 -0.047908
C37   C     C_R   0.851599 0.351599 0.250000 -0.051438
C38   C     C_R   0.148403 0.648403 0.750000 -0.047909
C39   C     C_R   0.648401 0.851599 0.250000 -0.051455
C40   C     C_R   0.351598 0.148402 0.750000 -0.047915
C41   C     C_R   0.148401 0.648401 0.250000 -0.051449
C42   C     C_R   0.851597 0.351597 0.750000 -0.047918
C43   C     C_R   0.351599 0.851599 0.750000 -0.051438
C44   C     C_R   0.648402 0.148403 0.250000 -0.047908
C45   C     C_R   0.851599 0.648401 0.750000 -0.051438
C46   C     C_R   0.000000 0.500000 0.486193 -0.137949
C47   C     C_R   0.148402 0.351597 0.250000 -0.047903
C48   C     C_R   0.648401 0.148401 0.750000 -0.051468
C49   C     C_R   0.351597 0.851597 0.250000 -0.047911
C50   C     C_R   0.148401 0.351599 0.750000 -0.051462
C51   C     C_R   0.851597 0.648402 0.250000 -0.047912
C52   C     C_R   0.316413 0.234947 0.266475 0.106159
C53   C     C_R   0.734927 0.816390 0.766490 0.107715
C54   C     C_R   0.816387 0.265079 0.233507 0.106154
C55   C     C_R   0.234929 0.683609 0.733511 0.107716
C56   C     C_R   0.683645 0.765111 0.266515 0.106145
C57   C     C_R   0.500000 0.000000 0.513807 -0.137948
C58   C     C_R   0.316344 0.234882 0.733478 0.107711
C59   C     C_R   0.183632 0.734902 0.233493 0.106147
C60   C     C_R   0.816335 0.265127 0.766528 0.107709
C61   C     C_R   0.316391 0.765075 0.733509 0.106154
C62   C     C_R   0.734925 0.183613 0.233508 0.107716
C63   C     C_R   0.816390 0.734923 0.766491 0.106153
C64   C     C_R   0.234950 0.316413 0.266474 0.107719
C65   C     C_R   0.734869 0.183665 0.766529 0.106143
C66   C     C_R   0.265094 0.816368 0.233495 0.107717
C67   C     C_R   0.234878 0.316344 0.733477 0.106145
C68   C     C_R   0.500000 0.000000 0.486193 -0.137950
C69   C     C_R   0.765107 0.683645 0.266514 0.107714
C70   C     C_R   0.765077 0.683610 0.733509 0.106151
C71   C     C_R   0.183587 0.265049 0.233526 0.107720
C72   C     C_R   0.265075 0.816391 0.766491 0.106151
C73   C     C_R   0.683613 0.234925 0.266492 0.107718
C74   C     C_R   0.183655 0.265122 0.766523 0.106141
C75   C     C_R   0.816355 0.734893 0.233486 0.107713
C76   C     C_R   0.683665 0.234869 0.733470 0.106140
C77   C     C_R   0.316368 0.765095 0.266505 0.107713
C78   C     C_R   0.765079 0.316387 0.266493 0.106151
C79   C     C_R   0.498143 0.899709 0.013648 0.363902
C80   C     C_R   0.183609 0.734929 0.766489 0.107718
C81   C     C_R   0.265053 0.183587 0.233525 0.106158
C82   C     C_R   0.683610 0.765073 0.733510 0.107717
C83   C     C_R   0.234901 0.683632 0.266506 0.106151
C84   C     C_R   0.765127 0.316335 0.733472 0.107713
C85   C     C_R   0.734889 0.816355 0.233485 0.106147
C86   C     C_R   0.265118 0.183656 0.766522 0.107713
C87   C     C_R   0.270379 0.229621 0.250000 0.063627
C88   C     C_R   0.729623 0.770377 0.750000 0.065017
C89   C     C_R   0.770379 0.270379 0.250000 0.063628
C90   C     C_R   0.498148 0.100291 0.986352 0.363902
C91   C     C_R   0.229623 0.729623 0.750000 0.065016
C92   C     C_R   0.729621 0.770379 0.250000 0.063630
C93   C     C_R   0.270377 0.229623 0.750000 0.065018
C94   C     C_R   0.229621 0.729621 0.250000 0.063629
C95   C     C_R   0.770377 0.270377 0.750000 0.065018
C96   C     C_R   0.270379 0.770379 0.750000 0.063628
C97   C     C_R   0.729623 0.229623 0.250000 0.065016
C98   C     C_R   0.770379 0.729621 0.750000 0.063628
C99   C     C_R   0.229623 0.270377 0.250000 0.065016
C100  C     C_R   0.729621 0.229621 0.750000 0.063631
C101  C     C_R   0.100292 0.498130 0.013648 0.363901
C102  C     C_R   0.270377 0.770377 0.250000 0.065017
C103  C     C_R   0.229621 0.270379 0.750000 0.063631
C104  C     C_R   0.770377 0.729623 0.250000 0.065018
C105  C     C_R   0.321341 0.280839 0.282775 -0.200101
C106  C     C_R   0.780797 0.821294 0.782806 -0.204152
C107  C     C_R   0.821289 0.219212 0.217189 -0.200104
C108  C     C_R   0.280799 0.678704 0.717195 -0.204154
C109  C     C_R   0.678775 0.719277 0.282855 -0.200102
C110  C     C_R   0.321203 0.280705 0.717130 -0.204161
C111  C     C_R   0.178749 0.780749 0.217162 -0.200101
C112  C     C_R   1.000000 0.500000 0.820199 0.885349
C113  C     C_R   0.899708 0.498163 0.986352 0.363906
C114  C     C_R   0.821184 0.219313 0.782883 -0.204161
C115  C     C_R   0.321297 0.719205 0.717194 -0.200101
C116  C     C_R   0.780791 0.178711 0.217190 -0.204157
C117  C     C_R   0.821295 0.780793 0.782807 -0.200100
C118  C     C_R   0.280843 0.321340 0.282774 -0.204153
C119  C     C_R   0.780683 0.178815 0.782884 -0.200103
C120  C     C_R   0.219247 0.821250 0.217163 -0.204164
C121  C     C_R   0.280702 0.321204 0.717129 -0.200103
C122  C     C_R   0.719273 0.678776 0.282854 -0.204164
C123  C     C_R   0.719207 0.678705 0.717193 -0.200096
C124  C     C_R   0.501855 0.100291 0.013648 0.363903
C125  C     C_R   0.178660 0.219157 0.217226 -0.204155
C126  C     C_R   0.219205 0.821297 0.782806 -0.200096
C127  C     C_R   0.678711 0.280791 0.282810 -0.204161
C128  C     C_R   0.178796 0.219298 0.782870 -0.200098
C129  C     C_R   0.821224 0.780727 0.217146 -0.204162
C130  C     C_R   0.678815 0.280683 0.717116 -0.200100
C131  C     C_R   0.321250 0.719247 0.282837 -0.204159
C132  C     C_R   0.719212 0.321289 0.282811 -0.200098
C133  C     C_R   0.178704 0.780799 0.782804 -0.204158
C134  C     C_R   0.219161 0.178659 0.217225 -0.200100
C135  C     C_R   0.501851 0.899709 0.986351 0.363903
C136  C     C_R   0.678706 0.719203 0.717194 -0.204157
C137  C     C_R   0.280749 0.678749 0.282838 -0.200104
C138  C     C_R   0.719313 0.321184 0.717117 -0.204165
C139  C     C_R   0.780723 0.821225 0.217144 -0.200104
C140  C     C_R   0.219294 0.178797 0.782869 -0.204164
C141  C     C_R   0.499926 0.048945 0.055104 0.575187
C142  C     C_R   0.499924 0.951055 0.944896 0.575187
C143  C     C_R   0.951055 0.499933 0.055104 0.575181
C144  C     C_R   0.048945 0.499918 0.944897 0.575186
C145  C     C_R   0.500073 0.951055 0.055103 0.575183
C146  C     C_R   0.899708 0.501871 0.013649 0.363899
C147  C     C_R   0.500075 0.048945 0.944897 0.575183
C148  C     C_R   0.048945 0.500067 0.055104 0.575187
C149  C     C_R   0.951055 0.500083 0.944897 0.575183
C150  C     C_R   0.999929 0.548945 0.555103 0.575185
C151  C     C_R   0.999923 0.451055 0.444896 0.575184
C152  C     C_R   0.451055 0.999936 0.555104 0.575183
C153  C     C_R   0.548945 0.999916 0.444897 0.575184
C154  C     C_R   0.000072 0.451055 0.555103 0.575184
C155  C     C_R   0.000077 0.548945 0.444897 0.575185
C156  C     C_R   0.548946 0.000065 0.555103 0.575182
C157  C     C_R   0.100292 0.501838 0.986352 0.363899
C158  C     C_R   0.451054 0.000084 0.444897 0.575185
C159  C     C_R   0.499403 0.949734 0.027616 -0.165175
C160  C     C_R   0.499405 0.050266 0.972384 -0.165173
C161  C     C_R   0.050267 0.499397 0.027616 -0.165175
C162  C     C_R   0.949733 0.499414 0.972384 -0.165175
C163  C     C_R   0.500596 0.050266 0.027616 -0.165174
C164  C     C_R   0.500594 0.949734 0.972383 -0.165174
C165  C     C_R   0.949733 0.500604 0.027616 -0.165178
C166  C     C_R   0.050267 0.500587 0.972384 -0.165173
C167  C     C_R   0.999402 0.449733 0.527616 -0.165171
C168  C     C_R   0.998141 0.399708 0.513648 0.363899
C169  C     C_R   0.999408 0.550267 0.472384 -0.165174
C170  C     C_R   0.550267 0.999395 0.527616 -0.165177
C171  C     C_R   0.449733 0.999415 0.472384 -0.165175
C172  C     C_R   0.000599 0.550267 0.527617 -0.165176
C173  C     C_R   0.000593 0.449733 0.472384 -0.165175
C174  C     C_R   0.449734 0.000606 0.527617 -0.165178
C175  C     C_R   0.550267 0.000585 0.472384 -0.165175
C176  C     C_3   0.441363 0.831590 0.027257 0.168793
C177  C     C_3   0.438616 0.777812 0.042219 -0.756988
C178  C     C_3   0.441370 0.168413 0.972743 0.168793
C179  C     C_R   0.998152 0.600292 0.486352 0.363901
C180  C     C_3   0.438625 0.222188 0.957779 -0.756991
C181  C     C_3   0.168405 0.441341 0.027256 0.168797
C182  C     C_3   0.222180 0.438586 0.042221 -0.756982
C183  C     C_3   0.831574 0.441398 0.972744 0.168800
C184  C     C_3   0.777798 0.438662 0.957780 -0.756990
C185  C     C_3   0.558633 0.168413 0.027256 0.168787
C186  C     C_3   0.561378 0.222188 0.042221 -0.756981
C187  C     C_3   0.558625 0.831585 0.972743 0.168790
C188  C     C_3   0.561368 0.777809 0.957779 -0.756983
C189  C     C_3   0.831597 0.558661 0.027258 0.168804
C190  C     C_R   0.600292 0.998126 0.513648 0.363899
C191  C     C_3   0.777820 0.561416 0.042221 -0.756989
C192  C     C_3   0.168424 0.558604 0.972743 0.168802
C193  C     C_3   0.222198 0.561342 0.957778 -0.756986
C194  C     C_3   0.941361 0.331587 0.527257 0.168803
C195  C     C_3   0.938614 0.277812 0.542221 -0.756991
C196  C     C_3   0.941380 0.668419 0.472744 0.168802
C197  C     C_3   0.938638 0.722195 0.457780 -0.756991
C198  C     C_3   0.668402 0.941334 0.527257 0.168799
C199  C     C_3   0.722181 0.938578 0.542218 -0.756985
C200  C     C_3   0.331572 0.941406 0.472744 0.168797
C201  C     C_R   0.399708 0.998168 0.486352 0.363903
C202  C     C_3   0.277795 0.938673 0.457781 -0.756987
C203  C     C_3   0.058643 0.668410 0.527257 0.168796
C204  C     C_3   0.061393 0.722185 0.542221 -0.756981
C205  C     C_3   0.058623 0.331583 0.472743 0.168796
C206  C     C_3   0.061366 0.277807 0.457779 -0.756981
C207  C     C_3   0.331601 0.058670 0.527258 0.168798
C208  C     C_3   0.277827 0.061430 0.542222 -0.756986
C209  C     C_3   0.668427 0.058597 0.472743 0.168801
C210  C     C_3   0.722201 0.061331 0.457778 -0.756985
C211  C     C_R   0.001861 0.600292 0.513649 0.363901
C212  C     C_R   0.500000 1.000000 0.179801 0.885354
C213  C     C_R   0.001849 0.399708 0.486351 0.363902
C214  C     C_R   0.399709 0.001876 0.513649 0.363902
C215  C     C_R   0.600292 0.001834 0.486351 0.363906
C216  C     C_R   0.047695 0.513799 0.390255 -0.201866
C217  C     C_R   0.047695 0.486198 0.609746 -0.201870
C218  C     C_R   0.486204 0.047696 0.390255 -0.201866
C219  C     C_R   0.513805 0.047694 0.609746 -0.201875
C220  C     C_R   0.952304 0.486201 0.390255 -0.201871
C221  C     C_R   0.952305 0.513801 0.609745 -0.201872
C222  C     C_R   0.513795 0.952303 0.390255 -0.201868
C223  C     C_R   0.500000 0.000000 0.820199 0.885351
C224  C     C_R   0.486196 0.952306 0.609745 -0.201871
C225  C     C_R   0.547696 0.013798 0.890255 -0.201870
C226  C     C_R   0.547696 0.986202 0.109745 -0.201871
C227  C     C_R   0.986203 0.547696 0.890255 -0.201866
C228  C     C_R   0.013804 0.547694 0.109745 -0.201875
C229  C     C_R   0.452304 0.986202 0.890254 -0.201872
C230  C     C_R   0.452304 0.013798 0.109745 -0.201871
C231  C     C_R   0.013796 0.452304 0.890255 -0.201871
C232  C     C_R   0.986196 0.452306 0.109745 -0.201867
C233  C     C_R   0.047953 0.513764 0.363068 0.554723
C234  C     C_R   0.500000 1.000000 0.679801 0.885357
C235  C     C_R   0.047953 0.486233 0.636932 0.554718
C236  C     C_R   0.486239 0.047954 0.363068 0.554727
C237  C     C_R   0.513770 0.047952 0.636932 0.554711
C238  C     C_R   0.952046 0.486236 0.363068 0.554720
C239  C     C_R   0.952047 0.513766 0.636931 0.554715
C240  C     C_R   0.513760 0.952045 0.363068 0.554715
C241  C     C_R   0.486231 0.952048 0.636931 0.554725
C242  C     C_R   0.547954 0.013763 0.863068 0.554717
C243  C     C_R   0.547954 0.986237 0.136932 0.554720
C244  C     C_R   0.986238 0.547954 0.863068 0.554723
C245  C     C_R   0.500000 1.000000 0.320199 0.885351
C246  C     C_R   0.013769 0.547952 0.136932 0.554717
C247  C     C_R   0.452046 0.986237 0.863068 0.554719
C248  C     C_R   0.452046 0.013763 0.136932 0.554726
C249  C     C_R   0.013762 0.452046 0.863068 0.554710
C250  C     C_R   0.986231 0.452048 0.136932 0.554727
C251  C     C_R   1.000000 0.500000 0.349072 -0.307178
C252  C     C_R   0.000000 0.500000 0.650928 -0.307174
C253  C     C_R   0.500000 0.000000 0.349072 -0.307181
C254  C     C_R   0.500000 1.000000 0.650928 -0.307171
C255  C     C_R   0.500000 1.000000 0.849072 -0.307175
C256  C     C_R   0.000000 0.500000 0.679801 0.885355
C257  C     C_R   0.500000 1.000000 0.150928 -0.307179
C258  C     C_R   1.000000 0.500000 0.849072 -0.307176
C259  C     C_R   0.000000 0.500000 0.150928 -0.307177
C260  C     C_R   1.000000 0.500000 0.403937 0.122865
C261  C     C_R   0.000000 0.500000 0.596063 0.122871
C262  C     C_R   0.499999 1.000000 0.403937 0.122861
C263  C     C_R   0.500001 0.000000 0.596063 0.122876
C264  C     C_R   0.500000 1.000000 0.903937 0.122870
C265  C     C_R   0.500000 1.000000 0.096063 0.122871
C266  C     C_R   1.000000 0.500000 0.903937 0.122863
C267  C     C_R   0.000000 0.500000 0.320199 0.885355
C268  C     C_R   0.000000 0.500000 0.096063 0.122873
C269  C     C_R   0.105873 0.605873 0.250000 0.826044
C270  C     C_R   0.894126 0.394126 0.750000 0.818250
C271  C     C_R   0.394127 0.105873 0.250000 0.826042
C272  C     C_R   0.605874 0.894126 0.750000 0.818252
C273  C     C_R   0.894127 0.394127 0.250000 0.826044
C274  C     C_R   0.105874 0.605874 0.750000 0.818251
C275  C     C_R   0.605873 0.894127 0.250000 0.826042
C276  C     C_R   0.394126 0.105874 0.750000 0.818250
C277  C     C_R   0.105873 0.394127 0.750000 0.826046
C278  C     C_R   0.500000 1.000000 0.013807 -0.137952
C279  C     C_R   0.894126 0.605874 0.250000 0.818248
C280  C     C_R   0.394127 0.894127 0.750000 0.826046
C281  C     C_R   0.605874 0.105874 0.250000 0.818248
C282  C     C_R   0.894127 0.605873 0.750000 0.826046
C283  C     C_R   0.105874 0.394126 0.250000 0.818249
C284  C     C_R   0.605873 0.105873 0.750000 0.826047
C285  C     C_R   0.394126 0.894126 0.250000 0.818248
C286  C     C_R   0.305736 0.143263 0.233637 -0.234589
C287  C     C_R   0.643283 0.805753 0.733624 -0.241856
C288  C     C_R   0.805761 0.356712 0.266380 -0.234592
F1    F     F_    0.094966 0.527998 0.350592 -0.632396
F2    F     F_    0.594967 0.972004 0.149408 -0.632403
F3    F     F_    0.972006 0.594967 0.850592 -0.632390
F4    F     F_    0.028007 0.594963 0.149408 -0.632404
F5    F     F_    0.405033 0.972004 0.850592 -0.632395
F6    F     F_    0.405033 0.027996 0.149408 -0.632385
F7    F     F_    0.027993 0.405033 0.850592 -0.632412
F8    F     F_    0.971993 0.405037 0.149408 -0.632391
F9    F     F_    0.094965 0.471997 0.649408 -0.632408
F10   F     F_    0.472009 0.094968 0.350592 -0.632382
F11   F     F_    0.528009 0.094963 0.649408 -0.632417
F12   F     F_    0.905034 0.472002 0.350592 -0.632396
F13   F     F_    0.905035 0.528003 0.649408 -0.632397
F14   F     F_    0.527991 0.905032 0.350592 -0.632404
F15   F     F_    0.471992 0.905037 0.649408 -0.632393
F16   F     F_    0.594966 0.027996 0.850592 -0.632410
H1    H     H_    0.301631 0.107896 0.220973 0.177606
H2    H     H_    0.607935 0.198334 0.279052 0.173472
H3    H     H_    0.746329 0.464449 0.967542 0.251214
H4    H     H_    0.574715 0.175818 0.007275 0.157083
H5    H     H_    0.585431 0.137969 0.037311 0.137159
H6    H     H_    0.546336 0.216036 0.062416 0.277805
H7    H     H_    0.604460 0.237017 0.042938 0.196412
H8    H     H_    0.535595 0.253661 0.032459 0.251216
H9    H     H_    0.574708 0.824179 0.992725 0.157082
H10   H     H_    0.585425 0.862026 0.962689 0.137158
H11   H     H_    0.546326 0.783962 0.937583 0.277805
H12   H     H_    0.604450 0.762978 0.957062 0.196412
H13   H     H_    0.801671 0.607936 0.720946 0.177627
H14   H     H_    0.535584 0.746337 0.967541 0.251215
H15   H     H_    0.824198 0.574749 0.007276 0.157072
H16   H     H_    0.862044 0.585451 0.037315 0.137161
H17   H     H_    0.783964 0.546365 0.062415 0.277803
H18   H     H_    0.763001 0.604502 0.042941 0.196412
H19   H     H_    0.746341 0.535645 0.032456 0.251210
H20   H     H_    0.175834 0.574686 0.992725 0.157081
H21   H     H_    0.137985 0.585408 0.962689 0.137156
H22   H     H_    0.216042 0.546301 0.937582 0.277804
H23   H     H_    0.237035 0.604421 0.957060 0.196411
H24   H     H_    0.107891 0.301621 0.220979 0.173464
H25   H     H_    0.253669 0.535554 0.967539 0.251213
H26   H     H_    0.925278 0.324181 0.507275 0.157082
H27   H     H_    0.914564 0.362031 0.537311 0.137154
H28   H     H_    0.953656 0.283965 0.562417 0.277801
H29   H     H_    0.895532 0.262984 0.542938 0.196409
H30   H     H_    0.964396 0.246337 0.532460 0.251215
H31   H     H_    0.925297 0.675825 0.492726 0.157080
H32   H     H_    0.914579 0.637979 0.462689 0.137157
H33   H     H_    0.953680 0.716043 0.437584 0.277801
H34   H     H_    0.895557 0.737028 0.457063 0.196411
H35   H     H_    0.608033 0.198232 0.720878 0.177670
H36   H     H_    0.964422 0.753667 0.467542 0.251214
H37   H     H_    0.675798 0.925246 0.507275 0.157071
H38   H     H_    0.637956 0.914545 0.537314 0.137167
H39   H     H_    0.716039 0.953627 0.562413 0.277800
H40   H     H_    0.737000 0.895493 0.542937 0.196413
H41   H     H_    0.753659 0.964350 0.532453 0.251212
H42   H     H_    0.324163 0.925325 0.492726 0.157082
H43   H     H_    0.362008 0.914601 0.462689 0.137159
H44   H     H_    0.283949 0.953714 0.437585 0.277802
H45   H     H_    0.262955 0.895594 0.457064 0.196411
H46   H     H_    0.392031 0.801700 0.279076 0.173482
H47   H     H_    0.246327 0.964463 0.467543 0.251215
H48   H     H_    0.074727 0.675814 0.507275 0.157080
H49   H     H_    0.085439 0.637965 0.537311 0.137157
H50   H     H_    0.046350 0.716034 0.562417 0.277803
H51   H     H_    0.104477 0.737010 0.542939 0.196411
H52   H     H_    0.035614 0.753661 0.532460 0.251213
H53   H     H_    0.074706 0.324177 0.492725 0.157080
H54   H     H_    0.085422 0.362024 0.462688 0.137160
H55   H     H_    0.046323 0.283959 0.437583 0.277803
H56   H     H_    0.104447 0.262976 0.457061 0.196412
H57   H     H_    0.108016 0.301751 0.779110 0.177663
H58   H     H_    0.035582 0.246334 0.467541 0.251213
H59   H     H_    0.324199 0.074756 0.507276 0.157079
H60   H     H_    0.362051 0.085460 0.537312 0.137154
H61   H     H_    0.283975 0.046384 0.562418 0.277803
H62   H     H_    0.263009 0.104516 0.542941 0.196410
H63   H     H_    0.246346 0.035656 0.532460 0.251214
H64   H     H_    0.675837 0.074678 0.492725 0.157082
H65   H     H_    0.637989 0.085402 0.462689 0.137155
H66   H     H_    0.716044 0.046291 0.437582 0.277803
H67   H     H_    0.737040 0.104410 0.457060 0.196410
H68   H     H_    0.892008 0.698277 0.220908 0.173484
H69   H     H_    0.753671 0.035542 0.467539 0.251213
H70   H     H_    0.892064 0.698329 0.779054 0.177623
H71   H     H_    0.198378 0.392109 0.279021 0.173467
H72   H     H_    0.392065 0.801670 0.720946 0.177622
H73   H     H_    0.607930 0.801661 0.720951 0.173471
H74   H     H_    0.698334 0.107935 0.220947 0.173475
H75   H     H_    0.198249 0.391984 0.720890 0.177659
H76   H     H_    0.801723 0.607992 0.279092 0.173484
H77   H     H_    0.698232 0.108033 0.779122 0.177666
H78   H     H_    0.301700 0.892030 0.220924 0.173477
H79   H     H_    0.892059 0.301676 0.220942 0.177622
H80   H     H_    0.198340 0.607930 0.720952 0.173475
H81   H     H_    0.392104 0.198369 0.279027 0.177605
H82   H     H_    0.698339 0.892070 0.779049 0.173477
H83   H     H_    0.107975 0.698290 0.220918 0.177642
H84   H     H_    0.801676 0.392059 0.279058 0.177627
H85   H     H_    0.891972 0.301758 0.779117 0.173493
H86   H     H_    0.607997 0.801733 0.279097 0.177652
H87   H     H_    0.391989 0.198259 0.720895 0.173490
H88   H     H_    0.356500 0.285394 0.295513 0.157123
H89   H     H_    0.785335 0.856437 0.795556 0.155466
H90   H     H_    0.856428 0.214677 0.204436 0.157134
H91   H     H_    0.285338 0.643561 0.704445 0.155465
H92   H     H_    0.643661 0.714767 0.295625 0.157151
H93   H     H_    0.356310 0.285209 0.704356 0.155478
H94   H     H_    0.143625 0.785269 0.204399 0.157145
H95   H     H_    0.107929 0.698340 0.779048 0.173473
H96   H     H_    0.856283 0.214818 0.795663 0.155480
H97   H     H_    0.356439 0.714667 0.704444 0.157134
H98   H     H_    0.785328 0.143572 0.204438 0.155466
H99   H     H_    0.856436 0.785331 0.795558 0.157135
H100  H     H_    0.285399 0.356500 0.295511 0.155458
H101  H     H_    0.785177 0.143717 0.795665 0.157160
H102  H     H_    0.214726 0.856375 0.204401 0.155468
H103  H     H_    0.285204 0.356309 0.704354 0.157156
H104  H     H_    0.714761 0.643661 0.295623 0.155473
H105  H     H_    0.714670 0.643564 0.704442 0.157136
H106  H     H_    0.698268 0.892003 0.220903 0.177651
H107  H     H_    0.143500 0.214601 0.204488 0.155456
H108  H     H_    0.214667 0.856438 0.795556 0.157136
H109  H     H_    0.643571 0.285328 0.295562 0.155463
H110  H     H_    0.143690 0.214796 0.795646 0.157158
H111  H     H_    0.856339 0.785238 0.204376 0.155472
H112  H     H_    0.643718 0.285177 0.704335 0.157162
H113  H     H_    0.356375 0.714726 0.295599 0.155471
H114  H     H_    0.714677 0.356428 0.295564 0.157136
H115  H     H_    0.143561 0.785338 0.795554 0.155464
H116  H     H_    0.214606 0.143500 0.204486 0.157124
H117  H     H_    0.301741 0.108011 0.779105 0.173487
H118  H     H_    0.643563 0.714664 0.704444 0.155463
H119  H     H_    0.285269 0.643625 0.295601 0.157143
H120  H     H_    0.714818 0.356283 0.704337 0.155478
H121  H     H_    0.785233 0.856339 0.204374 0.157150
H122  H     H_    0.214791 0.143690 0.795644 0.155476
H123  H     H_    0.084699 0.524544 0.400767 0.183125
H124  H     H_    0.084698 0.475452 0.599233 0.183120
H125  H     H_    0.475462 0.084700 0.400768 0.183128
H126  H     H_    0.524553 0.084696 0.599233 0.183116
H127  H     H_    0.915301 0.475457 0.400767 0.183125
H128  H     H_    0.198290 0.607975 0.279081 0.177638
H129  H     H_    0.915303 0.524548 0.599232 0.183121
H130  H     H_    0.524537 0.915299 0.400767 0.183125
H131  H     H_    0.475448 0.915304 0.599232 0.183120
H132  H     H_    0.584699 0.024542 0.900768 0.183120
H133  H     H_    0.584699 0.975458 0.099233 0.183120
H134  H     H_    0.975460 0.584700 0.900767 0.183127
H135  H     H_    0.024552 0.584696 0.099233 0.183119
H136  H     H_    0.415301 0.975459 0.900767 0.183122
H137  H     H_    0.415301 0.024542 0.099233 0.183122
H138  H     H_    0.024539 0.415300 0.900767 0.183124
H139  H     H_    0.801758 0.391972 0.720883 0.173489
H140  H     H_    0.975448 0.415304 0.099233 0.183121
H141  H     H_    0.425278 0.824188 0.007275 0.157079
H142  H     H_    0.414567 0.862033 0.037312 0.137161
H143  H     H_    0.453660 0.783961 0.062415 0.277800
H144  H     H_    0.395534 0.762985 0.042936 0.196412
H145  H     H_    0.464398 0.746339 0.032456 0.251217
H146  H     H_    0.425287 0.175818 0.992725 0.157083
H147  H     H_    0.414572 0.137970 0.962689 0.137157
H148  H     H_    0.453669 0.216037 0.937584 0.277804
H149  H     H_    0.395543 0.237017 0.957061 0.196411
H150  H     H_    0.301670 0.892065 0.779054 0.177625
H151  H     H_    0.464407 0.253662 0.967541 0.251215
H152  H     H_    0.175808 0.425257 0.007274 0.157081
H153  H     H_    0.137958 0.414547 0.037310 0.137156
H154  H     H_    0.216030 0.453628 0.062416 0.277803
H155  H     H_    0.237003 0.395501 0.042938 0.196413
H156  H     H_    0.253658 0.464364 0.032460 0.251215
H157  H     H_    0.824167 0.425316 0.992726 0.157082
H158  H     H_    0.862012 0.414595 0.962689 0.137156
H159  H     H_    0.783951 0.453705 0.937585 0.277802
H160  H     H_    0.762962 0.395583 0.957062 0.196409
N1    N     N_R   0.500000 0.000000 0.068075 -0.336914
N2    N     N_R   0.500000 1.000000 0.931925 -0.336914
N3    N     N_R   0.000000 0.500000 0.068075 -0.336914
N4    N     N_R   1.000000 0.500000 0.931925 -0.336913
N5    N     N_R   0.000000 0.500000 0.568075 -0.336914
N6    N     N_R   0.000000 0.500000 0.431925 -0.336913
N7    N     N_R   0.500001 0.000000 0.568075 -0.336914
N8    N     N_R   0.500000 0.000000 0.431925 -0.336912
O1    O     O_3   0.000000 0.500000 0.250000 -0.510853
O2    O     O_R   0.000000 0.454150 0.807670 -0.586740
O3    O     O_R   0.454150 1.000000 0.192330 -0.586726
O4    O     O_R   0.545850 1.000000 0.807670 -0.586733
O5    O     O_R   0.500000 0.954150 0.692330 -0.586727
O6    O     O_R   0.500000 0.045850 0.307670 -0.586722
O7    O     O_R   0.045850 0.500000 0.692330 -0.586733
O8    O     O_R   0.954150 0.500000 0.307670 -0.586733
O9    O     O_R   0.500000 0.045850 0.692330 -0.586743
O10   O     O_R   0.500000 0.954150 0.307670 -0.586733
O11   O     O_R   0.954150 0.500000 0.692330 -0.586736
O12   O     O_3   0.000000 0.500000 0.750000 -0.510853
O13   O     O_R   0.045850 0.500000 0.307670 -0.586726
O14   O     O_R   0.064230 0.610360 0.235150 -0.637898
O15   O     O_R   0.935770 0.389640 0.764850 -0.644705
O16   O     O_R   0.389640 0.064230 0.235150 -0.637898
O17   O     O_R   0.610360 0.935770 0.764850 -0.644702
O18   O     O_R   0.935770 0.389640 0.235150 -0.637905
O19   O     O_R   0.064230 0.610360 0.764850 -0.644709
O20   O     O_R   0.610360 0.935770 0.235150 -0.637905
O21   O     O_R   0.389640 0.064230 0.764850 -0.644712
O22   O     O_R   0.064230 0.389640 0.764850 -0.637898
O23   O     O_3   0.500000 1.000000 0.250000 -0.510854
O24   O     O_R   0.935770 0.610360 0.235150 -0.644709
O25   O     O_R   0.389640 0.935770 0.764850 -0.637896
O26   O     O_R   0.610360 0.064230 0.235150 -0.644704
O27   O     O_R   0.935770 0.610360 0.764850 -0.637904
O28   O     O_R   0.064230 0.389640 0.235150 -0.644710
O29   O     O_R   0.610360 0.064230 0.764850 -0.637907
O30   O     O_R   0.389640 0.935770 0.235150 -0.644714
O31   O     O_R   0.564230 0.110360 0.735150 -0.637899
O32   O     O_R   0.435770 0.889640 0.264850 -0.644705
O33   O     O_R   0.889640 0.564230 0.735150 -0.637894
O34   O     O_3   0.500000 1.000000 0.750000 -0.510852
O35   O     O_R   0.110360 0.435770 0.264850 -0.644706
O36   O     O_R   0.435770 0.889640 0.735150 -0.637902
O37   O     O_R   0.564230 0.110360 0.264850 -0.644712
O38   O     O_R   0.110360 0.435770 0.735150 -0.637906
O39   O     O_R   0.889640 0.564230 0.264850 -0.644711
O40   O     O_R   0.564230 0.889640 0.264850 -0.637902
O41   O     O_R   0.435770 0.110360 0.735150 -0.644705
O42   O     O_R   0.889640 0.435770 0.264850 -0.637897
O43   O     O_R   0.110360 0.564230 0.735150 -0.644705
O44   O     O_R   0.435770 0.110360 0.264850 -0.637901
O45   O     O_R   1.000000 0.454150 0.192330 -0.586725
O46   O     O_R   0.564230 0.889640 0.735150 -0.644712
O47   O     O_R   0.110360 0.564230 0.264850 -0.637907
O48   O     O_R   0.889640 0.435770 0.735150 -0.644713
O49   O     O_2   0.499232 0.096029 0.068921 -0.508063
O50   O     O_2   0.499227 0.903971 0.931079 -0.508065
O51   O     O_2   0.903971 0.499244 0.068921 -0.508067
O52   O     O_2   0.096029 0.499215 0.931079 -0.508068
O53   O     O_2   0.500768 0.903971 0.068921 -0.508065
O54   O     O_2   0.500772 0.096029 0.931079 -0.508069
O55   O     O_2   0.096029 0.500755 0.068921 -0.508062
O56   O     O_R   0.000000 0.545850 0.807670 -0.586724
O57   O     O_2   0.903971 0.500786 0.931079 -0.508068
O58   O     O_2   0.999236 0.596029 0.568921 -0.508063
O59   O     O_2   0.999224 0.403971 0.431079 -0.508063
O60   O     O_2   0.403971 0.999249 0.568921 -0.508065
O61   O     O_2   0.596028 0.999211 0.431079 -0.508068
O62   O     O_2   0.000765 0.403971 0.568921 -0.508068
O63   O     O_2   0.000776 0.596029 0.431079 -0.508067
O64   O     O_2   0.596030 0.000752 0.568921 -0.508065
O65   O     O_2   0.403970 0.000789 0.431079 -0.508065
O66   O     O_3   0.496377 0.849855 0.026523 -0.561925
O67   O     O_R   0.545850 1.000000 0.192330 -0.586731
O68   O     O_3   0.496384 0.150145 0.973477 -0.561926
O69   O     O_3   0.150146 0.496357 0.026523 -0.561923
O70   O     O_3   0.849853 0.496408 0.973477 -0.561918
O71   O     O_3   0.503619 0.150145 0.026523 -0.561924
O72   O     O_3   0.503612 0.849855 0.973476 -0.561924
O73   O     O_3   0.849854 0.503644 0.026523 -0.561924
O74   O     O_3   0.150147 0.503594 0.973477 -0.561924
O75   O     O_3   0.996375 0.349854 0.526523 -0.561924
O76   O     O_3   0.996392 0.650146 0.473477 -0.561923
O77   O     O_3   0.650146 0.996351 0.526523 -0.561924
O78   O     O_R   0.454150 1.000000 0.807670 -0.586732
O79   O     O_3   0.349853 0.996415 0.473477 -0.561921
O80   O     O_3   0.003629 0.650146 0.526524 -0.561923
O81   O     O_3   0.003610 0.349854 0.473477 -0.561925
O82   O     O_3   0.349855 0.003652 0.526524 -0.561923
O83   O     O_3   0.650147 0.003587 0.473477 -0.561921
O84   O     O_R   0.000000 0.545850 0.192330 -0.586737
Zn1   Zn    Zn3+2 0.065200 0.500000 0.272120 1.011326
Zn2   Zn    Zn3+2 0.434800 1.000000 0.227880 1.011326
Zn3   Zn    Zn3+2 0.000000 0.565200 0.772120 1.011327
Zn4   Zn    Zn3+2 1.000000 0.434800 0.227880 1.011327
Zn5   Zn    Zn3+2 0.434800 1.000000 0.772120 1.011325
Zn6   Zn    Zn3+2 0.565200 1.000000 0.227880 1.011323
Zn7   Zn    Zn3+2 0.000000 0.434800 0.772120 1.011320
Zn8   Zn    Zn3+2 1.000000 0.565200 0.227880 1.011322
Zn9   Zn    Zn3+2 0.934800 0.500000 0.727880 1.011323
Zn10  Zn    Zn3+2 0.500000 0.065200 0.272120 1.011328
Zn11  Zn    Zn3+2 0.500000 0.934800 0.727880 1.011327
Zn12  Zn    Zn3+2 0.934800 0.500000 0.272120 1.011324
Zn13  Zn    Zn3+2 0.065200 0.500000 0.727880 1.011323
Zn14  Zn    Zn3+2 0.500000 0.934800 0.272120 1.011322
Zn15  Zn    Zn3+2 0.500000 0.065200 0.727880 1.011319
Zn16  Zn    Zn3+2 0.565200 1.000000 0.772120 1.011323

loop_
_geom_bond_atom_site_label_1
_geom_bond_atom_site_label_2
_ccdc_geom_bond_type
O34   Zn5   S    
C31   C42   A    
C16   C75   A    
C187  O72   S    
O13   Zn1   S    
C206  H58   S    
C18   C47   A    
C156  N7    A    
C48   C284  S    
C196  H31   S    
C101  O69   S    
C81   C134  A    
C50   C277  S    
C54   C107  A    
C256  O7    A    
C207  H60   S    
C63   C98   A    
C27   C55   A    
C150  N5    A    
C230  H137  S    
C40   C276  S    
C199  H40   S    
C26   C54   A    
C212  C257  S    
C64   C118  A    
O7    Zn13  S    
C27   H80   S    
C7    C42   A    
C33   H87   S    
C140  H122  S    
C195  H28   S    
C228  C268  A    
C71   C99   A    
C91   C96   A    
C182  H154  S    
C53   C106  A    
C150  C172  A    
C142  O50   S    
C61   C115  A    
C108  H91   S    
C59   C111  A    
C180  H149  S    
C236  C253  A    
C22   C69   A    
C120  H102  S    
C201  O79   S    
C241  F15   S    
C272  O46   A    
C242  F16   S    
C223  O4    A    
C116  H98   S    
C35   C172  A    
C220  C238  A    
O8    Zn12  S    
C244  C258  A    
C224  C263  A    
C143  O51   S    
C209  O83   S    
C78   C89   A    
O20   Zn6   S    
O1    Zn12  S    
C237  C254  A    
C280  O36   A    
C217  C261  A    
C268  N3    S    
C279  O39   A    
C2    C164  A    
O78   Zn5   S    
C274  O19   A    
C38   C274  S    
C135  O72   S    
C225  C242  A    
C281  O26   A    
C151  O59   S    
C213  O81   S    
C80   C133  A    
C232  C268  A    
C217  H124  S    
C113  C146  A    
C4    H106  S    
C183  C184  S    
C236  F10   S    
C155  C169  A    
C1    O84   A    
C51   C279  S    
C280  O25   A    
C82   C287  A    
C269  O47   A    
C202  H45   S    
C54   C89   A    
O43   Zn13  S    
C207  O82   S    
O34   Zn11  S    
C146  O73   S    
C105  C118  A    
C131  H113  S    
C206  H56   S    
C130  C138  A    
C251  C267  S    
C288  H84   S    
C153  O61   S    
C28   H81   S    
C229  C264  A    
C205  C206  S    
C155  O63   S    
C6    C83   A    
C58   C110  A    
C158  O65   S    
C196  C197  S    
O29   Zn16  S    
C267  O8    A    
O23   Zn6   S    
O4    Zn16  S    
C76   C100  A    
C200  H42   S    
C153  C175  A    
C209  H64   S    
C219  C237  A    
C177  H144  S    
C17   C63   A    
C142  C164  A    
C18   C64   A    
C144  O52   S    
O22   Zn7   S    
C19   C61   A    
C232  H140  S    
C156  C170  A    
C201  C214  A    
C92   C104  A    
C72   C96   A    
C60   C95   A    
C275  O40   A    
C94   C102  A    
O36   Zn11  S    
C200  C202  S    
C152  O60   S    
C231  C266  A    
O18   Zn4   S    
C149  C162  A    
O12   Zn7   S    
C276  O21   A    
C12   H35   S    
C114  H96   S    
C130  H112  S    
C240  F14   S    
C42   C270  S    
C271  O16   A    
C204  H52   S    
C60   C114  A    
C16   C51   A    
C249  C258  A    
C93   C103  A    
C185  C186  S    
C61   C96   A    
C67   C103  A    
C197  H36   S    
C246  F4    S    
C231  H138  S    
C221  C239  A    
C189  O73   S    
O47   Zn1   S    
C108  C115  A    
C17   C45   A    
C188  H11   S    
C110  C121  A    
C235  F9    S    
C145  C159  A    
C68   C171  A    
C224  C241  A    
C14   C77   A    
C228  C246  A    
C137  H119  S    
C187  H10   S    
C123  H105  S    
C189  C191  S    
C78   C132  A    
O2    Zn7   S    
C246  C259  A    
C112  C258  S    
C277  O38   A    
C198  H37   S    
C76   C130  A    
C157  O74   S    
C64   C99   A    
C9    H2    S    
C150  O58   S    
C219  H126  S    
C265  N1    S    
O32   Zn14  S    
C30   C41   A    
C41   C269  S    
C212  O3    A    
C112  O2    A    
C190  C215  A    
C115  H97   S    
C114  C119  A    
C184  H160  S    
C276  O41   A    
C124  C163  A    
O84   Zn8   S    
C180  H151  S    
C90   C160  A    
C242  C255  A    
C136  H118  S    
C235  C252  A    
O12   Zn3   S    
C147  C160  A    
C192  H20   S    
C78   C288  A    
C20   C44   A    
C85   C92   A    
C134  H116  S    
C210  H67   S    
C2    C160  A    
O31   Zn15  S    
C33   C40   A    
C260  N6    S    
C193  H22   S    
C194  H26   S    
C190  O77   S    
C287  H73   S    
C192  O74   S    
C227  C244  A    
C183  H158  S    
C181  H152  S    
C14   H46   S    
C153  N8    A    
C125  H107  S    
C186  H7    S    
C84   C95   A    
C126  H108  S    
C208  H61   S    
C119  H101  S    
C86   C93   A    
C185  H4    S    
C62   C97   A    
C244  F3    S    
C129  C139  A    
C31   H85   S    
C261  N5    S    
C30   C59   A    
C10   C45   A    
C209  C210  S    
C36   C272  S    
C191  H18   S    
C79   O66   S    
O12   Zn9   S    
C195  H30   S    
C274  O43   A    
C47   C283  S    
C256  O11   A    
O40   Zn14  S    
C146  C165  A    
C52   C105  A    
C233  F1    S    
C57   C68   A    
C231  C249  A    
C56   C109  A    
C57   C170  A    
C39   C275  S    
C45   C282  S    
C111  H94   S    
C239  C252  A    
C286  H1    S    
C25   C66   A    
C151  N6    A    
O48   Zn9   S    
C2    C278  A    
C189  H16   S    
C156  O64   S    
C203  O80   S    
C5    H117  S    
C127  H109  S    
C180  H148  S    
C117  H99   S    
C55   C108  A    
C23   H77   S    
C23   C65   A    
C128  C140  A    
C207  H59   S    
C192  H21   S    
C279  O24   A    
O5    Zn11  S    
C218  H125  S    
O34   Zn15  S    
C238  F12   S    
C69   C122  A    
C82   C88   A    
C133  H115  S    
C118  H100  S    
O35   Zn1   S    
C194  O75   S    
C277  O22   A    
C284  O29   A    
C152  N7    A    
C107  C116  A    
C226  C265  A    
C90   O68   S    
C182  H155  S    
C229  C247  A    
C3    H95   S    
C205  O81   S    
C222  H130  S    
C11   H24   S    
C143  N3    A    
O1    Zn4   S    
C169  C179  A    
O23   Zn10  S    
C88   C98   A    
C271  O44   A    
O3    Zn2   S    
C141  O49   S    
C125  C134  A    
C32   H86   S    
C25   H78   S    
C33   C58   A    
C216  C233  A    
C110  H93   S    
C285  O30   A    
C250  C259  A    
C11   C47   A    
C29   H82   S    
C8    C43   A    
O46   Zn11  S    
C12   C48   A    
C172  C211  A    
C215  O83   S    
C283  O28   A    
C179  O76   S    
C216  H123  S    
C181  C182  S    
C6    H128  S    
C17   H70   S    
C105  H88   S    
C208  H63   S    
C145  O53   S    
C220  C260  A    
C58   C93   A    
C19   H72   S    
C221  C261  A    
O41   Zn15  S    
C220  H127  S    
C79   C159  A    
C63   C117  A    
C11   C71   A    
C10   H13   S    
C197  H33   S    
C142  N2    A    
C27   C38   A    
C141  N1    A    
C129  H111  S    
C32   C39   A    
C209  H65   S    
C283  O35   A    
C143  C165  A    
C225  H132  S    
C55   C91   A    
C269  O14   A    
C239  F13   S    
C176  H142  S    
C181  H153  S    
C20   H74   S    
O26   Zn6   S    
C176  O66   S    
O37   Zn10  S    
C22   H76   S    
C59   C94   A    
O1    Zn1   S    
C178  H147  S    
O67   Zn6   S    
O24   Zn8   S    
C194  C195  S    
C185  O71   S    
C234  O9    A    
C101  C157  A    
O10   Zn14  S    
C193  H23   S    
C217  C235  A    
C77   C102  A    
C229  H136  S    
O19   Zn3   S    
C273  O42   A    
C3    C80   A    
C222  C262  A    
C68   C175  A    
C19   C43   A    
C139  H121  S    
O15   Zn7   S    
C52   C87   A    
C249  F7    S    
C8    C72   A    
C250  F8    S    
C207  C208  S    
C203  H49   S    
C219  C263  A    
C167  C168  A    
C95   C100  A    
O6    Zn10  S    
C73   C127  A    
C83   C94   A    
C204  H50   S    
C223  C255  S    
C144  C166  A    
C174  C214  A    
C284  O31   A    
C175  C215  A    
C31   C60   A    
C24   C166  A    
C177  H143  S    
C282  O33   A    
O14   Zn8   S    
C8    H150  S    
C149  N4    A    
C185  H5    S    
C240  C253  A    
C46   C173  A    
C248  F6    S    
C81   C87   A    
C270  O48   A    
C10   C70   A    
C266  N4    S    
C203  H48   S    
C147  O54   S    
C12   C76   A    
C106  C117  A    
C75   C104  A    
C285  O32   A    
C191  H19   S    
C34   C271  S    
C148  C161  A    
C202  H44   S    
C30   H83   S    
C223  O78   A    
C83   C137  A    
C233  C251  A    
C138  H120  S    
C247  F5    S    
O27   Zn3   S    
C90   C124  A    
C183  O70   S    
C65   C100  A    
C178  O68   S    
C178  C180  S    
C26   C37   A    
C197  H34   S    
C147  N2    A    
C79   C135  A    
C199  H41   S    
C80   C91   A    
O12   Zn13  S    
C218  C236  A    
C187  C188  S    
C188  H12   S    
O39   Zn12  S    
C226  C243  A    
C245  C253  S    
C272  O17   A    
C154  N5    A    
C222  C240  A    
C187  H9    S    
C28   C34   A    
C20   C62   A    
C158  C171  A    
C25   C49   A    
C234  O5    A    
O28   Zn4   S    
C57   C174  A    
C198  H38   S    
C15   C74   A    
C262  N8    S    
O30   Zn2   S    
C5    C40   A    
C72   C126  A    
C228  H135  S    
C71   C125  A    
C227  H134  S    
C36   C287  A    
C206  H55   S    
C35   C46   A    
C32   C56   A    
C237  F11   S    
C1    C259  S    
C113  O70   S    
C247  C255  A    
C21   H75   S    
C155  N6    A    
O25   Zn5   S    
C203  C204  S    
C151  C173  A    
C179  C211  A    
C238  C251  A    
C135  C164  A    
C66   C102  A    
C173  C213  A    
C148  O55   S    
C144  N4    A    
C275  O20   A    
C273  O18   A    
C73   C97   A    
C29   C36   A    
C49   C285  S    
C245  O6    A    
C131  C137  A    
C194  H27   S    
O17   Zn16  S    
C77   C131  A    
C183  H157  S    
C200  O79   S    
C199  H39   S    
C109  C122  A    
C15   C50   A    
C14   C49   A    
C34   C286  A    
C186  H8    S    
C243  C257  A    
O1    Zn8   S    
C208  H62   S    
C221  H129  S    
C127  C132  A    
O23   Zn14  S    
C75   C129  A    
C210  H69   S    
C37   C273  S    
C113  C162  A    
C13   C165  A    
C70   C123  A    
C74   C128  A    
C43   C280  S    
C126  C133  A    
C6    C41   A    
C196  H32   S    
C35   C167  A    
C191  H17   S    
C198  C199  S    
C67   C121  A    
C85   C139  A    
C205  H53   S    
C86   C140  A    
C252  C256  S    
C152  C174  A    
C243  F2    S    
C7    C84   A    
C84   C138  A    
C267  O13   A    
C66   C120  A    
C21   C67   A    
C204  H51   S    
C176  H141  S    
C9    C73   A    
C264  N2    S    
C37   C288  A    
C21   C50   A    
C205  H54   S    
C87   C99   A    
C26   H79   S    
C65   C119  A    
O45   Zn4   S    
C132  H114  S    
O11   Zn9   S    
C128  H110  S    
C124  O71   S    
C193  H25   S    
C3    C38   A    
C168  O75   S    
C188  H14   S    
C198  O77   S    
C189  H15   S    
C281  O37   A    
C282  O27   A    
O16   Zn2   S    
C4    C85   A    
C18   H71   S    
C13   C24   A    
C89   C97   A    
C111  C120  A    
C184  H3    S    
C168  C213  A    
C171  C201  A    
C62   C116  A    
O21   Zn5   S    
O23   Zn2   S    
C178  H146  S    
O34   Zn16  S    
C4    C39   A    
C56   C92   A    
C112  O56   A    
C226  H133  S    
C1    O45   A    
C270  O15   A    
C184  H159  S    
C177  H145  S    
C109  H92   S    
C182  H156  S    
C5    C86   A    
C7    H139  S    
C176  C177  S    
C141  C163  A    
C224  H131  S    
O56   Zn3   S    
C218  C262  A    
C232  C250  A    
C216  C260  A    
C230  C248  A    
C210  H66   S    
O33   Zn9   S    
C69   C104  A    
O9    Zn15  S    
C200  H43   S    
C234  C254  S    
C9    C44   A    
C23   C48   A    
O44   Zn10  S    
C214  O82   S    
O38   Zn13  S    
C24   C162  A    
C195  H29   S    
C157  C166  A    
C227  C266  A    
C13   C161  A    
C241  C254  A    
C163  C278  A    
C211  O80   S    
C170  C190  A    
C181  O69   S    
C46   C169  A    
C123  C136  A    
C186  H6    S    
C192  C193  S    
C101  C161  A    
O42   Zn12  S    
C28   C52   A    
C15   H57   S    
C29   C53   A    
C107  H90   S    
C44   C281  S    
C16   H68   S    
C212  O67   A    
C53   C88   A    
C145  N1    A    
C196  O76   S    
C82   C136  A    
C154  C167  A    
C248  C257  A    
C70   C98   A    
C154  O62   S    
C245  O10   A    
C148  N3    A    
C159  C278  A    
C74   C103  A    
C106  H89   S    
C81   C286  A    
C225  C264  A    
C158  N8    A    
C202  H47   S    
C263  N7    S    
C121  H103  S    
C122  H104  S    
C22   C51   A    
C230  C265  A    
C149  O57   S    
