data_mof_unit_49949.cif
_audit_creation_date              2012-12-10T17:43:38-0500
_audit_creation_method            fapswitch 2.2
_symmetry_space_group_name_H-M    P1
_symmetry_Int_Tables_number       1
_space_group_crystal_system       triclinic
_cell_length_a                    14.929321
_cell_length_b                    10.603919
_cell_length_c                    9.977842
_cell_angle_alpha                 89.286802
_cell_angle_beta                  90.112535
_cell_angle_gamma                 93.393065
_cell_volume                      1576.69292414

loop_
_atom_site_label
_atom_site_type_symbol
_atom_type_description
_atom_site_fract_x
_atom_site_fract_y
_atom_site_fract_z
_atom_type_partial_charge
C1    C     C_R   0.501824 0.260983 0.500691 0.875512
C2    C     C_R   0.183083 0.435334 0.409221 -0.297608
C3    C     C_R   0.232056 0.511899 0.498942 -0.182334
C4    C     C_R   0.327365 0.503602 0.499825 0.897748
C5    C     C_R   0.189693 0.591568 0.588427 0.353456
C6    C     C_R   0.657220 0.142770 0.608814 -0.178687
C7    C     C_R   0.730925 0.082273 0.658997 -0.128669
C8    C     C_R   0.731343 0.951066 0.657078 -0.145114
C9    C     C_R   0.658085 0.880007 0.604850 -0.182414
C10   C     C_R   0.582662 0.939969 0.554145 0.102499
C11   C     C_R   0.582176 0.072000 0.556176 0.086387
C12   C     C_R   0.908992 0.577208 0.596043 0.134640
C13   C     C_R   0.507036 0.128958 0.501682 -0.092418
C14   C     C_R   0.435725 0.059790 0.442689 -0.203613
C15   C     C_R   0.436205 0.930976 0.440825 -0.201875
C16   C     C_R   0.502151 0.739275 0.499278 0.836985
C17   C     C_R   0.508017 0.872127 0.497902 -0.085652
C18   C     C_R   0.374795 0.346689 0.148382 -0.167122
C19   C     C_R   0.303006 0.282515 0.088695 -0.322394
C20   C     C_R   0.295235 0.282640 0.951080 -0.053608
C21   C     C_R   0.365157 0.341300 0.871871 0.426218
C22   C     C_R   0.434779 0.423674 0.930833 0.107080
C23   C     C_R   0.948470 0.355637 0.317158 -0.219427
C24   C     C_R   0.436905 0.424429 0.075127 0.109795
C25   C     C_R   0.560435 0.572255 0.070169 -0.099272
C26   C     C_R   0.560613 0.571992 0.927652 -0.112855
C27   C     C_R   0.672852 0.500500 0.500210 0.846785
C28   C     C_R   0.816208 0.573482 0.596047 -0.264206
C29   C     C_R   0.768426 0.500893 0.501345 -0.059563
C30   C     C_R   0.811523 0.428777 0.408145 -0.267095
C31   C     C_R   0.904249 0.428913 0.408776 0.117959
C32   C     C_R   0.953398 0.504412 0.502342 0.079133
C33   C     C_R   0.214089 0.218160 0.890085 0.106560
C34   C     C_R   0.041542 0.357459 0.317501 -0.192654
C35   C     C_R   0.164394 0.281265 0.792980 -0.125101
C36   C     C_R   0.088334 0.221051 0.734755 -0.143102
C37   C     C_R   0.061230 0.097423 0.772855 -0.115230
C38   C     C_R   0.110033 0.033920 0.869476 -0.120281
C39   C     C_R   0.186052 0.093890 0.928195 -0.155756
C40   C     C_R   0.090660 0.433512 0.408611 0.113409
C41   C     C_R   0.046822 0.507761 0.501478 -0.040823
C42   C     C_R   0.096200 0.585895 0.592699 0.071427
C43   C     C_R   0.050969 0.658344 0.684892 -0.154895
C44   C     C_R   0.957833 0.653343 0.687002 -0.268887
H1    H     H_    0.781120 0.628977 0.667504 0.140546
H2    H     H_    0.772724 0.371725 0.336659 0.158176
H3    H     H_    0.610325 0.631120 0.873798 0.138881
H4    H     H_    0.911136 0.297190 0.245494 0.150697
H5    H     H_    0.075137 0.300124 0.246209 0.148462
H6    H     H_    0.217215 0.375206 0.341354 0.161622
H7    H     H_    0.087212 0.718805 0.755795 0.195193
H8    H     H_    0.924023 0.709811 0.758848 0.143343
H9    H     H_    0.379106 0.105820 0.399889 0.139276
H10   H     H_    0.184361 0.377237 0.763216 0.163676
H11   H     H_    0.050280 0.270216 0.660289 0.144929
H12   H     H_    0.660193 0.244746 0.610267 0.145676
H13   H     H_    0.002382 0.050870 0.727611 0.124525
H14   H     H_    0.089027 0.938089 0.898752 0.129696
H15   H     H_    0.223561 0.042964 0.002066 0.137730
H16   H     H_    0.340238 0.222180 0.727621 0.319958
H17   H     H_    0.295590 0.700720 0.628825 0.337541
H18   H     H_    0.788122 0.137412 0.698569 0.137396
H19   H     H_    0.788851 0.904243 0.695149 0.126888
H20   H     H_    0.661668 0.778524 0.602791 0.132473
H21   H     H_    0.379734 0.876722 0.397386 0.149939
H22   H     H_    0.610047 0.631705 0.122518 0.145534
H23   H     H_    0.378563 0.333698 0.253530 0.219708
H24   H     H_    0.253322 0.231448 0.150941 0.158387
N1    N     N_R   0.499150 0.498800 0.142780 -0.110201
N2    N     N_R   0.499120 0.498720 0.857170 -0.096283
O1    O     O_R   0.500000 0.316780 0.614690 -0.551103
O2    O     O_3   0.237219 0.675420 0.671071 -0.775365
O3    O     O_R   0.499990 0.316750 0.385360 -0.645289
O4    O     O_R   0.367850 0.499980 0.614680 -0.536265
O5    O     O_R   0.367840 0.499960 0.385350 -0.644383
O6    O     O_R   0.500010 0.683250 0.614640 -0.621932
O7    O     O_R   0.500000 0.683220 0.385310 -0.609655
O8    O     O_R   0.632160 0.500040 0.614650 -0.637675
O9    O     O_R   0.632150 0.500020 0.385320 -0.616659
O10   O     O_3   0.367812 0.308579 0.740573 -0.723688
Zn1   Zn    Zn3+2 0.500010 0.500020 0.653130 0.989458
Zn2   Zn    Zn3+2 0.499990 0.499980 0.346870 0.943849

loop_
_geom_bond_atom_site_label_1
_geom_bond_atom_site_label_2
_ccdc_geom_bond_type
C5    C42   A    
C27   C29   S    
C9    H20   S    
C41   C42   A    
C19   C20   A    
C27   O8    A    
C7    C8    A    
C33   C39   A    
C12   C28   A    
C34   C40   A    
C28   C29   A    
C18   C19   A    
C5    O2    S    
C27   O9    A    
C38   C39   A    
C10   C17   A    
C15   H21   S    
C16   O7    A    
N2    Zn1   S    
C4    O5    A    
N1    Zn2   S    
C2    H6    S    
C38   H14   S    
H16   O10   S    
C35   C36   A    
C8    C9    A    
C32   C41   A    
C18   C24   A    
C29   C30   A    
C9    C10   A    
C4    O4    A    
C44   H8    S    
C13   C14   A    
C12   C32   A    
C35   H10   S    
C24   N1    A    
C28   H1    S    
C6    C11   A    
C16   C17   S    
C18   H23   S    
C23   C31   A    
C43   C44   A    
C7    H18   S    
C37   C38   A    
C31   C32   A    
C23   C34   A    
C39   H15   S    
C19   H24   S    
C1    O1    A    
C26   H3    S    
C20   C33   S    
H17   O2    S    
C40   C41   A    
C26   N2    A    
C22   C24   A    
C1    C13   S    
C42   C43   A    
O4    Zn1   S    
C3    C4    S    
O3    Zn2   S    
C15   C17   A    
C36   C37   A    
C34   H5    S    
C23   H4    S    
C16   O6    A    
C30   H2    S    
C25   H22   S    
C6    H12   S    
C3    C5    A    
O6    Zn1   S    
O9    Zn2   S    
O5    Zn2   S    
C6    C7    A    
C1    O3    A    
C2    C3    A    
C25   C26   A    
C12   C44   A    
C36   H11   S    
C11   C13   A    
O8    Zn1   S    
C43   H7    S    
C30   C31   A    
O7    Zn2   S    
C21   O10   S    
C33   C35   A    
C10   C11   A    
C8    H19   S    
C2    C40   A    
C14   H9    S    
C25   N1    A    
C20   C21   A    
C14   C15   A    
C21   C22   A    
C22   N2    A    
C37   H13   S    
O1    Zn1   S    
