data_mof_unit_42956.cif
_audit_creation_date              2012-12-10T18:53:01-0500
_audit_creation_method            fapswitch 2.2
_symmetry_space_group_name_H-M    P1
_symmetry_Int_Tables_number       1
_space_group_crystal_system       triclinic
_cell_length_a                    9.840867
_cell_length_b                    10.699067
_cell_length_c                    16.688168
_cell_angle_alpha                 90.128106
_cell_angle_beta                  84.059055
_cell_angle_gamma                 89.919678
_cell_volume                      1747.62168546

loop_
_atom_site_label
_atom_site_type_symbol
_atom_type_description
_atom_site_fract_x
_atom_site_fract_y
_atom_site_fract_z
_atom_type_partial_charge
C1    C     C_R   0.499964 0.740083 0.500097 0.820814
C2    C     C_R   0.500035 0.259901 0.499889 0.878297
C3    C     C_R   0.613817 0.935908 0.522872 -0.199086
C4    C     C_R   0.386142 0.064047 0.477090 -0.193888
C5    C     C_R   0.613870 0.063943 0.522780 -0.195087
C6    C     C_R   0.386009 0.935998 0.477289 -0.171405
C7    C     C_R   0.500090 0.127468 0.499842 -0.009295
C8    C     C_R   0.499886 0.872501 0.500123 -0.014813
C9    C     C_R   0.936054 0.421987 0.449322 0.601174
C10   C     C_R   0.063192 0.574136 0.552804 0.591089
C11   C     C_R   0.081358 0.424599 0.448477 -0.321657
C12   C     C_R   0.918849 0.575948 0.551105 -0.311795
C13   C     C_R   0.479566 0.503134 0.653116 0.939066
C14   C     C_R   0.520317 0.502668 0.346884 0.936840
C15   C     C_R   0.461570 0.530526 0.738484 -0.160671
C16   C     C_R   0.537431 0.529517 0.261541 -0.160416
C17   C     C_R   0.505138 0.646986 0.766254 -0.006662
C18   C     C_R   0.493259 0.645892 0.234105 -0.005082
C19   C     C_R   0.485848 0.674338 0.848370 0.069822
C20   C     C_R   0.510873 0.672587 0.151962 0.074976
C21   C     C_R   0.422144 0.586315 0.901873 -0.050459
C22   C     C_R   0.572664 0.583631 0.098007 -0.046310
C23   C     C_R   0.366176 0.475887 0.873460 0.505395
C24   C     C_R   0.628205 0.472628 0.125903 0.500344
C25   C     C_R   0.389225 0.446438 0.791308 -0.059349
C26   C     C_R   0.607356 0.444126 0.208206 -0.039513
C27   C     C_2   0.434951 0.598702 0.987556 -0.072721
C28   C     C_2   0.559719 0.596685 0.012392 -0.074420
H1    H     H_    0.649906 0.588265 0.969270 0.147537
H2    H     H_    0.344419 0.592700 0.030559 0.149120
H3    H     H_    0.701753 0.886868 0.541414 0.157698
H4    H     H_    0.298131 0.113073 0.458625 0.149518
H5    H     H_    0.701744 0.112885 0.541340 0.154678
H6    H     H_    0.297981 0.887014 0.458915 0.162864
H7    H     H_    0.145181 0.367402 0.406380 0.174157
H8    H     H_    0.856409 0.638605 0.590248 0.163047
N1    N     N_R   0.142790 0.500030 0.500020 -0.135651
N2    N     N_R   0.857210 0.499970 0.499980 -0.134561
O1    O     O_R   0.385380 0.683250 0.500010 -0.585203
O2    O     O_R   0.614620 0.316750 0.499990 -0.587476
O3    O     O_R   0.614710 0.683220 0.500000 -0.636611
O4    O     O_R   0.385290 0.316780 0.500000 -0.630323
O5    O     O_R   0.371780 0.500040 0.615800 -0.572155
O6    O     O_R   0.628220 0.499960 0.384200 -0.555122
O7    O     O_R   0.601110 0.500010 0.615800 -0.635059
O8    O     O_R   0.398890 0.499990 0.384200 -0.636462
Zn1   Zn    Zn3+2 0.346870 0.500020 0.500000 0.977227
Zn2   Zn    Zn3+2 0.653130 0.499980 0.500000 0.983077
N3    N     N_3   0.567384 0.739350 0.712121 -0.465633
H9    H     H_    0.500265 0.760009 0.669404 0.192278
H10   H     H_    0.657844 0.702977 0.682923 0.195884
N4    N     N_3   0.431828 0.738744 0.288617 -0.467604
H11   H     H_    0.499893 0.759747 0.330761 0.179955
H12   H     H_    0.341859 0.702777 0.318511 0.210925
N5    N     N_3   0.651619 0.326584 0.237727 -0.429084
H13   H     H_    0.607696 0.254782 0.206567 0.213183
H14   H     H_    0.757684 0.320433 0.225553 0.220017
N6    N     N_3   0.344263 0.329303 0.761452 -0.449981
H15   H     H_    0.386402 0.257174 0.793121 0.224282
H16   H     H_    0.237997 0.324721 0.772805 0.193792
O9    O     O_3   0.307024 0.388259 0.926931 -0.585955
C29   C     C_3   0.167288 0.417563 0.943951 -0.368319
H17   H     H_    0.151772 0.511674 0.971899 0.149589
H18   H     H_    0.120688 0.348232 0.987749 0.200139
H19   H     H_    0.112623 0.411636 0.888973 0.152345
O10   O     O_3   0.684407 0.383732 0.071968 -0.589654
C30   C     C_3   0.824517 0.410108 0.053823 -0.364359
H20   H     H_    0.841497 0.504166 0.026357 0.148494
H21   H     H_    0.868472 0.340248 0.009246 0.198177
H22   H     H_    0.880573 0.402294 0.108138 0.162816
N7    N     N_3   0.463593 0.788967 0.122288 -0.432515
H23   H     H_    0.358702 0.796475 0.139610 0.196788
H24   H     H_    0.512848 0.861780 0.149507 0.208733
N8    N     N_3   0.533612 0.790275 0.878529 -0.431464
H25   H     H_    0.638804 0.796500 0.861973 0.195127
H26   H     H_    0.485777 0.863537 0.850952 0.210099
O11   O     O_3   0.871712 0.349237 0.395725 -0.570570
C31   C     C_3   0.916571 0.223958 0.397072 -0.341996
H27   H     H_    0.927188 0.190303 0.459290 0.145679
H28   H     H_    0.013946 0.211754 0.357858 0.155686
H29   H     H_    0.839090 0.164003 0.372187 0.203904
O12   O     O_3   0.126100 0.653108 0.603247 -0.578266
C32   C     C_3   0.086553 0.620551 0.684201 -0.312246
H30   H     H_    0.097602 0.518378 0.694805 0.157352
H31   H     H_    0.980366 0.651644 0.703409 0.143212
H32   H     H_    0.154799 0.669457 0.722908 0.193705

loop_
_geom_bond_atom_site_label_1
_geom_bond_atom_site_label_2
_ccdc_geom_bond_type
N5    H13   S    
C1    C8    S    
C2    C7    S    
C26   N5    S    
C18   N4    S    
C14   O8    A    
O11   C31   S    
N8    H26   S    
C10   N1    A    
C22   C24   A    
O1    Zn1   S    
C28   H1    S    
C19   C21   A    
C24   C26   A    
C31   H28   S    
C15   C25   A    
N6    H16   S    
O2    Zn2   S    
C11   N1    A    
C29   H18   S    
N3    H10   S    
C5    H5    S    
C20   N7    S    
N1    Zn1   S    
N2    Zn2   S    
C24   O10   S    
O10   C30   S    
C21   C27   S    
C22   C28   S    
C27   H2    S    
C4    C7    A    
N4    H12   S    
C16   C26   A    
N8    H25   S    
C30   H20   S    
C4    C6    A    
C3    C8    A    
C17   N3    S    
C5    C7    A    
C31   H27   S    
C6    C8    A    
N6    H15   S    
C10   O12   S    
C6    H6    S    
C30   H21   S    
C29   H17   S    
C32   H30   S    
N5    H14   S    
C9    O11   S    
C3    H3    S    
C9    C11   A    
C4    H4    S    
C10   C12   A    
C1    O3    A    
C32   H31   S    
C20   C22   A    
O12   C32   S    
C13   C15   S    
C14   C16   S    
C12   H8    S    
C25   N6    S    
C13   O5    A    
N4    H11   S    
C14   O6    A    
O7    Zn2   S    
C15   C17   A    
O8    Zn1   S    
C29   H19   S    
C19   N8    S    
C3    C5    A    
C30   H22   S    
C21   C23   A    
N7    H23   S    
C13   O7    A    
C31   H29   S    
C2    O4    A    
C11   H7    S    
C9    N2    A    
C17   C19   A    
O3    Zn2   S    
C18   C20   A    
O4    Zn1   S    
C23   C25   A    
C12   N2    A    
O9    C29   S    
C1    O1    A    
C2    O2    A    
C23   O9    S    
C32   H32   S    
C16   C18   A    
N3    H9    S    
N7    H24   S    
C27   C28   D    
O5    Zn1   S    
O6    Zn2   S    
