data_mof_unit_43530.cif
_audit_creation_date              2012-12-10T17:00:39-0500
_audit_creation_method            fapswitch 2.2
_symmetry_space_group_name_H-M    P1
_symmetry_Int_Tables_number       1
_space_group_crystal_system       triclinic
_cell_length_a                    27.800843
_cell_length_b                    10.877701
_cell_length_c                    9.813105
_cell_angle_alpha                 88.576011
_cell_angle_beta                  89.846081
_cell_angle_gamma                 91.777255
_cell_volume                      2965.21247551

loop_
_atom_site_label
_atom_site_type_symbol
_atom_type_description
_atom_site_fract_x
_atom_site_fract_y
_atom_site_fract_z
_atom_type_partial_charge
C1    C     C_R   0.495851 0.265765 0.501422 0.811770
C2    C     C_R   0.278957 0.506484 0.381342 -0.125594
C3    C     C_R   0.253754 0.488158 0.504115 0.312667
C4    C     C_R   0.102109 0.491143 0.493288 -0.043713
C5    C     C_R   0.126210 0.379966 0.480512 -0.017375
C6    C     C_R   0.099558 0.270511 0.464429 -0.149159
C7    C     C_R   0.129281 0.601147 0.509968 -0.019627
C8    C     C_R   0.354630 0.494604 0.501484 -0.080404
C9    C     C_R   0.645242 0.492459 0.499333 -0.046213
C10   C     C_R   0.973183 0.382900 0.460582 0.042666
C11   C     C_R   0.976118 0.605089 0.508078 0.043230
C12   C     C_R   0.407638 0.498639 0.500269 0.796764
C13   C     C_R   0.949398 0.494409 0.483312 0.067992
C14   C     C_R   0.944824 0.276927 0.429594 -0.205747
C15   C     C_R   0.894925 0.279174 0.426886 -0.145823
C16   C     C_R   0.871186 0.387043 0.454321 -0.022153
C17   C     C_R   0.898238 0.495122 0.481779 -0.044029
C18   C     C_R   0.873983 0.603772 0.508283 -0.020947
C19   C     C_R   0.823449 0.601902 0.508931 0.536533
C20   C     C_R   0.820721 0.389367 0.454749 0.537055
C21   C     C_R   0.721775 0.425239 0.589936 -0.137476
C22   C     C_R   0.671301 0.421775 0.596586 0.118908
C23   C     C_R   0.501245 0.734449 0.498675 0.853883
C24   C     C_R   0.670487 0.560520 0.397006 -0.268576
C25   C     C_R   0.720510 0.561722 0.391650 -0.099190
C26   C     C_R   0.746317 0.494557 0.488276 0.321752
C27   C     C_R   0.024211 0.380890 0.468972 0.043456
C28   C     C_R   0.050980 0.492337 0.489323 0.066310
C29   C     C_R   0.027267 0.604951 0.505902 0.042898
C30   C     C_R   0.049648 0.270623 0.459089 -0.206054
C31   C     C_R   0.105729 0.711825 0.521692 -0.146747
C32   C     C_R   0.950473 0.712233 0.535629 -0.205900
C33   C     C_R   0.900515 0.711331 0.535498 -0.147198
C34   C     C_R   0.592273 0.496907 0.500124 0.793434
C35   C     C_R   0.055828 0.714028 0.519391 -0.205593
C36   C     C_2   0.489066 0.934467 0.392478 -0.176000
C37   C     C_2   0.505279 0.867045 0.497006 -0.345847
C38   C     C_2   0.493428 0.068308 0.395191 -0.202665
C39   C     C_2   0.482470 0.134858 0.504869 0.013599
C40   C     C_2   0.462092 0.481771 0.923553 -0.123462
C41   C     C_2   0.466303 0.449530 0.073608 0.200541
C42   C     C_R   0.176699 0.380864 0.484825 0.519237
C43   C     C_R   0.179693 0.597944 0.513652 0.523258
C44   C     C_R   0.278723 0.471478 0.628110 0.188564
C45   C     C_R   0.329396 0.475003 0.624870 -0.201861
C46   C     C_R   0.328974 0.509613 0.379782 -0.222620
Cu1   Cu    Cu3+1 0.500010 0.500020 0.638630 0.922329
Cu2   Cu    Cu3+1 0.499990 0.499980 0.361370 0.922609
H1    H     H_    0.347494 0.525008 0.283398 0.157382
H2    H     H_    0.125834 0.797930 0.532678 0.188183
H3    H     H_    0.967782 0.798576 0.560592 0.137411
H4    H     H_    0.651493 0.614300 0.321449 0.158923
H5    H     H_    0.882730 0.795850 0.557567 0.186631
H6    H     H_    0.739295 0.614918 0.312159 0.152088
H7    H     H_    0.040910 0.803766 0.526354 0.136439
H8    H     H_    0.475334 0.891971 0.300912 0.167512
H9    H     H_    0.520583 0.910713 0.586172 0.156709
H10   H     H_    0.509056 0.112784 0.304376 0.160980
H11   H     H_    0.259533 0.519173 0.286757 0.141958
H12   H     H_    0.426598 0.485361 0.878420 0.158274
H13   H     H_    0.530431 0.460195 0.883061 0.199423
H14   H     H_    0.117206 0.183565 0.456154 0.185932
H15   H     H_    0.742443 0.372571 0.662975 0.142007
H16   H     H_    0.874969 0.195244 0.403404 0.188033
H17   H     H_    0.959963 0.190399 0.404731 0.138229
H18   H     H_    0.032139 0.181644 0.449571 0.136029
H19   H     H_    0.349629 0.462312 0.717689 0.159770
N1    N     N_R   0.202200 0.488794 0.501709 -0.472183
N2    N     N_R   0.797933 0.495550 0.482917 -0.462207
N3    N     N_2   0.499480 0.498660 0.846910 -0.310402
N4    N     N_2   0.499460 0.498630 0.153040 -0.170790
O1    O     O_R   0.500010 0.321960 0.617040 -0.569270
O2    O     O_2   0.794591 0.286418 0.426931 -0.538443
O3    O     O_2   0.206076 0.702892 0.529198 -0.535859
O4    O     O_2   0.799985 0.705113 0.537025 -0.539129
O5    O     O_R   0.499990 0.321920 0.382900 -0.600410
O6    O     O_R   0.430270 0.500040 0.617060 -0.587965
O7    O     O_R   0.430260 0.500000 0.382910 -0.596380
O8    O     O_R   0.500010 0.678080 0.617100 -0.560542
O9    O     O_R   0.499990 0.678040 0.382960 -0.594057
O10   O     O_R   0.569740 0.500000 0.617090 -0.579568
O11   O     O_R   0.569730 0.499960 0.382940 -0.586808
O12   O     O_2   0.200173 0.274954 0.472284 -0.539957
C47   C     C_3   0.250116 0.450907 0.759708 -0.372006
C48   C     C_3   0.279788 0.432619 0.889437 -0.868862
H20   H     H_    0.302181 0.350203 0.881828 0.254584
H21   H     H_    0.303006 0.515418 0.908062 0.249476
H22   H     H_    0.255164 0.418154 0.978081 0.254384
H23   H     H_    0.227044 0.531184 0.774284 0.218745
H24   H     H_    0.226051 0.368260 0.748990 0.222284
C49   C     C_3   0.452709 0.084312 0.626153 -0.388549
C50   C     C_3   0.405756 0.152582 0.641532 -0.828096
H25   H     H_    0.412838 0.249517 0.669794 0.254521
H26   H     H_    0.385058 0.150612 0.544860 0.257176
H27   H     H_    0.383472 0.107331 0.723616 0.245451
H28   H     H_    0.441933 0.986169 0.616307 0.232706
H29   H     H_    0.474190 0.092971 0.720958 0.200379
C51   C     C_3   0.428335 0.358406 0.128399 -0.368943
C52   C     C_3   0.430249 0.235618 0.054838 -0.408187
C53   C     C_3   0.393882 0.141263 0.115281 -0.823522
H30   H     H_    0.401814 0.122433 0.224603 0.260918
H31   H     H_    0.356807 0.175666 0.105543 0.261623
H32   H     H_    0.395971 0.053903 0.059686 0.244822
H33   H     H_    0.422120 0.249477 0.944793 0.228382
H34   H     H_    0.466934 0.198386 0.064252 0.224841
H35   H     H_    0.433094 0.337515 0.237341 0.259428
H36   H     H_    0.392266 0.398058 0.114274 0.168987
C54   C     C_3   0.537734 0.582188 0.090161 -0.164343
C55   C     C_3   0.556106 0.697959 0.163695 -0.307450
C56   C     C_3   0.595578 0.766521 0.080069 -0.958359
H37   H     H_    0.626769 0.706693 0.065593 0.264819
H38   H     H_    0.581722 0.796156 0.978749 0.264201
H39   H     H_    0.608106 0.849741 0.134729 0.262933
H40   H     H_    0.526307 0.762804 0.173710 0.223434
H41   H     H_    0.572639 0.678720 0.262742 0.259874
H42   H     H_    0.569321 0.526619 0.065079 0.152878
H43   H     H_    0.523994 0.632053 0.000339 0.178994
C57   C     C_3   0.647250 0.337658 0.703893 -0.401930
C58   C     C_3   0.623447 0.224494 0.640220 -0.775856
H44   H     H_    0.596023 0.251057 0.564218 0.237784
H45   H     H_    0.651003 0.169733 0.589140 0.259280
H46   H     H_    0.605559 0.166056 0.721002 0.231163
H47   H     H_    0.674168 0.304450 0.778752 0.197245
H48   H     H_    0.620925 0.387622 0.764803 0.217364

loop_
_geom_bond_atom_site_label_1
_geom_bond_atom_site_label_2
_ccdc_geom_bond_type
H13   N3    S    
C24   H4    S    
C21   C26   A    
C40   H12   S    
Cu2   O5    S    
C3    N1    S    
Cu1   O8    S    
C5    C42   A    
C32   H3    S    
C48   H20   S    
C2    C46   A    
C46   H1    S    
C40   N3    D    
C36   C37   D    
C5    C6    A    
C9    C22   A    
C48   H22   S    
C15   C16   A    
C54   C55   S    
C18   C19   A    
Cu2   O7    S    
C56   H37   S    
C50   H25   S    
C49   H28   S    
C38   H10   S    
C47   C48   S    
C8    C45   A    
C16   C17   A    
C12   O7    A    
C45   H19   S    
C15   H16   S    
C34   O10   A    
C7    C43   A    
C23   O9    A    
C10   C27   A    
C8    C12   S    
C41   N4    D    
C43   O3    S    
C58   H45   S    
C52   H33   S    
C21   C22   A    
C57   C58   S    
C27   C30   A    
C42   N1    A    
C31   H2    S    
C47   H24   S    
C4    C7    A    
C39   C49   S    
C4    C28   A    
C8    C46   A    
C48   H21   S    
C33   H5    S    
C52   H34   S    
C3    C44   A    
C1    O1    A    
C7    C31   A    
C35   H7    S    
Cu1   Cu2   S    
C25   H6    S    
C10   C14   A    
C49   C50   S    
C55   H41   S    
C2    H11   S    
C43   N1    A    
Cu1   O10   S    
C25   C26   A    
C23   C37   S    
Cu2   O9    S    
C50   H27   S    
C49   H29   S    
C51   H36   S    
Cu1   N3    S    
C36   H8    S    
C52   C53   S    
C16   C20   A    
C12   O6    A    
C53   H31   S    
C17   C18   A    
C57   H48   S    
C24   C25   A    
C56   H39   S    
C30   H18   S    
C55   H40   S    
C40   C41   S    
C6    C30   A    
C11   C32   A    
C9    C34   S    
C31   C35   A    
C20   N2    A    
C19   N2    A    
C47   H23   S    
Cu1   O6    S    
Cu2   N4    S    
C44   C45   A    
C58   H46   S    
C22   C57   S    
C28   C29   A    
C14   C15   A    
C1    O5    A    
C54   H43   S    
C42   O12   S    
C4    C5    A    
C44   C47   S    
C10   C13   A    
C58   H44   S    
C9    C24   A    
C29   C35   A    
C51   H35   S    
C13   C17   A    
C32   C33   A    
C6    H14   S    
C36   C38   S    
C2    C3    A    
C55   C56   S    
C11   C13   A    
C54   H42   S    
C50   H26   S    
C38   C39   D    
C19   O4    S    
C53   H30   S    
C14   H17   S    
Cu2   O11   S    
C20   O2    S    
C57   H47   S    
C53   H32   S    
C18   C33   A    
C56   H38   S    
Cu1   O1    S    
C21   H15   S    
C1    C39   S    
C11   C29   A    
C51   C52   S    
C27   C28   A    
C26   N2    S    
C41   C51   S    
C34   O11   A    
C23   O8    A    
N4    C54   S    
C37   H9    S    
