data_mof_unit_40945.cif
_audit_creation_date              2012-12-10T17:40:31-0500
_audit_creation_method            fapswitch 2.2
_symmetry_space_group_name_H-M    P1
_symmetry_Int_Tables_number       1
_space_group_crystal_system       triclinic
_cell_length_a                    13.865079
_cell_length_b                    15.03194
_cell_length_c                    15.804937
_cell_angle_alpha                 86.893322
_cell_angle_beta                  69.513926
_cell_angle_gamma                 87.178225
_cell_volume                      3079.57719885

loop_
_atom_site_label
_atom_site_type_symbol
_atom_type_description
_atom_site_fract_x
_atom_site_fract_y
_atom_site_fract_z
_atom_type_partial_charge
C1    C     C_R   0.498328 0.671206 0.500124 0.812418
C2    C     C_R   0.501059 0.328767 0.502051 0.795588
C3    C     C_R   0.383324 0.474555 0.097993 -0.214539
C4    C     C_R   0.619673 0.522692 0.900942 -0.209516
C5    C     C_R   0.309266 0.462174 0.058434 0.072269
C6    C     C_R   0.695141 0.527050 0.940828 0.075814
C7    C     C_R   0.409865 0.188314 0.550561 -0.193327
C8    C     C_R   0.588630 0.812041 0.464516 -0.180884
C9    C     C_R   0.501924 0.231779 0.508980 -0.083849
C10   C     C_R   0.496419 0.768025 0.502310 -0.100443
C11   C     C_R   0.593949 0.183203 0.474096 -0.253690
C12   C     C_R   0.405998 0.815082 0.547733 -0.234301
C13   C     C_R   0.596126 0.089748 0.478509 0.092147
C14   C     C_R   0.404470 0.908366 0.551554 0.090005
C15   C     C_R   0.501199 0.045585 0.516693 0.005238
C16   C     C_R   0.499625 0.952606 0.514610 0.001190
C17   C     C_R   0.407668 0.095053 0.555859 0.061999
C18   C     C_R   0.593165 0.903512 0.473979 0.067086
C19   C     C_R   0.690762 0.040140 0.445230 0.011443
C20   C     C_R   0.310720 0.957657 0.592364 0.012629
C21   C     C_R   0.688934 0.946411 0.442558 -0.034630
C22   C     C_R   0.313447 0.051187 0.596875 -0.025603
C23   C     C_R   0.436689 0.497172 0.672682 0.764933
C24   C     C_R   0.563765 0.499693 0.327180 0.776711
C25   C     C_R   0.224194 0.560596 0.443771 0.240365
C26   C     C_R   0.779997 0.436541 0.550816 0.233743
C27   C     C_R   0.186844 0.443776 0.557488 -0.020497
C28   C     C_R   0.809439 0.562435 0.448543 -0.000143
C29   C     C_R   0.082161 0.444859 0.562501 -0.087099
C30   C     C_R   0.914050 0.562624 0.443700 -0.082679
C31   C     C_R   0.050098 0.503589 0.503038 0.064678
C32   C     C_R   0.946494 0.505364 0.503749 0.064113
C33   C     C_R   0.121662 0.559854 0.441898 -0.044377
C34   C     C_R   0.876282 0.446802 0.562123 -0.059552
C35   C     C_R   0.007733 0.390512 0.626123 -0.029779
C36   C     C_R   0.987276 0.617488 0.380626 0.011247
C37   C     C_R   0.906307 0.394083 0.626078 -0.224187
C38   C     C_R   0.088837 0.614588 0.380169 -0.225242
C39   C     C_R   0.397841 0.490035 0.772769 -0.150124
C40   C     C_R   0.603792 0.501227 0.226806 -0.147678
C41   C     C_R   0.269701 0.454330 0.919192 -0.180350
C42   C     C_R   0.738830 0.508471 0.079014 -0.178346
C43   C     C_R   0.300212 0.457145 0.824892 0.007130
C44   C     C_R   0.709996 0.497229 0.173159 0.018578
C45   C     C_R   0.463309 0.515003 0.816723 -0.244487
C46   C     C_R   0.531241 0.509629 0.183562 -0.247830
C47   C     C_R   0.439594 0.500043 0.910502 0.083138
C48   C     C_R   0.559542 0.508013 0.089123 0.083105
C49   C     C_R   0.338472 0.473281 0.963327 0.069958
C50   C     C_R   0.665137 0.515163 0.035837 0.066270
C51   C     C_R   0.514558 0.509376 0.952173 0.033611
C52   C     C_R   0.484892 0.499524 0.047235 0.034127
Cu1   Cu    Cu3+1 0.402580 0.500010 0.499990 0.925611
Cu2   Cu    Cu3+1 0.597420 0.499990 0.500010 0.929855
H1    H     H_    0.214553 0.399197 0.599758 0.111721
H2    H     H_    0.779984 0.609809 0.409236 0.132122
H3    H     H_    0.849986 0.353772 0.676491 0.194394
H4    H     H_    0.142239 0.655241 0.328325 0.190683
H5    H     H_    0.451746 0.519975 0.225152 0.151274
H6    H     H_    0.533043 0.546646 0.775398 0.158090
H7    H     H_    0.193573 0.430954 0.957184 0.175203
H8    H     H_    0.820226 0.507251 0.039566 0.179158
H9    H     H_    0.362545 0.458219 0.168712 0.137929
H10   H     H_    0.645879 0.524419 0.828758 0.132849
H11   H     H_    0.339675 0.228461 0.577091 0.163084
H12   H     H_    0.656918 0.773424 0.427663 0.176754
H13   H     H_    0.662676 0.219854 0.440150 0.150588
H14   H     H_    0.338320 0.777063 0.581406 0.155497
N1    N     N_R   0.256170 0.500070 0.500040 -0.187326
N2    N     N_R   0.743830 0.499930 0.499960 -0.190364
O1    O     O_R   0.417730 0.629750 0.499970 -0.593007
O2    O     O_R   0.582270 0.370250 0.500030 -0.599825
O3    O     O_R   0.582270 0.629730 0.499980 -0.570266
O4    O     O_R   0.417730 0.370270 0.500020 -0.585025
O5    O     O_R   0.371590 0.500020 0.629830 -0.585330
O6    O     O_R   0.628410 0.499980 0.370170 -0.599414
O7    O     O_R   0.536130 0.499990 0.629840 -0.576061
O8    O     O_R   0.463870 0.500010 0.370160 -0.595508
C53   C     C_3   0.199728 0.435325 0.116302 -0.392688
C54   C     C_3   0.174421 0.427514 0.219325 -0.362090
C55   C     C_3   0.061592 0.406098 0.268808 -0.801603
H15   H     H_    0.010861 0.462289 0.259459 0.282233
H16   H     H_    0.042349 0.344720 0.242935 0.255774
H17   H     H_    0.047272 0.395227 0.342174 0.237238
H18   H     H_    0.222747 0.373052 0.236080 0.219915
H19   H     H_    0.189749 0.491319 0.243880 0.224668
H20   H     H_    0.144849 0.485707 0.102802 0.230225
H21   H     H_    0.185716 0.369573 0.094476 0.200891
C56   C     C_3   0.807586 0.544542 0.883389 -0.396403
C57   C     C_3   0.828857 0.575940 0.784418 -0.354571
C58   C     C_3   0.940982 0.601380 0.738066 -0.777055
H22   H     H_    0.958210 0.658179 0.771935 0.248558
H23   H     H_    0.993625 0.543975 0.740559 0.280938
H24   H     H_    0.954832 0.621548 0.666249 0.244893
H25   H     H_    0.813130 0.521733 0.746688 0.228936
H26   H     H_    0.778468 0.635040 0.781544 0.227113
H27   H     H_    0.834218 0.597855 0.915346 0.206813
H28   H     H_    0.854789 0.482791 0.884470 0.235210
C59   C     C_3   0.293607 0.633178 0.385328 -0.370541
C60   C     C_3   0.257597 0.726388 0.422544 -0.371732
C61   C     C_3   0.327356 0.798561 0.364345 -0.818042
H29   H     H_    0.408497 0.784477 0.359296 0.252680
H30   H     H_    0.323036 0.801883 0.295384 0.261551
H31   H     H_    0.301986 0.864236 0.395152 0.245284
H32   H     H_    0.177667 0.743640 0.426251 0.232440
H33   H     H_    0.257591 0.726970 0.492479 0.225894
H34   H     H_    0.373874 0.625036 0.377713 0.256576
H35   H     H_    0.297887 0.630380 0.314110 0.146823
C62   C     C_3   0.738099 0.342701 0.573299 -0.360884
C63   C     C_3   0.650039 0.331854 0.664971 -0.307816
C64   C     C_3   0.645773 0.236096 0.703373 -0.854168
H36   H     H_    0.636279 0.189468 0.654843 0.264566
H37   H     H_    0.717383 0.217375 0.717399 0.263330
H38   H     H_    0.579245 0.230067 0.767642 0.254880
H39   H     H_    0.659889 0.377028 0.714585 0.208171
H40   H     H_    0.574863 0.347726 0.657561 0.245247
H41   H     H_    0.723886 0.315775 0.516022 0.197299
H42   H     H_    0.801297 0.294293 0.573276 0.162960
C65   C     C_2   0.032370 0.328283 0.692987 0.408618
H43   H     H_    0.110621 0.306497 0.684259 0.091947
O9    O     O_2   0.963886 0.299019 0.759609 -0.520556
C66   C     C_2   0.962406 0.675080 0.310735 0.417164
H44   H     H_    0.896962 0.662684 0.291248 0.076366
O10   O     O_2   0.016507 0.737281 0.272464 -0.542660
C67   C     C_2   0.793208 0.479443 0.211355 0.331501
H45   H     H_    0.781453 0.436100 0.270904 0.098957
O11   O     O_2   0.877861 0.511238 0.174527 -0.578350
C68   C     C_2   0.231671 0.418450 0.783795 0.388465
H46   H     H_    0.264289 0.382707 0.722024 0.065896
O12   O     O_2   0.138141 0.423626 0.820223 -0.548581
C69   C     C_3   0.793615 0.086405 0.417843 -0.416220
C70   C     C_3   0.828728 0.120381 0.318687 -0.347523
C71   C     C_3   0.922142 0.178699 0.295820 -0.843882
H47   H     H_    0.902294 0.238174 0.338223 0.244014
H48   H     H_    0.987272 0.140451 0.307552 0.261187
H49   H     H_    0.946630 0.201477 0.223581 0.251274
H50   H     H_    0.849128 0.062842 0.273761 0.219087
H51   H     H_    0.765797 0.159880 0.304625 0.222247
H52   H     H_    0.788123 0.141515 0.463557 0.195688
H53   H     H_    0.854813 0.041452 0.428175 0.202169
C72   C     C_3   0.208237 0.910729 0.631663 -0.417437
C73   C     C_3   0.191981 0.871650 0.727215 -0.307564
C74   C     C_3   0.099110 0.812017 0.760355 -0.839385
H54   H     H_    0.028246 0.850382 0.761161 0.261256
H55   H     H_    0.111824 0.754908 0.715484 0.250462
H56   H     H_    0.088223 0.785645 0.829973 0.254309
H57   H     H_    0.261051 0.831743 0.728612 0.222196
H58   H     H_    0.179456 0.926934 0.774263 0.243510
H59   H     H_    0.141733 0.955874 0.634533 0.187124
H60   H     H_    0.204015 0.858772 0.585982 0.192690
C75   C     C_2   0.787978 0.894005 0.407895 0.320070
H61   H     H_    0.847025 0.914643 0.344995 0.099280
O13   O     O_2   0.806088 0.829972 0.451590 -0.540222
C76   C     C_2   0.218061 0.102851 0.646856 0.315929
H62   H     H_    0.151042 0.103108 0.626494 0.064230
O14   O     O_2   0.214088 0.145203 0.711833 -0.535837

loop_
_geom_bond_atom_site_label_1
_geom_bond_atom_site_label_2
_ccdc_geom_bond_type
C74   H56   S    
C45   H6    S    
C8    H12   S    
C61   H29   S    
C46   H5    S    
C27   C29   A    
C34   C37   A    
C35   C65   S    
Cu1   O4    S    
C41   H7    S    
Cu1   N1    S    
C68   H46   S    
C53   H20   S    
C55   H15   S    
C28   H2    S    
C72   H59   S    
C57   H25   S    
C47   C49   A    
Cu1   Cu2   S    
C40   C46   A    
C59   H35   S    
C12   H14   S    
C60   H32   S    
C1    O1    A    
C35   C37   A    
C27   H1    S    
C7    H11   S    
C70   H51   S    
C15   C16   A    
C18   C21   A    
C74   H55   S    
C7    C9    A    
C63   C64   S    
C54   H19   S    
C69   H53   S    
C38   H4    S    
C25   C59   S    
C59   C60   S    
C70   C71   S    
C7    C17   A    
C62   H42   S    
C71   H49   S    
C75   H61   S    
C31   C33   A    
C5    C53   S    
C42   H8    S    
C76   O14   D    
C27   N1    A    
C39   C45   A    
Cu2   O7    S    
C48   C50   A    
C61   H30   S    
C75   O13   D    
C41   C43   A    
C5    C49   A    
Cu1   O5    S    
C42   C44   A    
C2    O2    A    
C73   H57   S    
C41   C49   A    
C53   H21   S    
C55   H16   S    
C11   H13   S    
C72   H60   S    
C45   C47   A    
C19   C69   S    
C46   C48   A    
C44   C67   S    
C13   C19   A    
C4    C51   A    
C62   H41   S    
C51   C52   A    
C14   C20   A    
C4    C6    A    
C23   O5    A    
C58   H22   S    
C24   O6    A    
C39   C43   A    
C70   H50   S    
C23   O7    A    
C56   H27   S    
C32   C34   A    
C36   C66   S    
C54   H18   S    
C73   H58   S    
C58   H23   S    
Cu2   O3    S    
C31   C32   A    
Cu2   N2    S    
C40   C44   A    
C3    C52   A    
C64   H37   S    
C16   C18   A    
C6    C50   A    
C9    C11   A    
C26   C62   S    
C76   H62   S    
C65   O9    D    
C10   C12   A    
C42   C50   A    
Cu2   O6    S    
C24   O8    A    
C12   C14   A    
C61   H31   S    
C13   C15   A    
C71   H47   S    
C26   N2    A    
C14   C16   A    
C25   N1    A    
C66   O10   D    
C69   C70   S    
Cu1   O1    S    
C63   H40   S    
C55   H17   S    
C71   H48   S    
C22   C76   S    
C15   C17   A    
C4    H10   S    
C64   H36   S    
C26   C34   A    
C20   C72   S    
C28   N2    A    
C1    C10   S    
C33   C38   A    
C20   C22   A    
C54   C55   S    
C3    C5    A    
C68   O12   D    
C43   C68   S    
C47   C51   A    
C65   H43   S    
C57   H26   S    
C3    H9    S    
C6    C56   S    
C59   H34   S    
C29   C35   A    
C60   H33   S    
C17   C22   A    
C30   C36   A    
C56   H28   S    
C1    O3    A    
C28   C30   A    
Cu1   O8    S    
C56   C57   S    
C29   C31   A    
C62   C63   S    
C58   H24   S    
C30   C32   A    
C11   C13   A    
C57   C58   S    
C67   H45   S    
C23   C39   S    
C36   C38   A    
C60   C61   S    
C24   C40   S    
C64   H38   S    
C21   C75   S    
C8    C18   A    
C69   H52   S    
C53   C54   S    
C48   C52   A    
Cu2   O2    S    
C8    C10   A    
C67   O11   D    
C73   C74   S    
C2    O4    A    
C66   H44   S    
C72   C73   S    
C2    C9    S    
C63   H39   S    
C37   H3    S    
C74   H54   S    
C25   C33   A    
C19   C21   A    
