data_mof_unit_55277.cif
_audit_creation_date              2012-12-10T20:51:44-0500
_audit_creation_method            fapswitch 2.2
_symmetry_space_group_name_H-M    P1
_symmetry_Int_Tables_number       1
_space_group_crystal_system       triclinic
_cell_length_a                    8.210393
_cell_length_b                    8.919818
_cell_length_c                    16.811954
_cell_angle_alpha                 89.521546
_cell_angle_beta                  93.725699
_cell_angle_gamma                 89.987806
_cell_volume                      1228.58170537

loop_
_atom_site_label
_atom_site_type_symbol
_atom_type_description
_atom_site_fract_x
_atom_site_fract_y
_atom_site_fract_z
_atom_type_partial_charge
Br1   Br    Br    0.810287 0.583352 0.255932 -0.295777
Br2   Br    Br    0.189705 0.416770 0.744094 -0.295776
Br3   Br    Br    0.790258 0.341426 0.094616 -0.378868
Br4   Br    Br    0.209748 0.658836 0.905350 -0.378923
Br5   Br    Br    0.860728 0.645551 0.732543 -0.335471
Br6   Br    Br    0.139249 0.354570 0.267430 -0.335421
C1    C     C_R   0.499984 0.218444 0.500016 0.922097
C2    C     C_R   0.606925 0.433456 0.138843 0.274149
C3    C     C_R   0.542306 0.562753 0.905508 0.082186
C4    C     C_R   0.457690 0.437503 0.094480 0.082178
C5    C     C_R   0.686658 0.554177 0.866491 -0.156089
C6    C     C_R   0.313343 0.446057 0.133500 -0.156112
C7    C     C_R   0.678770 0.558526 0.783140 0.274374
C8    C     C_R   0.321230 0.441619 0.216853 0.274396
C9    C     C_1   0.499997 0.065317 0.500003 -0.130463
C10   C     C_1   0.500003 0.934683 0.499997 -0.130453
C11   C     C_2   0.841776 0.526685 0.912695 0.621758
C12   C     C_R   0.500016 0.781556 0.499984 0.922088
C13   C     C_2   0.158225 0.473622 0.087307 0.621720
C14   C     C_R   0.520048 0.502643 0.653976 0.941648
C15   C     C_R   0.479953 0.497373 0.346025 0.941659
C16   C     C_R   0.529417 0.522476 0.740810 -0.298972
C17   C     C_R   0.470586 0.477610 0.259190 -0.298994
C18   C     C_R   0.385807 0.517705 0.782861 0.221140
C19   C     C_R   0.614193 0.482425 0.217140 0.221140
C20   C     C_R   0.393073 0.566752 0.861142 0.274141
H1    H     H_    0.868739 0.583562 0.968762 0.117668
H2    H     H_    0.131264 0.416824 0.031214 0.117720
N1    N     N_1   0.073640 0.500030 0.499990 0.025262
N2    N     N_1   0.926360 0.499970 0.500010 0.025265
N3    N     N_2   0.547003 0.550056 0.989029 -0.112141
N4    N     N_2   0.452988 0.450215 0.010960 -0.112145
O1    O     O_R   0.636850 0.285340 0.500000 -0.612448
O2    O     O_2   0.064111 0.568349 0.109286 -0.483231
O3    O     O_R   0.363150 0.714660 0.500000 -0.612450
O4    O     O_R   0.363100 0.285350 0.500000 -0.603096
O5    O     O_R   0.636900 0.714650 0.500000 -0.603088
O6    O     O_R   0.652140 0.498630 0.616140 -0.579121
O7    O     O_R   0.347860 0.501370 0.383860 -0.579127
O8    O     O_R   0.378390 0.498650 0.616130 -0.584598
O9    O     O_R   0.621610 0.501350 0.383870 -0.584600
O10   O     O_2   0.935896 0.431925 0.890763 -0.483261
Zn1   Zn    Zn3+2 0.682780 0.499990 0.500010 1.090020
Zn2   Zn    Zn3+2 0.317220 0.500010 0.499990 1.090016

loop_
_geom_bond_atom_site_label_1
_geom_bond_atom_site_label_2
_ccdc_geom_bond_type
C8    C17   A    
O5    Zn1   S    
Br4   C20   S    
N1    N2    T    
O3    Zn2   S    
Br6   C8    S    
C1    O1    A    
C1    O4    A    
O9    Zn1   S    
Br5   C7    S    
N3    N4    D    
C15   O7    A    
O8    Zn2   S    
C1    C9    S    
C14   C16   S    
O6    Zn1   S    
Br1   C19   S    
C2    C19   A    
C3    C5    A    
O7    Zn2   S    
C4    C6    A    
C7    C16   A    
C15   O9    A    
C6    C13   S    
C2    C4    A    
C12   O5    A    
C6    C8    A    
C3    C20   A    
C17   C19   A    
N1    Zn2   S    
Br2   C18   S    
C14   O8    A    
C16   C18   A    
N2    Zn1   S    
O4    Zn2   S    
C3    N3    S    
C13   H2    S    
C11   H1    S    
C4    N4    S    
C5    C7    A    
C14   O6    A    
C10   C12   S    
Br3   C2    S    
C12   O3    A    
C11   O10   D    
C5    C11   S    
C15   C17   S    
C9    C10   T    
C18   C20   A    
C13   O2    D    
O1    Zn1   S    
