data_mof_unit_21515.cif
_audit_creation_date              2012-12-11T15:36:55-0500
_audit_creation_method            fapswitch 2.2
_symmetry_space_group_name_H-M    P1
_symmetry_Int_Tables_number       1
_space_group_crystal_system       triclinic
_cell_length_a                    8.238144
_cell_length_b                    17.409085
_cell_length_c                    19.02662
_cell_angle_alpha                 98.242756
_cell_angle_beta                  93.967944
_cell_angle_gamma                 97.708592
_cell_volume                      2665.27492018

loop_
_atom_site_label
_atom_site_type_symbol
_atom_type_description
_atom_site_fract_x
_atom_site_fract_y
_atom_site_fract_z
_atom_type_partial_charge
Ba1   Ba    Ba6+2 0.162080 0.538580 0.468810 1.634832
Ba2   Ba    Ba6+2 0.648090 0.461410 0.531130 1.644849
C1    C     C_3   0.433829 0.744667 0.223716 -0.378119
C2    C     C_3   0.615949 0.783111 0.498625 -0.013961
C3    C     C_2   0.696830 0.864581 0.490545 -0.103543
C4    C     C_3   0.921487 0.751307 0.321579 0.303611
C5    C     C_2   0.862662 0.884560 0.503055 -0.014061
C6    C     C_2   0.961640 0.823580 0.524104 -0.124326
C7    C     C_1   0.890463 0.750216 0.523571 0.075057
C8    C     C_R   0.112078 0.135363 0.512948 -0.070600
C9    C     C_R   0.172578 0.215545 0.523956 0.048100
C10   C     C_R   0.920254 0.244425 0.469185 0.019919
C11   C     C_R   0.857860 0.162747 0.454611 -0.078587
C12   C     C_3   0.420128 0.715983 0.295124 0.344345
C13   C     C_R   0.952231 0.107164 0.479703 -0.036834
C14   C     C_2   0.947933 0.966404 0.503241 -0.089106
C15   C     C_2   0.883094 0.020954 0.470330 -0.063525
C16   C     C_3   0.951623 0.833919 0.303353 -0.349191
C17   C     C_R   0.073949 0.269313 0.505835 -0.302634
C18   C     C_R   0.616984 0.532657 0.301453 -0.283361
C19   C     C_R   0.460068 0.493514 0.276962 0.078242
C20   C     C_R   0.402806 0.488882 0.205062 -0.120071
C21   C     C_R   0.503344 0.522525 0.156942 -0.018325
C22   C     C_R   0.664516 0.558977 0.182366 -0.137069
C23   C     C_3   0.578990 0.702521 0.648729 0.312500
C24   C     C_R   0.721336 0.562761 0.254175 0.012021
C25   C     C_R   0.486522 0.579190 0.042038 -0.079535
C26   C     C_R   0.432217 0.573387 0.969719 -0.078402
C27   C     C_R   0.331932 0.505445 0.933513 0.062169
C28   C     C_3   0.757546 0.369959 0.313237 0.322830
C29   C     C_R   0.285903 0.443985 0.971912 -0.077986
C30   C     C_R   0.340868 0.449537 0.044048 -0.075847
C31   C     C_R   0.442569 0.517112 0.080174 0.063386
C32   C     C_R   0.120634 0.461141 0.827238 -0.136648
C33   C     C_R   0.077035 0.450449 0.753301 0.014502
C34   C     C_3   0.642093 0.787759 0.679671 -0.391067
C35   C     C_R   0.343996 0.514902 0.735161 0.057329
C36   C     C_R   0.390757 0.525532 0.808513 -0.114124
C37   C     C_R   0.280251 0.497362 0.855611 -0.011234
C38   C     C_R   0.190630 0.474859 0.707844 -0.280145
C39   C     C_3   0.729941 0.350058 0.232383 -0.378921
C40   C     C_3   0.047534 0.637555 0.690193 0.308366
C41   C     C_3   0.065322 0.661026 0.770816 -0.394434
C42   C     C_3   0.241996 0.299963 0.363258 0.307977
C43   C     C_3   0.205010 0.212640 0.334630 -0.363340
C44   C     C_3   0.039931 0.255149 0.841869 -0.235442
C45   C     C_3   0.972433 0.262091 0.713594 0.500459
C46   C     C_3   0.957139 0.040739 0.675899 -0.266266
C47   C     C_2   0.698865 0.135642 0.411171 0.873887
C48   C     C_3   0.898679 0.175059 0.689826 -0.000482
C49   C     C_3   0.499882 0.250429 0.699986 0.355954
C50   C     C_3   0.493459 0.214897 0.768544 -0.428246
C51   C     C_2   0.739577 0.726064 0.493752 -0.277152
H1    H     H_    0.291806 0.687903 0.297024 0.113693
H2    H     H_    0.126273 0.321518 0.377027 0.012549
H3    H     H_    0.331295 0.309197 0.411238 0.050170
H4    H     H_    0.399211 0.694465 0.179833 0.083129
H5    H     H_    0.112192 0.202191 0.287797 0.134802
H6    H     H_    0.156237 0.179390 0.375794 0.066114
H7    H     H_    0.319162 0.190566 0.318287 0.126593
H8    H     H_    0.504965 0.672210 0.298942 -0.017369
H9    H     H_    0.562230 0.771637 0.219673 0.112713
H10   H     H_    0.685106 0.673838 0.631791 0.032344
H11   H     H_    0.488744 0.700261 0.602073 0.030847
H12   H     H_    0.623291 0.302899 0.216970 0.132617
H13   H     H_    0.725402 0.790565 0.728730 0.133259
H14   H     H_    0.711960 0.817379 0.640996 0.059011
H15   H     H_    0.537180 0.819396 0.693090 0.114006
H16   H     H_    0.349916 0.788752 0.218155 0.135970
H17   H     H_    0.892791 0.835054 0.249276 0.116040
H18   H     H_    0.032563 0.282215 0.667364 -0.022809
H19   H     H_    0.812215 0.156594 0.728700 0.069239
H20   H     H_    0.826411 0.169473 0.637318 0.072175
H21   H     H_    0.520988 0.315320 0.713515 0.089038
H22   H     H_    0.600824 0.228619 0.671442 0.078342
H23   H     H_    0.705106 0.402154 0.208636 0.055799
H24   H     H_    0.396417 0.236327 0.800284 0.128803
H25   H     H_    0.612994 0.231827 0.801406 0.112974
H26   H     H_    0.982466 0.752306 0.375663 0.078527
H27   H     H_    0.467846 0.149902 0.755838 0.117144
H28   H     H_    0.769899 0.001449 0.436526 0.106667
H29   H     H_    0.090594 0.840788 0.542819 0.099589
H30   H     H_    0.191795 0.096252 0.530669 0.094831
H31   H     H_    0.066014 0.981418 0.534063 0.082543
H32   H     H_    0.617945 0.907738 0.480789 0.092772
H33   H     H_    0.704532 0.666107 0.466938 0.070208
H34   H     H_    0.841259 0.329807 0.210634 0.123286
H35   H     H_    0.121050 0.331314 0.517383 0.069314
H36   H     H_    0.512106 0.555990 0.828444 0.071253
H37   H     H_    0.786657 0.733944 0.321641 -0.022344
H38   H     H_    0.467823 0.622506 0.942268 0.062077
H39   H     H_    0.561956 0.632725 0.068264 0.062702
H40   H     H_    0.280189 0.458836 0.186951 0.086818
H41   H     H_    0.210654 0.390558 0.945708 0.056156
H42   H     H_    0.306573 0.399895 0.071008 0.057551
H43   H     H_    0.031032 0.441143 0.862088 0.074932
H44   H     H_    0.747251 0.582494 0.146357 0.077620
H45   H     H_    0.164422 0.620744 0.672561 0.010059
H46   H     H_    0.155797 0.466583 0.651038 0.060555
H47   H     H_    0.661573 0.535778 0.356780 0.065340
H48   H     H_    0.898233 0.874655 0.342665 0.088557
H49   H     H_    0.085862 0.853835 0.304806 0.134365
H50   H     H_    0.644156 0.386966 0.334477 0.005719
H51   H     H_    0.860291 0.419195 0.327410 0.054372
H52   H     H_    0.187464 0.317284 0.777259 0.173189
H53   H     H_    0.968390 0.195654 0.836860 0.108295
H54   H     H_    0.963316 0.299599 0.862673 0.124317
H55   H     H_    0.148147 0.257835 0.880729 0.091904
H56   H     H_    0.947138 0.587274 0.675590 0.056677
H57   H     H_    0.123615 0.137385 0.719740 0.246506
H58   H     H_    0.912717 0.027113 0.727193 0.101758
H59   H     H_    0.055164 0.004737 0.662116 0.113767
H60   H     H_    0.853377 0.025144 0.633562 0.133514
H61   H     H_    0.570126 0.124620 0.315356 0.299494
H62   H     H_    0.168366 0.709918 0.786770 0.129250
H63   H     H_    0.090766 0.610993 0.797455 0.067569
H64   H     H_    0.949737 0.680189 0.788911 0.119805
N1    N     N_2   0.095605 0.270255 0.773872 -0.432614
N2    N     N_2   0.022707 0.123050 0.682793 -0.417553
O1    O     O_2   0.166667 0.691630 0.546720 -0.470220
O2    O     O_2   0.735608 0.438715 0.746445 -0.489629
O3    O     O_3   0.842874 0.304286 0.733027 -0.652132
O4    O     O_3   0.893830 0.593690 0.541700 -0.494283
O5    O     O_3   0.426330 0.460710 0.414310 -0.490190
O6    O     O_2   0.638540 0.536570 0.671920 -0.463241
O7    O     O_3   0.502649 0.666584 0.701450 -0.646157
O8    O     O_2   0.515244 0.214772 0.542494 -0.475761
O9    O     O_3   0.351503 0.226459 0.658007 -0.632683
O10   O     O_3   0.390350 0.644650 0.417800 -0.492436
O11   O     O_2   0.277849 0.778692 0.455550 -0.490475
O12   O     O_3   0.307865 0.338108 0.309789 -0.637511
O13   O     O_3   0.011752 0.702269 0.659738 -0.639922
O14   O     O_3   0.463205 0.779657 0.350435 -0.606951
O15   O     O_2   0.171750 0.463380 0.328050 -0.468234
O16   O     O_3   0.965290 0.605410 0.380210 -0.486774
O17   O     O_2   0.059369 0.557120 0.251921 -0.490688
O18   O     O_2   0.583265 0.101640 0.436942 -0.609281
O19   O     O_R   0.683113 0.146933 0.339963 -0.745754
O20   O     O_3   0.988010 0.700095 0.271107 -0.605202
O21   O     O_2   0.643630 0.308330 0.453260 -0.467655
O22   O     O_3   0.916470 0.406310 0.458240 -0.502741
O23   O     O_3   0.419940 0.355340 0.582140 -0.481810
O24   O     O_3   0.794995 0.303243 0.339889 -0.592950
O25   O     O_3   0.383960 0.539280 0.585630 -0.475724
O26   O     O_3   0.845010 0.394580 0.619730 -0.475277
P1    P     P_3+3 0.992230 0.679190 0.566750 0.976959
P2    P     P_3+3 0.339610 0.439630 0.337240 0.982964
P3    P     P_3+3 0.933549 0.604383 0.288275 0.935552
P4    P     P_3+3 0.818060 0.320800 0.433200 1.016467
P5    P     P_3+3 0.876174 0.399797 0.712910 0.927586
P6    P     P_3+3 0.435450 0.746785 0.432327 0.956777
P7    P     P_3+3 0.466336 0.564969 0.674729 0.948657
P8    P     P_3+3 0.371109 0.253242 0.573348 0.954427

loop_
_geom_bond_atom_site_label_1
_geom_bond_atom_site_label_2
_ccdc_geom_bond_type
C16   H17   S    
C43   H7    S    
O1    P1    D    
C47   O18   D    
C2    C51   S    
Ba2   O25   S    
C7    P1    S    
O14   P6    S    
C49   H21   S    
O8    P8    D    
C38   H46   S    
C34   H14   S    
O22   P4    S    
C5    C6    S    
Ba2   O4    S    
C25   C31   A    
Ba2   O26   S    
O15   P2    D    
C36   H36   S    
C9    C17   A    
C30   H42   S    
C6    H29   S    
C49   O9    S    
O3    P5    S    
C26   C27   A    
C1    H16   S    
C40   H56   S    
C49   H22   S    
O10   P6    S    
C35   C38   A    
Ba1   O10   S    
C8    C13   A    
C40   H45   S    
C23   H10   S    
C36   C37   A    
C34   H13   S    
C44   H53   S    
C8    H30   S    
C14   H31   S    
C39   H34   S    
O2    P5    D    
C44   N1    S    
C32   C33   A    
C16   H49   S    
C4    O20   S    
C48   H19   S    
C41   H62   S    
O7    P7    S    
C45   N1    S    
C14   C15   D    
C21   C31   S    
C44   H55   S    
C28   H50   S    
C21   C22   A    
C28   C39   S    
O12   P2    S    
C51   H33   S    
C33   P5    S    
C45   C48   S    
O26   P5    S    
C3    H32   S    
Ba2   P4    S    
C47   O19   S    
Ba1   P1    S    
C50   H25   S    
C16   H48   S    
C46   N2    S    
C4    C16   S    
O5    P2    S    
O20   P3    S    
C49   C50   S    
C17   H35   S    
C48   H20   S    
C3    C5    D    
C50   H24   S    
C6    C7    D    
C45   O3    S    
C39   H12   S    
C4    H37   S    
C12   H8    S    
C28   O24   S    
C32   C37   A    
C42   O12   S    
C23   H11   S    
C23   O7    S    
Ba1   O4    S    
C35   C36   A    
O6    P7    D    
C41   H63   S    
C42   H3    S    
C29   C30   A    
C18   H47   S    
O4    P1    S    
C44   H54   S    
C27   C37   S    
C25   H39   S    
C18   C19   A    
C24   P3    S    
C45   H18   S    
O17   P3    D    
C1    C12   S    
O9    P8    S    
C41   H64   S    
C11   C47   S    
C1    H4    S    
C5    C14   S    
C46   H59   S    
C11   C13   A    
Ba2   O23   S    
C20   H40   S    
H52   N1    S    
Ba1   P2    S    
C7    C51   D    
C40   C41   S    
C35   P7    S    
C43   H5    S    
C19   P2    S    
C25   C26   A    
C42   C43   S    
C1    H9    S    
C13   C15   S    
C2    P6    S    
C43   H6    S    
C12   H1    S    
C50   H27   S    
C10   P4    S    
C22   C24   A    
C2    C3    S    
H57   N2    S    
C34   H15   S    
C12   O14   S    
Ba2   O5    S    
C29   H41   S    
Ba2   O21   S    
C30   C31   A    
C33   C38   A    
Ba1   O5    S    
O13   P1    S    
O25   P7    S    
Ba1   O25   S    
Ba1   O16   S    
C39   H23   S    
C42   H2    S    
C4    H26   S    
C18   C24   A    
Ba1   Ba2   S    
C10   C17   A    
C26   H38   S    
C15   H28   S    
C22   H44   S    
H61   O19   S    
O23   P8    S    
Ba1   O22   S    
C8    C9    A    
C9    P8    S    
C23   C34   S    
C48   N2    S    
Ba2   O6    S    
O24   P4    S    
C46   H58   S    
C10   C11   A    
C27   C29   A    
O16   P3    S    
C28   H51   S    
O11   P6    D    
Ba2   O22   S    
C20   C21   A    
C40   O13   S    
C19   C20   A    
O21   P4    D    
Ba1   O1    S    
C32   H43   S    
Ba1   O15   S    
C46   H60   S    
