data_mof_unit_16501.cif
_audit_creation_date              2013-03-05T16:12:25-0500
_audit_creation_method            fapswitch 2.2
_symmetry_space_group_name_H-M    P1
_symmetry_Int_Tables_number       1
_space_group_crystal_system       triclinic
_cell_length_a                    10.828493
_cell_length_b                    9.952979
_cell_length_c                    23.332304
_cell_angle_alpha                 88.608157
_cell_angle_beta                  92.847613
_cell_angle_gamma                 88.849041
_cell_volume                      2510.23973848

loop_
_atom_site_label
_atom_site_type_symbol
_atom_site_description
_atom_site_fract_x
_atom_site_fract_y
_atom_site_fract_z
_atom_type_partial_charge
O1    O     O_R   0.316770 0.614620 0.500000 -0.609847
O2    O     O_R   0.683230 0.385380 0.500000 -0.657323
O3    O     O_R   0.683230 0.614620 0.500000 -0.641868
O4    O     O_R   0.316770 0.385380 0.500000 -0.667269
C1    C     C_R   0.260764 0.500442 0.500135 0.949731
C2    C     C_R   0.739937 0.498091 0.500124 0.807296
O5    O     O_R   0.499970 0.614690 0.416160 -0.673102
O6    O     O_R   0.500030 0.385310 0.583840 -0.659325
O7    O     O_R   0.500030 0.614690 0.583840 -0.610518
O8    O     O_R   0.499970 0.385310 0.416160 -0.641204
C3    C     C_R   0.501742 0.502493 0.388896 0.910297
C4    C     C_R   0.501430 0.498746 0.610508 0.881204
Zn1   Zn    Zn3+2 0.500000 0.653120 0.500000 0.968732
Zn2   Zn    Zn3+2 0.500000 0.346880 0.500000 0.941262
C5    C     C_R   0.636267 0.383580 0.884187 0.477950
C6    C     C_R   0.544174 0.610433 0.117979 0.478220
N1    N     N_R   0.584293 0.490541 0.853117 -0.382053
N2    N     N_R   0.596885 0.504599 0.149635 -0.380295
C7    C     C_R   0.546505 0.605457 0.878751 0.505764
C8    C     C_R   0.658717 0.402051 0.124494 0.494275
C9    C     C_R   0.552171 0.612631 0.938430 -0.022369
C10   C     C_R   0.661305 0.398413 0.064606 -0.022096
C11   C     C_R   0.604131 0.503142 0.971281 -0.018722
C12   C     C_R   0.606882 0.506289 0.031527 -0.017210
C13   C     C_R   0.650178 0.389088 0.944058 -0.016199
C14   C     C_R   0.551777 0.615641 0.058493 -0.016979
C15   C     C_R   0.503839 0.724554 0.965855 -0.136203
C16   C     C_R   0.712704 0.288112 0.037069 -0.137467
C17   C     C_R   0.502089 0.725243 0.025405 -0.139369
C18   C     C_R   0.705695 0.282663 0.977304 -0.140161
O9    O     O_2   0.672890 0.272345 0.857200 -0.510493
O10   O     O_2   0.482985 0.709324 0.144144 -0.502563
O11   O     O_2   0.501140 0.711157 0.846350 -0.502458
O12   O     O_2   0.714080 0.302564 0.157332 -0.506280
H1    H     H_    0.463792 0.809995 0.941417 0.203815
H2    H     H_    0.755000 0.203984 0.061580 0.203723
H3    H     H_    0.460756 0.811211 0.045340 0.204671
H4    H     H_    0.742910 0.194569 0.957307 0.201889
C19   C     C_R   0.496319 0.403964 0.231974 -0.023327
C20   C     C_R   0.442854 0.470568 0.768538 -0.020378
C21   C     C_R   0.469977 0.406194 0.290571 -0.047655
C22   C     C_R   0.420813 0.480359 0.708496 -0.045447
C23   C     C_R   0.517880 0.508872 0.325899 -0.174062
C24   C     C_R   0.521713 0.496094 0.673012 -0.156731
C25   C     C_R   0.586762 0.613679 0.300607 -0.127964
C26   C     C_R   0.643400 0.510347 0.696899 -0.111768
C27   C     C_R   0.630755 0.596769 0.245386 0.022129
C28   C     C_R   0.665216 0.499585 0.756930 0.005587
C29   C     C_R   0.578488 0.498243 0.210109 0.112099
C30   C     C_R   0.564660 0.482269 0.792130 0.120081
C31   C     C_R   0.072076 0.402793 0.535107 -0.043209
C32   C     C_R   0.930241 0.580943 0.460058 -0.037539
C33   C     C_R   0.943549 0.399564 0.533629 -0.035798
C34   C     C_R   0.058802 0.580072 0.459280 -0.031980
C35   C     C_R   0.873289 0.493066 0.498275 -0.173165
C36   C     C_R   0.128381 0.498307 0.499662 -0.125379
C37   C     C_R   0.572331 0.067739 0.539339 -0.009128
C38   C     C_R   0.424908 0.932143 0.461797 0.014101
C39   C     C_R   0.418780 0.075523 0.464508 0.008182
C40   C     C_R   0.579451 0.924471 0.536358 0.014034
N3    N     N_R   0.500000 0.857200 0.500000 -0.193183
N4    N     N_R   0.500000 0.142800 0.500000 -0.190331
C41   C     C_2   0.434664 0.308617 0.191768 0.515200
H5    H     H_    0.417120 0.337309 0.146902 0.058517
O13   O     O_2   0.406022 0.196143 0.207546 -0.509055
C42   C     C_2   0.340882 0.451474 0.808509 0.452821
H6    H     H_    0.359508 0.398522 0.849332 0.072961
O14   O     O_2   0.237327 0.499212 0.797848 -0.504609
C43   C     C_2   0.377496 0.313515 0.312243 0.497549
H7    H     H_    0.400359 0.207354 0.318468 0.126247
O15   O     O_2   0.273610 0.355175 0.321123 -0.487522
C44   C     C_2   0.292537 0.477485 0.683100 0.470540
H8    H     H_    0.227804 0.405253 0.698900 0.124962
O16   O     O_2   0.257004 0.558684 0.645471 -0.542636
C45   C     C_2   0.600094 0.748222 0.326887 0.601543
H9    H     H_    0.626690 0.760267 0.371591 0.080603
O17   O     O_2   0.580182 0.850347 0.297508 -0.459136
C46   C     C_2   0.744762 0.544323 0.658564 0.557784
H10   H     H_    0.743174 0.507337 0.615445 0.015101
O18   O     O_2   0.827019 0.619993 0.673500 -0.478688
C47   C     C_2   0.733213 0.679617 0.223810 0.555523
H11   H     H_    0.751713 0.683390 0.178579 0.064672
O19   O     O_2   0.802695 0.739398 0.256693 -0.511327
C48   C     C_2   0.792025 0.504590 0.784410 0.617273
H12   H     H_    0.807139 0.553265 0.825204 0.039822
O20   O     O_2   0.879582 0.448541 0.763300 -0.455929
C49   C     C_2   0.147963 0.302909 0.571831 0.545499
H13   H     H_    0.233955 0.331829 0.593006 0.060251
O21   O     O_2   0.119019 0.185226 0.575931 -0.500067
C50   C     C_2   0.854352 0.657382 0.415284 0.475449
H14   H     H_    0.782502 0.605770 0.391212 0.015790
O22   O     O_2   0.869506 0.777116 0.406286 -0.530519
C51   C     C_2   0.884702 0.294558 0.567750 0.486760
H15   H     H_    0.841977 0.211784 0.545576 0.095690
O23   O     O_2   0.891899 0.294934 0.620141 -0.508267
C52   C     C_2   0.118091 0.647640 0.410673 0.422097
H16   H     H_    0.095480 0.751567 0.398924 0.158916
O24   O     O_2   0.189863 0.585303 0.381967 -0.526735
C53   C     C_2   0.629712 0.134351 0.589577 0.520292
H17   H     H_    0.660445 0.235379 0.585958 0.096380
O25   O     O_2   0.639348 0.077766 0.636677 -0.508356
C54   C     C_2   0.358524 0.863908 0.414503 0.480378
H18   H     H_    0.328849 0.763509 0.420579 0.133577
O26   O     O_2   0.340702 0.918100 0.367204 -0.513340
C55   C     C_2   0.313772 0.150530 0.435074 0.533033
H19   H     H_    0.324359 0.250861 0.418992 0.131273
O27   O     O_2   0.211128 0.101970 0.430702 -0.508199
C56   C     C_2   0.681504 0.849786 0.568407 0.588376
H20   H     H_    0.668447 0.751892 0.586792 0.090455
O28   O     O_2   0.784445 0.897408 0.573483 -0.507577

loop_
_geom_bond_atom_site_label_1
_geom_bond_atom_site_label_2
_geom_bond_distance
_ccdc_geom_bond_type
C42   O14   1.220731 D    
C49   H13   1.079797 S    
C41   O13   1.220712 D    
C51   H15   1.082900 S    
C15   C17   1.390679 A    
C1    C36   1.433586 S    
C32   C50   1.482032 S    
C2    C35   1.446680 S    
O3    C2    1.301259 A    
C47   H11   1.083844 S    
C37   N4    1.373252 A    
C27   C29   1.405233 A    
O5    C3    1.298808 A    
C55   O27   1.221511 D    
C39   C55   1.478280 S    
O1    C1    1.298821 A    
C7    C9    1.394374 A    
C12   C14   1.407472 A    
C46   O18   1.221029 D    
C5    C13   1.400085 A    
C37   C53   1.477011 S    
C56   H20   1.069862 S    
C18   H4    1.083153 S    
C31   C36   1.412308 A    
C43   O15   1.220213 D    
O7    Zn1   1.984068 S    
C32   C34   1.392998 A    
C52   O24   1.220682 D    
C11   C12   1.405628 A    
C3    C23   1.488784 S    
C38   C54   1.474041 S    
C34   C52   1.484342 S    
C40   C56   1.480134 S    
C32   C35   1.406727 A    
C8    O12   1.349293 S    
C38   N3    1.372374 A    
C28   C30   1.406902 A    
C42   H6    1.085326 S    
C9    C15   1.403130 A    
C51   O23   1.221114 D    
C20   C42   1.492410 S    
C21   C23   1.418672 A    
O2    C2    1.289644 A    
C22   C24   1.412157 A    
C47   O19   1.221288 D    
C24   C26   1.416136 A    
C26   C28   1.409953 A    
C25   C27   1.408414 A    
C6    C14   1.394231 A    
C34   C36   1.409005 A    
C33   C51   1.472718 S    
C54   H18   1.064164 S    
C48   H12   1.085152 S    
C44   O16   1.221271 D    
O8    Zn2   1.984070 S    
C31   C49   1.501199 S    
C26   C46   1.488920 S    
C46   H10   1.079113 S    
C44   H8    1.084957 S    
C37   C40   1.430049 A    
C15   H1    1.083244 S    
C38   C39   1.430351 A    
C28   C48   1.488605 S    
C40   N3    1.373440 A    
C31   C33   1.391503 A    
C45   H9    1.078364 S    
C45   O17   1.221557 D    
C50   O22   1.220780 D    
C53   H17   1.068212 S    
O6    C4    1.302293 A    
C52   H16   1.083704 S    
C22   C44   1.483915 S    
C54   O26   1.221408 D    
C23   C25   1.427523 A    
C16   H2    1.083161 S    
C19   C29   1.409915 A    
C8    C10   1.400318 A    
C9    C11   1.408397 A    
C7    O11   1.350291 S    
C10   C12   1.408876 A    
O1    Zn1   2.028312 S    
C33   C35   1.413236 A    
C21   C43   1.474512 S    
C13   C18   1.404732 A    
C5    N1    1.368769 A    
C39   N4    1.373276 A    
O6    Zn2   2.002307 S    
C53   O25   1.221436 D    
C48   O20   1.221151 D    
O4    C1    1.285217 A    
O3    Zn1   2.013196 S    
N1    C30   1.432867 S    
C5    O9    1.349270 S    
C6    O10   1.350438 S    
C19   C41   1.494260 S    
C55   H19   1.068541 S    
C25   C45   1.492940 S    
C16   C18   1.395200 A    
C4    C24   1.463519 S    
C50   H14   1.082282 S    
C20   C30   1.411882 A    
C20   C22   1.410044 A    
N1    C7    1.368246 A    
C56   O28   1.221501 D    
N2    C8    1.369222 A    
C27   C47   1.495447 S    
O4    Zn2   2.013197 S    
C43   H7    1.085027 S    
O2    Zn2   2.028311 S    
O7    C4    1.297128 A    
O8    C3    1.315824 A    
C41   H5    1.084908 S    
O5    Zn1   2.002309 S    
C11   C13   1.408699 A    
Zn1   N3    2.031204 S    
C19   C21   1.411047 A    
C14   C17   1.403470 A    
C6    N2    1.370063 A    
C17   H3    1.083258 S    
C49   O21   1.221314 D    
C10   C16   1.404651 A    
N2    C29   1.434823 S    
Zn2   N4    2.031204 S    
