data_mof_unit_17495.cif
_audit_creation_date              2012-12-10T16:34:43-0500
_audit_creation_method            fapswitch 2.2
_symmetry_space_group_name_H-M    P1
_symmetry_Int_Tables_number       1
_space_group_crystal_system       triclinic
_cell_length_a                    28.06984
_cell_length_b                    18.450124
_cell_length_c                    17.038286
_cell_angle_alpha                 89.950048
_cell_angle_beta                  60.964744
_cell_angle_gamma                 89.968905
_cell_volume                      7715.00090334

loop_
_atom_site_label
_atom_site_type_symbol
_atom_type_description
_atom_site_fract_x
_atom_site_fract_y
_atom_site_fract_z
_atom_type_partial_charge
C1    C     C_R   0.700877 0.266591 0.676454 0.889503
C2    C     C_R   0.299332 0.733987 0.323495 0.889058
C3    C     C_R   0.299037 0.266891 0.323594 0.887366
C4    C     C_R   0.700832 0.733501 0.676468 0.891129
C5    C     C_R   0.200667 0.766055 0.676522 0.891719
C6    C     C_R   0.799266 0.233703 0.323504 0.887782
C7    C     C_R   0.799336 0.766122 0.323504 0.886564
C8    C     C_R   0.200931 0.233174 0.676405 0.889377
C9    C     C_R   0.892224 0.500029 0.526974 -0.068756
C10   C     C_R   0.107107 0.500101 0.474670 -0.071698
C11   C     C_R   0.394119 0.999910 0.522367 -0.071905
C12   C     C_R   0.609000 0.999985 0.470077 -0.070614
C13   C     C_R   0.110141 0.369985 0.456315 0.711755
C14   C     C_R   0.889110 0.630160 0.545370 0.687701
C15   C     C_R   0.889381 0.369836 0.544761 0.713307
C16   C     C_R   0.109956 0.630263 0.456654 0.708259
C17   C     C_R   0.612229 0.869845 0.451602 0.697107
C18   C     C_R   0.391082 0.129984 0.541029 0.710633
C19   C     C_R   0.391371 0.869763 0.540379 0.720353
C20   C     C_R   0.611838 0.130220 0.452612 0.711026
C21   C     C_R   0.722962 0.268682 0.950948 -0.153387
C22   C     C_R   0.276631 0.731246 0.049850 -0.157150
C23   C     C_R   0.277954 0.267873 0.047908 -0.159804
C24   C     C_R   0.721889 0.730832 0.952814 -0.154283
C25   C     C_R   0.222164 0.766762 0.951618 -0.155161
C26   C     C_R   0.778175 0.233781 0.048190 -0.152097
C27   C     C_R   0.778590 0.767362 0.047220 -0.151788
C28   C     C_R   0.222102 0.232303 0.951807 -0.157963
C29   C     C_R   0.723645 0.197041 0.978748 0.673291
C30   C     C_R   0.294639 0.789285 0.988547 0.650845
C31   C     C_R   0.272273 0.195157 0.028874 0.682938
C32   C     C_R   0.696540 0.772421 0.031919 0.613276
C33   C     C_R   0.204068 0.708780 0.013008 0.644536
C34   C     C_R   0.777491 0.305441 0.020431 0.678275
C35   C     C_R   0.803898 0.725613 0.968227 0.614982
C36   C     C_R   0.227924 0.305007 0.970632 0.687418
C37   C     C_R   0.750568 0.178916 0.027796 -0.257489
C38   C     C_R   0.268020 0.808024 0.939124 -0.218450
C39   C     C_R   0.244992 0.176636 0.980543 -0.257108
C40   C     C_R   0.724209 0.791311 0.079530 -0.208948
C41   C     C_R   0.230683 0.689965 0.062649 -0.245345
C42   C     C_R   0.750453 0.323654 0.971617 -0.261191
C43   C     C_R   0.776085 0.706229 0.921073 -0.218175
C44   C     C_R   0.255384 0.323499 0.018518 -0.260919
C45   C     C_R   0.644891 0.328778 0.944221 -0.244132
C46   C     C_R   0.353523 0.669213 0.057661 -0.229801
C47   C     C_R   0.356608 0.326827 0.054241 -0.246372
C48   C     C_R   0.644640 0.671144 0.944310 -0.163232
C49   C     C_R   0.145546 0.829280 0.943382 -0.230854
C50   C     C_R   0.855847 0.172700 0.055208 -0.251234
C51   C     C_R   0.855532 0.828126 0.055728 -0.152084
C52   C     C_R   0.143345 0.173366 0.945770 -0.245223
C53   C     C_R   0.614220 0.343118 0.900330 -0.135251
C54   C     C_R   0.384903 0.655800 0.100615 -0.137154
C55   C     C_R   0.386623 0.342091 0.098947 -0.136469
C56   C     C_R   0.614093 0.656873 0.900288 -0.155006
C57   C     C_R   0.114642 0.843562 0.899809 -0.142577
C58   C     C_R   0.886148 0.157461 0.099503 -0.137150
C59   C     C_R   0.885987 0.842898 0.099807 -0.162814
C60   C     C_R   0.113340 0.157992 0.901064 -0.137494
C61   C     C_R   0.626585 0.308993 0.820037 -0.142815
C62   C     C_R   0.373231 0.690857 0.180123 -0.147976
C63   C     C_R   0.373707 0.308743 0.179921 -0.142906
C64   C     C_R   0.626526 0.690975 0.819929 -0.144851
C65   C     C_R   0.126560 0.808965 0.819922 -0.146107
C66   C     C_R   0.873747 0.191328 0.179998 -0.143559
C67   C     C_R   0.873694 0.808806 0.180154 -0.145916
C68   C     C_R   0.126230 0.191328 0.820081 -0.143095
C69   C     C_R   0.677251 0.276296 0.772959 -0.279003
C70   C     C_R   0.323047 0.724703 0.226896 -0.275458
C71   C     C_R   0.322772 0.276695 0.227085 -0.281630
C72   C     C_R   0.677122 0.723841 0.773046 -0.257663
C73   C     C_R   0.176777 0.775138 0.773225 -0.274625
C74   C     C_R   0.823268 0.224596 0.226808 -0.282081
C75   C     C_R   0.823352 0.775248 0.226797 -0.255874
C76   C     C_R   0.177131 0.223478 0.772931 -0.282660
C77   C     C_R   0.708239 0.260264 0.816817 0.748395
C78   C     C_R   0.292293 0.741576 0.182898 0.756467
C79   C     C_R   0.291796 0.261012 0.183143 0.748124
C80   C     C_R   0.707907 0.740111 0.817201 0.680190
C81   C     C_R   0.207267 0.757815 0.817564 0.744375
C82   C     C_R   0.792763 0.241689 0.182446 0.757117
C83   C     C_R   0.792949 0.758014 0.182328 0.671762
C84   C     C_R   0.208055 0.239321 0.816888 0.753992
C85   C     C_R   0.704193 0.130517 0.496973 0.879301
C86   C     C_R   0.296654 0.869851 0.501247 0.878129
C87   C     C_R   0.296661 0.130117 0.501235 0.876748
C88   C     C_R   0.704303 0.869419 0.496708 0.881054
C89   C     C_R   0.203744 0.630332 0.497891 0.881666
C90   C     C_R   0.796149 0.369642 0.502310 0.876209
C91   C     C_R   0.796053 0.630414 0.502537 0.877029
C92   C     C_R   0.203704 0.369722 0.497988 0.876911
C93   C     C_R   0.690972 0.284844 0.904058 0.080440
C94   C     C_R   0.308242 0.714535 0.097105 0.097991
C95   C     C_R   0.309847 0.284139 0.095027 0.075539
C96   C     C_R   0.690668 0.715065 0.904450 0.080529
C97   C     C_R   0.190785 0.783867 0.903994 0.086560
C98   C     C_R   0.810133 0.217372 0.095060 0.088942
C99   C     C_R   0.809901 0.783404 0.095327 0.088610
C100  C     C_R   0.190045 0.216187 0.904970 0.087615
C101  C     C_R   0.072438 0.101762 0.935433 0.917800
C102  C     C_R   0.927121 0.898745 0.065034 0.922558
C103  C     C_R   0.927180 0.101369 0.064919 0.918800
C104  C     C_R   0.073197 0.899063 0.934735 0.922165
C105  C     C_R   0.572804 0.601305 0.935061 0.925286
C106  C     C_R   0.427574 0.398235 0.064553 0.920217
C107  C     C_R   0.426643 0.600742 0.065418 0.924575
C108  C     C_R   0.572871 0.398715 0.935062 0.921978
C109  C     C_R   0.556950 0.131619 0.473861 -0.280981
C110  C     C_R   0.446561 0.868319 0.517313 -0.285016
C111  C     C_R   0.446213 0.131497 0.518285 -0.283000
C112  C     C_R   0.557367 0.868360 0.472621 -0.261688
C113  C     C_R   0.054871 0.631706 0.479045 -0.278184
C114  C     C_R   0.944366 0.368420 0.522920 -0.282828
C115  C     C_R   0.944082 0.631651 0.523660 -0.296848
C116  C     C_R   0.055104 0.368495 0.478485 -0.280832
C117  C     C_R   0.529225 0.197411 0.483553 0.596339
C118  C     C_R   0.474344 0.802514 0.507283 0.596649
C119  C     C_R   0.473791 0.197336 0.508942 0.596232
C120  C     C_R   0.529814 0.802543 0.481707 0.615640
C121  C     C_R   0.027118 0.697508 0.488918 0.600985
C122  C     C_R   0.972074 0.302619 0.513275 0.596083
C123  C     C_R   0.971654 0.697470 0.514458 0.612690
C124  C     C_R   0.027509 0.302664 0.487880 0.596884
C125  C     C_R   0.474433 0.065765 0.504341 -0.065815
C126  C     C_R   0.529201 0.934118 0.486048 -0.064553
C127  C     C_R   0.528989 0.065800 0.486688 -0.065672
C128  C     C_R   0.474623 0.934098 0.503788 -0.064293
C129  C     C_R   0.972243 0.565899 0.510131 -0.068567
C130  C     C_R   0.026942 0.434247 0.492096 -0.064422
C131  C     C_R   0.026815 0.565921 0.492415 -0.061410
C132  C     C_R   0.972386 0.434222 0.509753 -0.064162
C133  C     C_R   0.945258 0.500049 0.517247 0.087550
C134  C     C_R   0.053963 0.500094 0.484832 0.093127
C135  C     C_R   0.447410 0.999920 0.511620 0.089005
C136  C     C_R   0.556119 0.999970 0.479200 0.092008
C137  C     C_R   0.865844 0.433922 0.531892 -0.062192
C138  C     C_R   0.133609 0.566180 0.469305 -0.078150
C139  C     C_R   0.133662 0.434019 0.469221 -0.068701
C140  C     C_R   0.865708 0.566106 0.532238 -0.055944
C141  C     C_R   0.367520 0.933844 0.528124 -0.062075
C142  C     C_R   0.635229 0.066108 0.465715 -0.069893
C143  C     C_R   0.635411 0.933887 0.465217 -0.089406
C144  C     C_R   0.367420 0.065971 0.528354 -0.065983
C145  C     C_R   0.816547 0.434825 0.526228 -0.152664
C146  C     C_R   0.183127 0.565224 0.474333 -0.153321
C147  C     C_R   0.183127 0.434905 0.474364 -0.153433
C148  C     C_R   0.816438 0.565210 0.526520 -0.148610
C149  C     C_R   0.317658 0.934857 0.524094 -0.147577
C150  C     C_R   0.684183 0.065246 0.472352 -0.153494
C151  C     C_R   0.684315 0.934720 0.471985 -0.159043
C152  C     C_R   0.317624 0.065034 0.524168 -0.152892
C153  C     C_R   0.788970 0.500007 0.536173 -0.106825
C154  C     C_R   0.210704 0.500054 0.464241 -0.111691
C155  C     C_R   0.289974 0.999952 0.534756 -0.110540
C156  C     C_R   0.711676 0.999994 0.462871 -0.110717
H1    H     H_    0.633724 0.352783 0.008918 0.191441
H2    H     H_    0.363758 0.643911 0.994012 0.191564
H3    H     H_    0.368637 0.349627 0.988597 0.189580
H4    H     H_    0.633581 0.646737 0.008814 0.200920
H5    H     H_    0.135037 0.854099 0.007399 0.199074
H6    H     H_    0.866981 0.148787 0.990479 0.192182
H7    H     H_    0.866378 0.852675 0.991383 0.203647
H8    H     H_    0.131426 0.150459 0.011323 0.190656
O1    O     O_R   0.746490 0.236330 0.638080 -0.519235
O2    O     O_R   0.253510 0.763670 0.361920 -0.518743
O3    O     O_R   0.253510 0.236330 0.361920 -0.518285
O4    O     O_R   0.746490 0.763670 0.638080 -0.517441
O5    O     O_R   0.246490 0.736330 0.638080 -0.518808
O6    O     O_R   0.753510 0.263670 0.361920 -0.518599
O7    O     O_R   0.753510 0.736330 0.361920 -0.517401
O8    O     O_R   0.246490 0.263670 0.638080 -0.518751
O9    O     O_R   0.674170 0.186160 0.516270 -0.570358
O10   O     O_R   0.325830 0.813840 0.483730 -0.571184
O11   O     O_R   0.325830 0.186160 0.483730 -0.570283
O12   O     O_R   0.674170 0.813840 0.516270 -0.568798
O13   O     O_R   0.174170 0.686160 0.516270 -0.569521
O14   O     O_R   0.825830 0.313840 0.483730 -0.570758
O15   O     O_R   0.825830 0.686160 0.483730 -0.568148
O16   O     O_R   0.174170 0.313840 0.516270 -0.570509
O17   O     O_R   0.739960 0.127620 0.525000 -0.594058
O18   O     O_R   0.260040 0.872380 0.475000 -0.595165
O19   O     O_R   0.260040 0.127620 0.475000 -0.593711
O20   O     O_R   0.739960 0.872380 0.525000 -0.594406
O21   O     O_R   0.239960 0.627620 0.525000 -0.595454
O22   O     O_R   0.760040 0.372380 0.475000 -0.594596
O23   O     O_R   0.760040 0.627620 0.475000 -0.595379
O24   O     O_R   0.239960 0.372380 0.525000 -0.593529
O25   O     O_R   0.680700 0.294870 0.629350 -0.619283
O26   O     O_R   0.319300 0.705130 0.370650 -0.619964
O27   O     O_R   0.319300 0.294870 0.370650 -0.619575
O28   O     O_R   0.680700 0.705130 0.629350 -0.621391
O29   O     O_R   0.180700 0.794870 0.629350 -0.619848
O30   O     O_R   0.819300 0.205130 0.370650 -0.620072
O31   O     O_R   0.819300 0.794870 0.370650 -0.622279
O32   O     O_R   0.180700 0.205130 0.629350 -0.619017
O33   O     O_R   0.062020 0.072840 0.007170 -0.623603
O34   O     O_R   0.937980 0.927160 0.992830 -0.620594
O35   O     O_R   0.937980 0.072840 0.992830 -0.622956
O36   O     O_R   0.062020 0.927160 0.007170 -0.622324
O37   O     O_R   0.562020 0.572840 0.007170 -0.621666
O38   O     O_R   0.437980 0.427160 0.992830 -0.624333
O39   O     O_R   0.437980 0.572840 0.992830 -0.624056
O40   O     O_R   0.562020 0.427160 0.007170 -0.623743
O41   O     O_R   0.947860 0.073950 0.109290 -0.583332
O42   O     O_R   0.052140 0.926050 0.890710 -0.581833
O43   O     O_R   0.052140 0.073950 0.890710 -0.583160
O44   O     O_R   0.947860 0.926050 0.109290 -0.581041
O45   O     O_R   0.447860 0.573950 0.109290 -0.581700
O46   O     O_R   0.552140 0.426050 0.890710 -0.583209
O47   O     O_R   0.552140 0.573950 0.890710 -0.581045
O48   O     O_R   0.447860 0.426050 0.109290 -0.583081
Zn1   Zn    Zn3+2 0.792340 0.208750 0.507670 1.221757
Zn2   Zn    Zn3+2 0.207660 0.791250 0.492330 1.224396
Zn3   Zn    Zn3+2 0.207660 0.208750 0.492330 1.223876
Zn4   Zn    Zn3+2 0.792340 0.791250 0.507670 1.221159
Zn5   Zn    Zn3+2 0.292340 0.708750 0.507670 1.223704
Zn6   Zn    Zn3+2 0.707660 0.291250 0.492330 1.221874
Zn7   Zn    Zn3+2 0.707660 0.708750 0.492330 1.219431
Zn8   Zn    Zn3+2 0.292340 0.291250 0.507670 1.223704
Zn9   Zn    Zn3+2 0.505960 0.500000 0.080520 1.113844
Zn10  Zn    Zn3+2 0.494040 0.500000 0.919480 1.108249
Zn11  Zn    Zn3+2 0.005960 0.000000 0.080520 1.111222
Zn12  Zn    Zn3+2 0.994040 0.000000 0.919480 1.114573
F1    F     F_    0.053256 0.238119 0.477113 -0.541921
F2    F     F_    0.945885 0.762018 0.525406 -0.537792
F3    F     F_    0.946459 0.238040 0.523689 -0.542492
F4    F     F_    0.052748 0.762078 0.478477 -0.540989
F5    F     F_    0.555567 0.737988 0.470803 -0.538141
F6    F     F_    0.447992 0.261866 0.519923 -0.542422
F7    F     F_    0.448696 0.737949 0.517785 -0.542062
F8    F     F_    0.554788 0.262003 0.473357 -0.542313
C157  C     C_2   0.729122 0.499977 0.569864 0.951280
O49   O     O_2   0.698044 0.499979 0.650785 -0.593540
O50   O     O_R   0.708495 0.499980 0.509826 -0.713277
H9    H     H_    0.667195 0.499970 0.541556 0.362578
C158  C     C_2   0.270621 0.500044 0.429888 0.949330
O51   O     O_2   0.301424 0.500148 0.348872 -0.601487
O52   O     O_R   0.291621 0.499953 0.489417 -0.711069
H10   H     H_    0.332926 0.499968 0.457263 0.363132
C159  C     C_2   0.229938 0.999959 0.570227 0.950233
O53   O     O_2   0.199600 0.999922 0.651392 -0.601387
O54   O     O_R   0.208310 0.000010 0.511565 -0.711720
H11   H     H_    0.167001 0.000009 0.544428 0.363412
C160  C     C_2   0.771405 0.000024 0.430176 0.949468
O55   O     O_2   0.802887 0.999994 0.349401 -0.604267
O56   O     O_R   0.791474 0.000036 0.490967 -0.710610
H12   H     H_    0.832762 0.000039 0.459868 0.363082
F9    F     F_    0.141847 0.312484 0.410779 -0.565856
F10   F     F_    0.857343 0.687766 0.590400 -0.570685
F11   F     F_    0.857732 0.312133 0.589816 -0.565258
F12   F     F_    0.141553 0.687878 0.411159 -0.564021
F13   F     F_    0.644077 0.812053 0.407471 -0.572557
F14   F     F_    0.359431 0.187290 0.587342 -0.565572
F15   F     F_    0.359877 0.812317 0.586684 -0.560027
F16   F     F_    0.643535 0.188109 0.408349 -0.565852
C161  C     C_2   0.752926 0.399885 0.940960 1.027192
O57   O     O_2   0.753511 0.412901 0.870095 -0.598630
O58   O     O_R   0.755427 0.457065 0.992688 -0.689960
H13   H     H_    0.757115 0.506230 0.964799 0.355868
C162  C     C_2   0.209907 0.627087 0.126351 1.023564
O59   O     O_2   0.179980 0.582188 0.119805 -0.510804
O60   O     O_R   0.223781 0.618830 0.194347 -0.784691
H14   H     H_    0.206758 0.574274 0.232774 0.362959
C163  C     C_2   0.258804 0.401175 0.038456 1.036308
O61   O     O_2   0.255003 0.419084 0.110383 -0.618046
O62   O     O_R   0.266038 0.454108 0.974813 -0.679835
H15   H     H_    0.269099 0.504735 0.994983 0.347909
C164  C     C_2   0.803946 0.658269 0.840998 1.095829
O63   O     O_2   0.777756 0.614844 0.823015 -0.638501
O64   O     O_R   0.860530 0.661881 0.786709 -0.675645
H16   H     H_    0.874750 0.625991 0.735225 0.346569
C165  C     C_2   0.288825 0.870978 0.875942 1.026700
O65   O     O_2   0.279438 0.875975 0.813200 -0.623550
O66   O     O_R   0.319912 0.924762 0.887702 -0.670099
H17   H     H_    0.332278 0.963982 0.840082 0.350847
C166  C     C_2   0.747711 0.103086 0.059829 1.024235
O67   O     O_2   0.746000 0.052360 0.015091 -0.513589
O68   O     O_R   0.746112 0.089508 0.141856 -0.795892
H18   H     H_    0.744535 0.035896 0.155855 0.363713
C167  C     C_2   0.695977 0.837491 0.161274 1.120980
O69   O     O_2   0.646613 0.832847 0.209331 -0.510354
O70   O     O_R   0.725494 0.886816 0.183192 -0.832245
H19   H     H_    0.701671 0.914153 0.240806 0.344786
C168  C     C_2   0.242589 0.099214 0.958083 1.009971
O71   O     O_2   0.239138 0.051413 0.010375 -0.504245
O72   O     O_R   0.244875 0.080704 0.876721 -0.799987
H20   H     H_    0.241677 0.026586 0.870208 0.352689
F17   F     F_    0.695639 0.145254 0.961208 -0.581849
F18   F     F_    0.339520 0.826730 0.975997 -0.580804
F19   F     F_    0.295937 0.142298 0.053980 -0.572855
F20   F     F_    0.645042 0.797117 0.060597 -0.599912
F21   F     F_    0.159300 0.671273 0.025101 -0.582252
F22   F     F_    0.805575 0.357131 0.037913 -0.579545
F23   F     F_    0.855347 0.700830 0.939712 -0.598605
F24   F     F_    0.204362 0.357975 0.945488 -0.570244
C169  C     C_2   0.585683 0.303274 0.788615 0.983553
O73   O     O_2   0.582472 0.350402 0.740829 -0.551291
O74   O     O_R   0.551074 0.243227 0.814018 -0.773063
H21   H     H_    0.524968 0.244899 0.788808 0.355942
C170  C     C_2   0.414368 0.696629 0.211051 0.986281
O75   O     O_2   0.417725 0.649574 0.258782 -0.548553
O76   O     O_R   0.448913 0.756749 0.185481 -0.758937
H22   H     H_    0.475165 0.755135 0.210407 0.369983
C171  C     C_2   0.414359 0.303234 0.211904 0.985015
O77   O     O_2   0.417378 0.350536 0.259587 -0.551198
O78   O     O_R   0.449009 0.243233 0.187043 -0.772234
H23   H     H_    0.474935 0.245055 0.212596 0.356523
C172  C     C_2   0.585681 0.696720 0.788367 0.985554
O79   O     O_2   0.582427 0.649515 0.740795 -0.551827
O80   O     O_R   0.551216 0.756919 0.813313 -0.763535
H24   H     H_    0.525153 0.755267 0.788019 0.361410
C173  C     C_2   0.085604 0.803655 0.788559 0.987580
O81   O     O_2   0.082543 0.850916 0.740779 -0.549660
O82   O     O_R   0.050846 0.743766 0.813862 -0.758788
H25   H     H_    0.024729 0.745703 0.788682 0.369634
C174  C     C_2   0.914439 0.196219 0.211943 0.985775
O83   O     O_2   0.917232 0.148702 0.259687 -0.550508
O84   O     O_R   0.949311 0.255965 0.187134 -0.772830
H26   H     H_    0.975228 0.253739 0.212689 0.356565
C175  C     C_2   0.914442 0.803705 0.211986 0.988218
O85   O     O_2   0.917382 0.851176 0.259555 -0.550810
O86   O     O_R   0.949142 0.743766 0.187373 -0.762794
H27   H     H_    0.975098 0.745843 0.212855 0.362460
C176  C     C_2   0.085593 0.196697 0.788056 0.985280
O87   O     O_2   0.082669 0.149371 0.740312 -0.551756
O88   O     O_R   0.050831 0.256582 0.812978 -0.772547
H28   H     H_    0.024914 0.254661 0.787409 0.356289
F25   F     F_    0.756091 0.223307 0.774486 -0.573000
F26   F     F_    0.245814 0.781525 0.223903 -0.577502
F27   F     F_    0.243234 0.225750 0.226158 -0.568715
F28   F     F_    0.754772 0.779227 0.775843 -0.593688
F29   F     F_    0.253843 0.718070 0.776489 -0.581347
F30   F     F_    0.745178 0.279252 0.224518 -0.571728
F31   F     F_    0.746594 0.717835 0.223298 -0.598316
F32   F     F_    0.256591 0.274652 0.773871 -0.568988

loop_
_geom_bond_atom_site_label_1
_geom_bond_atom_site_label_2
_ccdc_geom_bond_type
C35   F23   S    
C22   C94   S    
C34   C42   A    
C16   C113  A    
C110  C118  A    
C16   F12   S    
C170  O75   D    
O44   Zn11  S    
C154  C158  S    
C27   C99   S    
C54   C107  S    
C13   C139  A    
C42   C161  S    
C156  C160  S    
C117  C119  A    
O64   H16   S    
C30   C38   A    
C92   O16   A    
C109  C127  A    
O52   H10   S    
O15   Zn4   S    
C111  C125  A    
C125  C135  A    
C143  C151  A    
C126  C136  A    
C19   C141  A    
C160  O55   D    
C92   C147  S    
C82   C98   A    
C130  C134  A    
C73   C81   A    
O19   Zn3   S    
C115  C123  A    
O86   H27   S    
C84   C100  A    
C18   C111  A    
C128  C135  A    
C112  C120  A    
O32   Zn3   S    
C90   O22   A    
C27   C35   A    
C21   C29   A    
O41   Zn11  S    
C78   F26   S    
C86   O10   A    
C23   C31   A    
C24   C32   A    
O76   H22   S    
C146  C154  A    
C38   C165  S    
O31   Zn4   S    
C129  C133  A    
C19   F15   S    
C63   C71   A    
C164  O64   S    
C36   C44   A    
C148  C153  A    
O26   Zn5   S    
C6    O30   A    
C121  C123  A    
C162  O60   S    
C57   C104  S    
C48   C96   A    
O14   Zn1   S    
C62   C170  S    
O16   Zn3   S    
C16   C138  A    
C2    O26   A    
C108  O46   A    
C44   C163  S    
C13   F9    S    
C117  F8    S    
C24   C96   S    
C149  C155  A    
C168  O72   S    
C53   C108  S    
C21   C93   S    
C78   C94   A    
C18   C144  A    
C23   C95   S    
C118  C120  A    
C43   C164  S    
C49   C97   A    
C21   C42   A    
C36   F24   S    
C116  C130  A    
C175  O85   D    
C125  C127  A    
C24   C43   A    
O35   Zn12  S    
C10   C138  A    
C159  O54   S    
C102  O44   A    
O54   H11   S    
C110  C128  A    
C15   C137  A    
C9    C133  A    
O46   Zn10  S    
O40   Zn9   S    
C50   H6    S    
C69   C77   A    
O3    Zn3   S    
C45   C93   A    
O30   Zn1   S    
C71   C79   A    
C124  F1    S    
C3    O3    A    
C47   H3    S    
C18   F14   S    
O22   Zn6   S    
C62   C70   A    
C87   O19   A    
C162  O59   D    
C9    C140  A    
C31   F19   S    
C173  O82   S    
C66   C74   A    
C8    C76   S    
C49   C57   A    
C111  C119  A    
C161  O57   D    
C65   C173  S    
C176  O88   S    
C52   C60   A    
C59   C67   A    
C34   F22   S    
C53   C61   A    
O42   Zn12  S    
C171  O78   S    
O12   Zn7   S    
C55   C63   A    
C56   C64   A    
C101  O43   A    
C157  O49   D    
C27   C40   A    
C49   H5    S    
O8    Zn8   S    
C45   C53   A    
C166  O67   D    
C169  O74   S    
C64   C172  S    
C172  O80   S    
C50   C98   A    
C61   C169  S    
C45   H1    S    
C52   C100  A    
O39   Zn10  S    
C107  O39   A    
C25   C38   A    
C11   C141  A    
C105  O37   A    
C46   C94   A    
C118  F7    S    
O50   H9    S    
O9    Zn6   S    
C163  O62   S    
C28   C36   A    
O1    Zn1   S    
C14   C140  A    
C104  O42   A    
C87   C152  S    
C88   C151  S    
C67   C75   A    
C122  C124  A    
C6    O6    A    
C25   C97   S    
C91   O23   A    
C126  C128  A    
C22   C30   A    
O36   Zn11  S    
C89   O21   A    
C103  O41   A    
O33   Zn11  S    
O27   Zn8   S    
O62   H15   S    
C92   O24   A    
C167  O70   S    
C87   O11   A    
C88   O12   A    
C12   C143  A    
O4    Zn4   S    
C158  O52   S    
C72   C80   A    
C138  C146  A    
C165  O66   S    
C5    C73   S    
C66   C174  S    
C113  C121  A    
C12   C136  A    
O70   H19   S    
O17   Zn1   S    
O28   Zn7   S    
O7    Zn7   S    
C60   C101  S    
C37   C166  S    
C1    O25   A    
O5    Zn5   S    
C90   O14   A    
C7    O7    A    
O45   Zn9   S    
O11   Zn8   S    
C4    O28   A    
O66   H17   S    
C131  C134  A    
C76   C84   A    
C109  C117  A    
O60   H14   S    
C80   F28   S    
C137  C145  A    
C90   C145  S    
C115  C129  A    
O20   Zn4   S    
C22   C41   A    
C14   C115  A    
C174  O84   S    
C85   C150  S    
C67   C175  S    
C9    C137  A    
C85   O17   A    
O68   H18   S    
C51   H7    S    
C130  C132  A    
O37   Zn9   S    
C2    O2    A    
C112  C126  A    
O24   Zn8   S    
C144  C152  A    
O82   H25   S    
C83   C99   A    
C164  O63   D    
C74   C82   A    
C6    C74   S    
C170  O76   S    
C55   C106  S    
O78   H23   S    
C50   C58   A    
C54   C62   A    
C28   C39   A    
C1    C69   S    
C23   C44   A    
C77   F25   S    
C3    C71   S    
O74   H21   S    
C79   C95   A    
C168  O71   D    
C11   C135  A    
C79   F27   S    
C48   H4    S    
O72   H20   S    
C152  C155  A    
C17   F13   S    
C46   C54   A    
C153  C157  S    
C151  C156  A    
C127  C136  A    
C59   C102  S    
C52   H8    S    
C155  C159  S    
C160  O56   S    
C68   C76   A    
C10   C139  A    
C7    O31   A    
C29   F17   S    
C4    C72   S    
O25   Zn6   S    
C5    O29   A    
C116  C124  A    
O13   Zn2   S    
C57   C65   A    
C120  F5    S    
C26   C37   A    
C107  O45   A    
C105  O47   A    
C17   C143  A    
C33   C41   A    
C142  C150  A    
C41   C162  S    
O88   H28   S    
C75   C83   A    
C173  O81   D    
C77   C93   A    
C81   C97   A    
C12   C142  A    
C8    O32   A    
C101  O33   A    
C176  O87   D    
C56   C105  S    
C13   C116  A    
C88   O20   A    
O84   H26   S    
C4    O4    A    
C60   C68   A    
C81   F29   S    
C171  O77   D    
C29   C37   A    
C86   O18   A    
C5    O5    A    
C83   F31   S    
C2    C70   S    
C8    O8    A    
C46   H2    S    
O80   H24   S    
C70   C78   A    
C169  O73   D    
O38   Zn10  S    
O34   Zn12  S    
C63   C171  S    
C140  C148  A    
C141  C149  A    
O29   Zn2   S    
C123  F2    S    
O23   Zn7   S    
C172  O79   D    
C139  C147  A    
C121  F4    S    
O21   Zn5   S    
C159  O53   D    
C102  O34   A    
C20   F16   S    
C65   C73   A    
C147  C154  A    
C119  F6    S    
C58   C66   A    
C132  C133  A    
C175  O86   S    
C91   O15   A    
C85   O9    A    
C89   O13   A    
C80   C96   A    
C11   C144  A    
C145  C153  A    
C28   C100  S    
C32   C40   A    
O43   Zn12  S    
C150  C156  A    
C26   C98   S    
C91   C148  S    
C26   C34   A    
O48   Zn9   S    
C51   C99   A    
C89   C146  S    
C40   C167  S    
C20   C142  A    
C82   F30   S    
C104  O36   A    
C86   C149  S    
C39   C168  S    
C7    C75   S    
C167  O69   D    
O47   Zn10  S    
C161  O58   S    
C3    O27   A    
C106  O38   A    
C1    O1    A    
C106  O48   A    
C165  O65   D    
C15   C114  A    
O10   Zn5   S    
C103  O35   A    
C157  O50   S    
O2    Zn2   S    
C32   F20   S    
C166  O68   S    
C51   C59   A    
O58   H13   S    
C17   C112  A    
C35   C43   A    
C47   C55   A    
C163  O61   D    
C19   C110  A    
C61   C69   A    
C48   C56   A    
C113  C131  A    
C114  C132  A    
C10   C134  A    
C68   C176  S    
O56   H12   S    
C84   F32   S    
C108  O40   A    
C15   F11   S    
C122  F3    S    
C31   C39   A    
C14   F10   S    
C64   C72   A    
C174  O83   D    
C30   F18   S    
C20   C109  A    
C114  C122  A    
C25   C33   A    
O18   Zn2   S    
C47   C95   A    
C58   C103  S    
C129  C131  A    
C158  O51   D    
C33   F21   S    
O6    Zn6   S    
