data_mof_unit_64106.cif
_audit_creation_date              2012-12-10T18:17:31-0500
_audit_creation_method            fapswitch 2.2
_symmetry_space_group_name_H-M    P1
_symmetry_Int_Tables_number       1
_space_group_crystal_system       triclinic
_cell_length_a                    27.841991
_cell_length_b                    27.88706
_cell_length_c                    27.914669
_cell_angle_alpha                 109.346202
_cell_angle_beta                  109.587182
_cell_angle_gamma                 109.24577
_cell_volume                      16732.5112527

loop_
_atom_site_label
_atom_site_type_symbol
_atom_type_description
_atom_site_fract_x
_atom_site_fract_y
_atom_site_fract_z
_atom_type_partial_charge
C1    C     C_R   0.920431 0.920490 0.500027 0.817678
C2    C     C_R   0.704374 0.705250 0.497055 -0.192990
C3    C     C_3   0.696041 0.793564 0.593361 -0.314654
C4    C     C_R   0.709575 0.761152 0.515554 0.446746
C5    C     C_R   0.920147 0.999995 0.420138 0.821622
C6    C     C_R   0.751928 0.804909 0.514017 0.016058
C7    C     C_R   0.791232 0.793262 0.497332 -0.128696
C8    C     C_R   0.785910 0.737309 0.478911 0.390036
C9    C     C_1   0.660694 0.660842 0.498624 0.102989
C10   C     C_1   0.837333 0.838528 0.498868 0.074925
C11   C     C_1   0.875419 0.876026 0.499630 -0.181277
C12   C     C_1   0.623863 0.623815 0.499578 -0.173915
C13   C     C_3   0.792346 0.000018 0.292841 -0.041692
C14   C     C_R   0.268127 0.957092 0.735230 0.008996
C15   C     C_R   0.293882 0.998428 0.794798 -0.086495
C16   C     C_R   0.274986 0.039174 0.810996 0.472384
C17   C     C_R   0.079523 0.079494 0.499926 0.821494
C18   C     C_R   0.232456 0.041044 0.767459 0.007564
C19   C     C_R   0.206091 0.999166 0.707957 -0.087275
C20   C     C_R   0.222660 0.956342 0.692024 0.469925
C21   C     C_1   0.339905 0.999411 0.840038 0.065707
C22   C     C_1   0.161691 0.999637 0.662539 0.064640
C23   C     C_1   0.124485 0.999848 0.624792 -0.168679
C24   C     C_3   0.769857 0.054044 0.259008 0.441328
C25   C     C_1   0.377871 0.999915 0.877736 -0.167524
C26   C     C_R   0.257276 0.238249 0.451014 0.392367
C27   C     C_R   0.296101 0.293428 0.502172 -0.123916
C28   C     C_R   0.291948 0.304239 0.553474 0.009943
C29   C     C_R   0.079968 0.000021 0.579973 0.823303
C30   C     C_R   0.246220 0.260800 0.551773 0.438857
C31   C     C_R   0.207840 0.205530 0.500721 -0.192065
C32   C     C_R   0.213757 0.194034 0.450468 0.360982
C33   C     C_1   0.339520 0.338515 0.500927 0.074790
C34   C     C_1   0.162153 0.160945 0.500130 0.093771
C35   C     C_3   0.709938 0.999946 0.209989 -0.111704
C36   C     C_1   0.124312 0.123843 0.500011 -0.180125
C37   C     C_1   0.376178 0.375949 0.500214 -0.178923
C38   C     C_R   0.502193 0.079591 0.081738 0.823226
C39   C     C_R   0.582459 0.000067 0.082429 0.817970
C40   C     C_R   0.503011 0.920589 0.923365 0.818654
C41   C     C_3   0.702282 0.982529 0.255072 0.442115
C42   C     C_R   0.422682 0.000090 0.922605 0.820789
C43   C     C_R   0.500415 0.420578 0.420818 0.816562
C44   C     C_R   0.579516 0.579540 0.499999 0.813062
C45   C     C_R   0.499596 0.579467 0.579207 0.816152
C46   C     C_3   0.800206 0.017623 0.247466 0.000543
C47   C     C_R   0.420488 0.420480 0.500020 0.816732
C48   C     C_R   0.520574 0.306011 0.257392 0.017973
C49   C     C_R   0.499737 0.293345 0.293786 -0.085758
C50   C     C_R   0.478603 0.236710 0.286846 0.463940
C51   C     C_R   0.481029 0.193060 0.245537 0.003639
C52   C     C_R   0.501856 0.205666 0.208984 -0.085741
C53   C     C_3   0.731861 0.945183 0.243497 0.004362
C54   C     C_R   0.522648 0.262236 0.215724 0.469739
C55   C     C_1   0.500278 0.338500 0.338971 0.058824
C56   C     C_1   0.501910 0.161055 0.163843 0.058685
C57   C     C_3   0.740021 0.963382 0.198879 0.439454
C58   C     C_1   0.502053 0.123940 0.126286 -0.170440
C59   C     C_1   0.500479 0.376020 0.376438 -0.173403
C60   C     C_R   0.549071 0.763095 0.741228 0.392907
C61   C     C_R   0.498798 0.707063 0.704554 -0.127630
C62   C     C_R   0.448569 0.695299 0.710863 0.016934
C63   C     C_R   0.450418 0.738991 0.756602 0.445048
C64   C     C_R   0.500734 0.794972 0.793169 -0.194034
C65   C     C_1   0.875539 0.999942 0.375593 -0.186854
C66   C     C_R   0.549849 0.807292 0.785007 0.361297
C67   C     C_1   0.499284 0.661749 0.660509 0.078498
C68   C     C_1   0.838029 0.999949 0.338235 0.033366
C69   C     C_1   0.501918 0.839288 0.839687 0.100591
C70   C     C_1   0.502502 0.876252 0.878117 -0.172518
C71   C     C_1   0.499506 0.624131 0.623524 -0.175189
C72   C     C_1   0.626977 0.000011 0.126974 -0.141552
C73   C     C_3   0.762172 0.037262 0.304658 -0.003432
C74   C     C_3   0.711227 0.884406 0.237037 -0.818874
C75   C     C_3   0.755750 0.863981 0.530498 -0.773983
C76   C     C_3   0.146922 0.866411 0.618935 -0.309598
C77   C     C_3   0.289371 0.914179 0.718165 -0.776011
C78   C     C_3   0.268795 0.056031 0.893347 -0.319370
C79   C     C_1   0.664396 0.999973 0.164414 0.137078
C80   C     C_3   0.215146 0.087465 0.784083 -0.770669
C81   C     C_3   0.187347 0.097316 0.402766 -0.272006
C82   C     C_3   0.299429 0.209714 0.398287 -0.270188
C83   C     C_3   0.335173 0.361337 0.610495 -0.736009
C84   C     C_3   0.200318 0.290531 0.599010 -0.286631
C85   C     C_3   0.603173 0.293353 0.205861 -0.306539
C86   C     C_3   0.651841 0.962409 0.303688 -0.266066
C87   C     C_3   0.540364 0.366087 0.263201 -0.792150
C88   C     C_3   0.399688 0.209502 0.300046 -0.309249
C89   C     C_3   0.461668 0.134004 0.242189 -0.744220
C90   C     C_R   0.742086 0.693057 0.478016 0.361816
C91   C     C_3   0.593643 0.903436 0.808700 -0.268182
C92   C     C_3   0.597203 0.790915 0.695245 -0.271145
C93   C     C_3   0.393639 0.636131 0.669203 -0.773776
C94   C     C_3   0.406887 0.706195 0.803490 -0.301204
C95   C     C_3   0.747103 0.888574 0.138696 -0.259566
C96   C     C_3   0.855933 0.037446 0.243402 -0.762756
C97   C     C_3   0.834586 0.154170 0.314027 -0.266035
C98   C     C_3   0.777153 0.078403 0.365959 -0.853339
C99   C     C_3   0.807635 0.709051 0.406354 -0.263443
C100  C     C_3   0.690934 0.596719 0.406495 -0.279420
Cu1   Cu    Cu3+1 0.999750 0.040980 0.540800 0.961001
Cu2   Cu    Cu3+1 0.000250 0.959020 0.459200 0.967172
Cu3   Cu    Cu3+1 0.461600 0.959120 0.002610 0.973556
Cu4   Cu    Cu3+1 0.543650 0.041070 0.002550 0.984467
Cu5   Cu    Cu3+1 0.458780 0.500040 0.458810 0.972958
Cu6   Cu    Cu3+1 0.541220 0.499960 0.541190 0.982089
H1    H     H_    0.666776 0.853449 0.198076 0.249517
H2    H     H_    0.267066 0.885396 0.670099 0.264721
H3    H     H_    0.337143 0.938430 0.734271 0.229727
H4    H     H_    0.281464 0.885977 0.738065 0.218966
H5    H     H_    0.222508 0.046072 0.870643 0.160689
H6    H     H_    0.289090 0.088868 0.940025 0.198472
H7    H     H_    0.269986 0.016078 0.891835 0.159961
H8    H     H_    0.240290 0.118780 0.831831 0.264167
H9    H     H_    0.223239 0.113040 0.761709 0.233719
H10   H     H_    0.167779 0.066365 0.770388 0.216882
H11   H     H_    0.160961 0.073921 0.418137 0.175823
H12   H     H_    0.742265 0.869138 0.232162 0.219012
H13   H     H_    0.234788 0.113876 0.431596 0.120427
H14   H     H_    0.174377 0.064801 0.358318 0.186213
H15   H     H_    0.284692 0.165987 0.394909 0.158644
H16   H     H_    0.344075 0.241624 0.437021 0.144074
H17   H     H_    0.302747 0.205529 0.358749 0.178640
H18   H     H_    0.371926 0.390716 0.608761 0.214336
H19   H     H_    0.312411 0.385267 0.622365 0.222420
H20   H     H_    0.354689 0.352234 0.645891 0.248314
H21   H     H_    0.155322 0.255211 0.563045 0.161909
H22   H     H_    0.212093 0.329951 0.593778 0.148431
H23   H     H_    0.709756 0.885651 0.276589 0.228316
H24   H     H_    0.199652 0.302666 0.640757 0.189300
H25   H     H_    0.612433 0.258823 0.210680 0.164192
H26   H     H_    0.628125 0.333969 0.249210 0.159735
H27   H     H_    0.619310 0.303758 0.177282 0.195639
H28   H     H_    0.661576 0.005682 0.335489 0.172726
H29   H     H_    0.685183 0.951181 0.323968 0.147331
H30   H     H_    0.608889 0.929312 0.293362 0.183171
H31   H     H_    0.553447 0.369784 0.230632 0.263794
H32   H     H_    0.503984 0.376094 0.256639 0.229092
H33   H     H_    0.578533 0.399459 0.307626 0.216848
H34   H     H_    0.721074 0.866789 0.540414 0.260734
H35   H     H_    0.372246 0.171795 0.254523 0.154356
H36   H     H_    0.393692 0.247258 0.301129 0.163047
H37   H     H_    0.383445 0.196208 0.327345 0.181674
H38   H     H_    0.468816 0.104007 0.211367 0.219094
H39   H     H_    0.486793 0.139932 0.286089 0.248925
H40   H     H_    0.414200 0.112262 0.227805 0.225268
H41   H     H_    0.577988 0.925960 0.835455 0.173919
H42   H     H_    0.563401 0.885551 0.761364 0.116930
H43   H     H_    0.637052 0.936983 0.820386 0.187784
H44   H     H_    0.598900 0.833909 0.709245 0.157832
H45   H     H_    0.799062 0.898609 0.569762 0.221931
H46   H     H_    0.557597 0.757574 0.651577 0.143032
H47   H     H_    0.636179 0.795952 0.690258 0.179680
H48   H     H_    0.356644 0.633261 0.677218 0.261526
H49   H     H_    0.379054 0.627212 0.623450 0.227179
H50   H     H_    0.402961 0.601612 0.673713 0.217385
H51   H     H_    0.408303 0.664792 0.786536 0.161071
H52   H     H_    0.367611 0.696403 0.808779 0.190675
H53   H     H_    0.446118 0.739156 0.847521 0.166441
H54   H     H_    0.713333 0.847623 0.131093 0.170877
H55   H     H_    0.789449 0.906335 0.178364 0.146692
H56   H     H_    0.750871 0.872781 0.493635 0.222287
H57   H     H_    0.754430 0.877134 0.100736 0.188186
H58   H     H_    0.848687 0.047367 0.207076 0.256836
H59   H     H_    0.892762 0.077114 0.285073 0.219839
H60   H     H_    0.867927 0.002560 0.235211 0.221326
H61   H     H_    0.867134 0.141723 0.333406 0.148042
H62   H     H_    0.820444 0.171693 0.345310 0.171843
H63   H     H_    0.857195 0.190066 0.307102 0.184503
H64   H     H_    0.750074 0.100046 0.363004 0.242223
H65   H     H_    0.768863 0.053560 0.388865 0.229518
H66   H     H_    0.824347 0.111974 0.391977 0.229946
H67   H     H_    0.113423 0.877551 0.624086 0.161607
H68   H     H_    0.801360 0.742141 0.395221 0.141058
H69   H     H_    0.766649 0.665987 0.377540 0.155584
H70   H     H_    0.841948 0.703937 0.397113 0.188278
H71   H     H_    0.678402 0.614425 0.376780 0.120620
H72   H     H_    0.652703 0.573645 0.410362 0.165200
H73   H     H_    0.701698 0.563646 0.385280 0.185153
H74   H     H_    0.738752 0.834981 0.618382 0.165947
H75   H     H_    0.701757 0.760536 0.604952 0.166498
H76   H     H_    0.665740 0.803280 0.607082 0.180236
H77   H     H_    0.158828 0.845711 0.645533 0.161140
H78   H     H_    0.126668 0.833596 0.572259 0.197845
O1    O     O_R   0.939930 0.974760 0.534440 -0.581372
O2    O     O_R   0.535120 0.440180 0.475200 -0.571602
O3    O     O_R   0.525050 0.559880 0.465230 -0.577425
O4    O     O_R   0.940350 0.905550 0.465530 -0.578173
O5    O     O_R   0.594670 0.559820 0.534800 -0.573307
O6    O     O_R   0.464880 0.559830 0.524810 -0.580986
O7    O     O_R   0.534500 0.559760 0.594380 -0.572334
O8    O     O_R   0.405330 0.440190 0.465210 -0.571778
O9    O     O_R   0.474950 0.440120 0.534770 -0.581479
O10   O     O_R   0.939640 0.034610 0.474300 -0.581890
O11   O     O_R   0.940060 0.965400 0.405390 -0.580639
O12   O     O_R   0.536970 0.094550 0.062100 -0.572100
O13   O     O_R   0.059650 0.094450 0.534470 -0.577331
O14   O     O_R   0.060070 0.025240 0.465560 -0.581472
O15   O     O_R   0.059940 0.034600 0.594610 -0.580836
O16   O     O_R   0.060360 0.965390 0.525700 -0.570727
O17   O     O_R   0.467680 0.025340 0.062150 -0.583368
O18   O     O_3   0.196836 0.915968 0.633464 -0.561345
O19   O     O_3   0.301095 0.079800 0.869526 -0.558019
O20   O     O_3   0.174535 0.141307 0.398680 -0.527823
O21   O     O_3   0.258528 0.228673 0.399616 -0.526296
O22   O     O_3   0.241683 0.271356 0.601734 -0.552556
O23   O     O_R   0.528130 0.965490 0.062760 -0.576035
O24   O     O_3   0.542432 0.273843 0.179317 -0.560481
O25   O     O_3   0.646917 0.961984 0.251658 -0.556914
O26   O     O_3   0.459427 0.224888 0.323565 -0.558100
O27   O     O_3   0.600995 0.860922 0.822329 -0.523555
O28   O     O_3   0.599643 0.773646 0.737741 -0.525228
O29   O     O_3   0.401959 0.727916 0.764081 -0.559683
O30   O     O_3   0.726184 0.928441 0.141072 -0.554444
O31   O     O_3   0.785061 0.108072 0.259942 -0.555939
O32   O     O_3   0.826536 0.726828 0.466012 -0.528792
O33   O     O_3   0.740030 0.639515 0.462679 -0.524833
O34   O     O_R   0.597420 0.034690 0.062700 -0.572688
O35   O     O_3   0.671130 0.771998 0.532442 -0.558761
O36   O     O_R   0.468280 0.905650 0.943070 -0.575428
O37   O     O_R   0.537570 0.974850 0.943010 -0.582202
O38   O     O_R   0.407830 0.965500 0.942460 -0.583092
O39   O     O_R   0.477120 0.034710 0.942410 -0.573953
O40   O     O_R   0.465500 0.440250 0.405630 -0.582381

loop_
_geom_bond_atom_site_label_1
_geom_bond_atom_site_label_2
_ccdc_geom_bond_type
C84   H22   S    
C7    C10   S    
C26   C32   A    
C94   H53   S    
C51   C52   A    
C55   C59   T    
C45   C71   S    
C88   H35   S    
C39   O34   A    
C53   C74   S    
C1    C11   S    
C86   O25   S    
C100  H72   S    
Cu2   O11   S    
C91   H41   S    
C42   O38   A    
C6    C75   S    
C27   C33   S    
C48   C54   A    
C81   H14   S    
C26   C27   A    
Cu1   Cu2   S    
C40   C70   S    
C75   H56   S    
C82   H17   S    
C23   C29   S    
C89   H38   S    
C93   H48   S    
Cu3   O23   S    
C72   C79   T    
Cu2   O16   S    
C75   H34   S    
Cu2   O14   S    
Cu3   O38   S    
C30   C31   A    
C24   O31   S    
Cu1   O13   S    
C24   C73   S    
C99   O32   S    
C15   C16   A    
C30   O22   S    
C82   H15   S    
C81   H11   S    
C98   H64   S    
C97   H63   S    
C18   C19   A    
C14   C77   S    
C35   C79   S    
C47   O8    A    
C2    C90   A    
C90   O33   S    
C74   H1    S    
C38   C58   S    
C62   C93   S    
C86   H28   S    
C99   H70   S    
C80   H10   S    
C75   H45   S    
C29   O15   A    
C38   O17   A    
C39   O23   A    
C92   H46   S    
C39   C72   S    
C17   O13   A    
C78   H5    S    
C17   C36   S    
C83   H18   S    
C37   C47   S    
C16   O19   S    
C88   H37   S    
C34   C36   T    
C3    O35   S    
C43   C59   S    
Cu3   O36   S    
C5    O11   A    
C41   O25   S    
C65   C68   T    
C84   H21   S    
C89   H39   S    
C60   C66   A    
C94   H52   S    
C88   O26   S    
C40   O36   A    
C28   C83   S    
Cu5   O8    S    
C86   H29   S    
C69   C70   T    
Cu6   O7    S    
C87   H31   S    
Cu1   O1    S    
C100  H71   S    
C88   H36   S    
C91   H42   S    
C9    C12   T    
C45   O7    A    
C81   O20   S    
C13   C53   S    
C77   H2    S    
C73   C98   S    
C74   H12   S    
C48   C87   S    
C24   C35   S    
C95   H54   S    
C14   C20   A    
C93   H49   S    
C19   C22   S    
C78   O19   S    
Cu6   O2    S    
C91   O27   S    
C83   H19   S    
C87   H33   S    
C91   H43   S    
C53   C57   S    
C43   O2    A    
C97   H61   S    
C33   C37   T    
C96   H58   S    
C60   C61   A    
C64   C66   A    
C32   O20   S    
C2    C4    A    
C3    H74   S    
Cu3   O17   S    
C62   C63   A    
C95   H57   S    
C44   O5    A    
C60   O28   S    
C61   C67   S    
C31   C32   A    
C80   H9    S    
C4    O35   S    
C41   C53   S    
C5    C65   S    
C50   C51   A    
Cu4   O12   S    
C31   C34   S    
C52   C54   A    
C17   O14   A    
C16   C18   A    
C64   C69   S    
C63   O29   S    
C77   H3    S    
C89   H40   S    
C3    H75   S    
Cu4   O34   S    
C92   H47   S    
C98   H65   S    
C4    C6    A    
C48   C49   A    
C80   H8    S    
C100  O33   S    
C94   H51   S    
C54   O24   S    
C98   H66   S    
C46   C57   S    
C92   H44   S    
C96   H60   S    
C92   O28   S    
C26   O21   S    
C8    C90   A    
C83   H20   S    
C42   O39   A    
C76   H77   S    
Cu4   O37   S    
C27   C28   A    
Cu1   O10   S    
C1    O4    A    
C86   H30   S    
C21   C25   T    
C76   H67   S    
C94   O29   S    
Cu4   O39   S    
C14   C15   A    
Cu5   O6    S    
C47   O9    A    
C93   H50   S    
C29   O16   A    
C13   C73   S    
C8    O32   S    
C25   C42   S    
C76   O18   S    
Cu1   O15   S    
C6    C7    A    
C1    O1    A    
Cu5   O40   S    
Cu5   Cu6   S    
C81   H13   S    
C96   H59   S    
C40   O37   A    
C35   C57   S    
C24   C46   S    
Cu5   O3    S    
C19   C20   A    
C95   H55   S    
C43   O40   A    
C20   O18   S    
C28   C30   A    
C85   H26   S    
C49   C55   S    
C85   H25   S    
C100  H73   S    
C13   C46   S    
C99   H68   S    
C84   H24   S    
C56   C58   T    
C67   C71   T    
C38   O12   A    
C97   H62   S    
C61   C62   A    
C35   C41   S    
C3    H76   S    
Cu2   O4    S    
C99   H69   S    
C7    C8    A    
C10   C11   T    
C44   O3    A    
C41   C73   S    
C63   C64   A    
C78   H7    S    
C84   O22   S    
C45   O6    A    
C15   C21   S    
C46   C96   S    
C57   O30   S    
C50   O26   S    
C18   C80   S    
C49   C50   A    
C97   O31   S    
C74   H23   S    
Cu3   Cu4   S    
C95   O30   S    
C22   C23   T    
C12   C44   S    
C78   H6    S    
C87   H32   S    
Cu6   O5    S    
C66   O27   S    
C76   H78   S    
C2    C9    S    
C77   H4    S    
C82   H16   S    
C82   O21   S    
C51   C89   S    
Cu6   O9    S    
C52   C56   S    
C85   O24   S    
C85   H27   S    
C5    O10   A    
C13   C68   S    
