data_mof_unit_20406.cif
_audit_creation_date              2012-12-11T14:44:21-0500
_audit_creation_method            fapswitch 2.2
_symmetry_space_group_name_H-M    P1
_symmetry_Int_Tables_number       1
_space_group_crystal_system       triclinic
_cell_length_a                    25.076121
_cell_length_b                    16.699149
_cell_length_c                    15.78094
_cell_angle_alpha                 89.470518
_cell_angle_beta                  49.780179
_cell_angle_gamma                 90.543238
_cell_volume                      5044.64373403

loop_
_atom_site_label
_atom_site_type_symbol
_atom_type_description
_atom_site_fract_x
_atom_site_fract_y
_atom_site_fract_z
_atom_type_partial_charge
C1    C     C_R   0.331973 0.097689 0.808126 0.506261
C2    C     C_3   0.774204 0.821257 0.586628 0.484269
C3    C     C_3   0.785005 0.281817 0.421243 0.460481
C4    C     C_3   0.154577 0.829748 0.577705 0.475571
C5    C     C_3   0.787222 0.783900 0.410073 0.477251
C6    C     C_3   0.274200 0.321255 0.586634 0.484269
C7    C     C_3   0.285000 0.781848 0.421223 0.460490
C8    C     C_3   0.654576 0.329767 0.577673 0.475534
C9    C     C_2   0.700248 0.164513 0.020327 -0.191386
C10   C     C_2   0.343818 0.739013 0.869711 -0.175531
C11   C     C_2   0.299275 0.129357 0.988482 -0.029283
C12   C     C_R   0.648398 0.854600 0.240106 0.498557
C13   C     C_2   0.643564 0.744248 0.136377 -0.026606
C14   C     C_2   0.200253 0.664499 0.020320 -0.191380
C15   C     C_2   0.843817 0.239014 0.869712 -0.175530
C16   C     C_2   0.799276 0.629358 0.988480 -0.029267
C17   C     C_2   0.143554 0.244235 0.136398 -0.026609
C18   C     C_2   0.758647 0.128821 0.933510 0.492013
C19   C     C_2   0.319657 0.678899 0.844469 0.416757
C20   C     C_2   0.257884 0.191218 0.016254 0.385883
C21   C     C_2   0.689547 0.696871 0.127136 0.354578
C22   C     C_2   0.258654 0.628813 0.933498 0.491997
C23   C     C_R   0.668600 0.105237 0.194257 0.429757
C24   C     C_2   0.819653 0.178901 0.844476 0.416769
C25   C     C_2   0.757892 0.691224 0.016247 0.385884
C26   C     C_2   0.189543 0.196863 0.127149 0.354581
C27   C     C_R   0.587495 0.150808 0.589915 0.471615
C28   C     C_R   0.381757 0.904670 0.409402 0.511641
C29   C     C_R   0.412207 0.149348 0.406773 0.424225
C30   C     C_R   0.617296 0.900160 0.590984 0.524860
C31   C     C_R   0.087501 0.650797 0.589929 0.471610
C32   C     C_R   0.881756 0.404663 0.409404 0.511641
C33   C     C_R   0.912206 0.649346 0.406772 0.424235
C34   C     C_R   0.348885 0.854288 0.762626 0.462227
C35   C     C_R   0.117298 0.400161 0.590983 0.524857
C36   C     C_R   0.664277 0.148662 0.406214 0.439645
C37   C     C_R   0.307938 0.904877 0.591760 0.508688
C38   C     C_R   0.338856 0.148985 0.590658 0.462878
C39   C     C_R   0.691014 0.901674 0.408207 0.527890
C40   C     C_R   0.164261 0.648674 0.406230 0.439742
C41   C     C_R   0.807939 0.404871 0.591763 0.508710
C42   C     C_R   0.838857 0.648986 0.590657 0.462877
C43   C     C_R   0.191015 0.401680 0.408206 0.527896
C44   C     C_R   0.582190 0.103357 0.191198 0.524137
C45   C     C_R   0.831973 0.597689 0.808126 0.506262
C46   C     C_R   0.435200 0.856369 0.766537 0.463358
C47   C     C_R   0.418678 0.093837 0.809725 0.534783
C48   C     C_R   0.560041 0.857166 0.239885 0.472089
C49   C     C_R   0.082192 0.603351 0.191195 0.524088
C50   C     C_R   0.935201 0.356368 0.766536 0.463367
C51   C     C_R   0.918679 0.593839 0.809724 0.534763
C52   C     C_R   0.060041 0.357166 0.239885 0.472119
C53   C     C_R   0.350536 0.114067 0.870640 -0.190002
C54   C     C_R   0.614900 0.811574 0.211340 -0.179493
C55   C     C_R   0.651142 0.127023 0.131676 -0.149127
C56   C     C_R   0.148396 0.354596 0.240113 0.498569
C57   C     C_R   0.377828 0.811226 0.797452 -0.110839
C58   C     C_R   0.850537 0.614067 0.870639 -0.190016
C59   C     C_R   0.114897 0.311571 0.211347 -0.179497
C60   C     C_R   0.151148 0.627000 0.131664 -0.149151
C61   C     C_R   0.877828 0.311225 0.797451 -0.110848
C62   C     C_R   0.637500 0.196422 0.496706 -0.117239
C63   C     C_R   0.314531 0.890180 0.500983 -0.111476
C64   C     C_R   0.365263 0.196329 0.497813 -0.113416
C65   C     C_R   0.683176 0.881293 0.499495 -0.130072
C66   C     C_R   0.137496 0.696420 0.496729 -0.117205
C67   C     C_R   0.168604 0.605213 0.194245 0.429969
C68   C     C_R   0.814532 0.390167 0.500987 -0.111492
C69   C     C_R   0.865264 0.696328 0.497810 -0.113419
C70   C     C_R   0.183179 0.381299 0.499493 -0.130069
C71   C     C_3   0.345511 0.320210 0.405471 0.479703
C72   C     C_3   0.715964 0.784942 0.591080 0.465257
C73   C     C_3   0.725711 0.230661 0.519104 0.442328
C74   C     C_3   0.215206 0.882221 0.479662 0.466808
C75   C     C_3   0.845508 0.820202 0.405465 0.479706
C76   C     C_3   0.215964 0.284942 0.591073 0.465245
C77   C     C_3   0.225728 0.730669 0.519067 0.442319
C78   C     C_R   0.848885 0.354288 0.762626 0.462219
C79   C     C_3   0.715229 0.382218 0.479610 0.466799
C80   C     C_3   0.793645 0.881650 0.494584 -0.305500
C81   C     C_3   0.266772 0.224733 0.501982 -0.377409
C82   C     C_3   0.202461 0.799031 0.600286 -0.300145
C83   C     C_3   0.737575 0.313089 0.398490 -0.304532
C84   C     C_3   0.293643 0.381654 0.494595 -0.305507
C85   C     C_3   0.766767 0.724729 0.501993 -0.377407
C86   C     C_3   0.702438 0.299045 0.600309 -0.300013
C87   C     C_3   0.237547 0.813114 0.398526 -0.304575
C88   C     C_3   0.735611 0.843771 0.499208 -0.247297
C89   C     C_3   0.287229 0.283910 0.410066 0.477255
C90   C     C_3   0.325581 0.260793 0.497485 -0.211286
C91   C     C_3   0.262672 0.850653 0.501164 -0.245264
C92   C     C_3   0.677630 0.260531 0.497355 -0.211825
C93   C     C_3   0.235614 0.343777 0.499205 -0.247286
C94   C     C_3   0.825581 0.760791 0.497483 -0.211293
C95   C     C_3   0.762671 0.350644 0.501169 -0.245307
C96   C     C_3   0.177625 0.760533 0.497372 -0.211775
Cl1   Cl    Cl    0.252189 0.045839 0.872363 -0.430502
Cl2   Cl    Cl    0.398516 0.954506 0.295382 -0.352521
Cl3   Cl    Cl    0.431689 0.160872 0.279042 -0.385387
Cl4   Cl    Cl    0.604699 0.949184 0.700859 -0.329393
Cl5   Cl    Cl    0.058830 0.670514 0.722456 -0.401391
Cl6   Cl    Cl    0.898515 0.454484 0.295377 -0.352514
Cl7   Cl    Cl    0.931679 0.660862 0.279048 -0.385368
Cl8   Cl    Cl    0.104698 0.449183 0.700862 -0.329399
Cl9   Cl    Cl    0.750097 0.160308 0.281061 -0.440576
Cl10  Cl    Cl    0.232934 0.954673 0.702666 -0.370602
Cl11  Cl    Cl    0.256982 0.162960 0.720825 -0.392209
Cl12  Cl    Cl    0.737410 0.847984 0.172844 -0.367056
Cl13  Cl    Cl    0.768409 0.951356 0.296032 -0.324487
Cl14  Cl    Cl    0.250033 0.660419 0.280978 -0.440860
Cl15  Cl    Cl    0.732935 0.454671 0.702663 -0.370651
Cl16  Cl    Cl    0.756986 0.662965 0.720826 -0.392235
Cl17  Cl    Cl    0.268405 0.451375 0.296040 -0.324536
Cl18  Cl    Cl    0.558509 0.059654 0.118483 -0.308818
Cl19  Cl    Cl    0.476344 0.835750 0.820442 -0.371049
Cl20  Cl    Cl    0.445666 0.044419 0.875115 -0.364583
Cl21  Cl    Cl    0.521933 0.843469 0.179496 -0.359953
Cl22  Cl    Cl    0.058501 0.559653 0.118490 -0.308809
Cl23  Cl    Cl    0.748458 0.057641 0.130717 -0.381847
Cl24  Cl    Cl    0.976344 0.335750 0.820443 -0.371058
Cl25  Cl    Cl    0.945663 0.544419 0.875117 -0.364585
Cl26  Cl    Cl    0.021940 0.343472 0.179494 -0.359988
Cl27  Cl    Cl    0.430425 0.353128 0.285094 -0.338652
Cl28  Cl    Cl    0.632097 0.753036 0.714668 -0.296437
Cl29  Cl    Cl    0.736954 0.129959 0.543960 -0.408154
Cl30  Cl    Cl    0.209859 0.984808 0.454313 -0.380997
Cl31  Cl    Cl    0.930420 0.853116 0.285079 -0.338628
Cl32  Cl    Cl    0.132097 0.253028 0.714651 -0.296443
Cl33  Cl    Cl    0.236995 0.629971 0.543868 -0.408238
Cl34  Cl    Cl    0.263147 0.837907 0.815074 -0.501174
Cl35  Cl    Cl    0.709908 0.484808 0.454206 -0.380966
Cl36  Cl    Cl    0.297634 0.251133 0.293031 -0.302851
Cl37  Cl    Cl    0.766999 0.855408 0.700370 -0.297193
Cl38  Cl    Cl    0.869472 0.242227 0.316764 -0.333519
Cl39  Cl    Cl    0.068300 0.866100 0.678398 -0.322447
Cl40  Cl    Cl    0.797617 0.751113 0.293050 -0.302861
Cl41  Cl    Cl    0.266987 0.355400 0.700385 -0.297179
Cl42  Cl    Cl    0.369461 0.742290 0.316703 -0.333504
Cl43  Cl    Cl    0.568296 0.366148 0.678328 -0.322452
Cl44  Cl    Cl    0.355477 0.662727 0.706244 -0.423763
Cl45  Cl    Cl    0.752189 0.545839 0.872364 -0.430504
Cl46  Cl    Cl    0.760970 0.024032 0.917670 -0.297563
Cl47  Cl    Cl    0.676495 0.661899 0.245730 -0.446616
Cl48  Cl    Cl    0.285834 0.270174 0.917010 -0.406481
Cl49  Cl    Cl    0.855470 0.162725 0.706254 -0.423751
Cl50  Cl    Cl    0.260979 0.524026 0.917636 -0.297541
Cl51  Cl    Cl    0.176499 0.161895 0.245738 -0.446613
Cl52  Cl    Cl    0.785853 0.770183 0.917003 -0.406486
Cl53  Cl    Cl    0.237405 0.347969 0.172868 -0.367068
Cl54  Cl    Cl    0.248448 0.557571 0.130710 -0.381781
Cl55  Cl    Cl    0.763146 0.337910 0.815079 -0.501186
Cl56  Cl    Cl    0.558799 0.170555 0.722458 -0.401448
H1    H     H_    0.803786 0.946898 0.491606 0.276229
H2    H     H_    0.697304 0.229303 0.018820 0.171843
H3    H     H_    0.645242 0.751735 0.066174 0.216965
H4    H     H_    0.286858 0.083381 0.048263 0.196697
H5    H     H_    0.826038 0.242875 0.953146 0.177627
H6    H     H_    0.197306 0.729288 0.018822 0.171837
H7    H     H_    0.145223 0.251711 0.066202 0.216968
H8    H     H_    0.786851 0.583379 0.048260 0.196693
H9    H     H_    0.254900 0.159948 0.504994 0.269520
H10   H     H_    0.188069 0.792462 0.682940 0.275440
H11   H     H_    0.751676 0.322042 0.316343 0.257107
H12   H     H_    0.303782 0.446901 0.491625 0.276230
H13   H     H_    0.754892 0.659943 0.505015 0.269514
H14   H     H_    0.688026 0.292492 0.682988 0.275442
H15   H     H_    0.251627 0.822096 0.316406 0.257143
H16   H     H_    0.326038 0.742872 0.953145 0.177648
N1    N     N_R   0.389620 0.081040 0.705440 -0.145218
N2    N     N_R   0.417680 0.920160 0.443370 -0.149425
N3    N     N_R   0.417680 0.079840 0.443370 -0.130775
N4    N     N_R   0.582320 0.920160 0.556630 -0.151193
N5    N     N_R   0.082320 0.579840 0.556630 -0.123254
N6    N     N_R   0.917680 0.420160 0.443370 -0.149422
N7    N     N_R   0.917680 0.579840 0.443370 -0.130775
N8    N     N_R   0.082320 0.420160 0.556630 -0.151191
N9    N     N_R   0.627920 0.078930 0.443400 -0.119143
N10   N     N_R   0.372080 0.921070 0.556600 -0.137968
N11   N     N_R   0.372080 0.078930 0.556600 -0.125118
N12   N     N_R   0.610380 0.918960 0.294560 -0.129128
N13   N     N_R   0.627920 0.921070 0.443400 -0.150480
N14   N     N_R   0.127920 0.578930 0.443400 -0.119143
N15   N     N_R   0.872080 0.421070 0.556600 -0.137970
N16   N     N_R   0.872080 0.578930 0.556600 -0.125113
N17   N     N_R   0.127920 0.421070 0.443400 -0.150479
N18   N     N_R   0.555090 0.077730 0.294590 -0.159020
N19   N     N_R   0.444910 0.922270 0.705410 -0.141792
N20   N     N_R   0.444910 0.077730 0.705410 -0.157754
N21   N     N_R   0.555090 0.922270 0.294590 -0.132462
N22   N     N_R   0.055090 0.577730 0.294590 -0.159026
N23   N     N_R   0.610380 0.081040 0.294560 -0.150138
N24   N     N_R   0.944910 0.422270 0.705410 -0.141787
N25   N     N_R   0.944910 0.577730 0.705410 -0.157756
N26   N     N_R   0.055090 0.422270 0.294590 -0.132469
N27   N     N_R   0.389620 0.918960 0.705440 -0.130876
N28   N     N_R   0.889620 0.581040 0.705440 -0.145212
N29   N     N_R   0.110380 0.418960 0.294560 -0.129134
N30   N     N_R   0.110380 0.581040 0.294560 -0.150148
N31   N     N_R   0.889620 0.418960 0.705440 -0.130873
N32   N     N_R   0.582320 0.079840 0.556630 -0.123221
Ni1   Ni    Ni4+2 0.382970 0.000000 0.629840 0.319623
Ni2   Ni    Ni4+2 0.617030 1.000000 0.370160 0.327192
Ni3   Ni    Ni4+2 0.882970 0.500000 0.629840 0.319627
Ni4   Ni    Ni4+2 0.117030 0.500000 0.370160 0.327192
Ni5   Ni    Ni4+2 0.514540 0.000000 0.629840 0.322421
Ni6   Ni    Ni4+2 0.485460 1.000000 0.370160 0.323526
Ni7   Ni    Ni4+2 0.014540 0.500000 0.629840 0.322412
Ni8   Ni    Ni4+2 0.985460 0.500000 0.370160 0.323526

loop_
_geom_bond_atom_site_label_1
_geom_bond_atom_site_label_2
_ccdc_geom_bond_type
C34   N27   A    
C5    Cl40  S    
C45   Cl45  S    
C27   Cl56  S    
N25   Ni7   S    
C16   H8    S    
C20   Cl48  S    
N13   Ni2   S    
C86   H14   S    
C64   C90   S    
C67   N30   A    
C23   N23   A    
C72   C85   S    
C16   C58   S    
N30   Ni4   S    
N20   Ni5   S    
N8    N17   A    
C38   C64   A    
C32   C68   A    
C48   C54   A    
C83   C92   S    
N22   N30   A    
N32   Ni5   S    
C49   C60   A    
C21   C25   S    
C46   Cl19  S    
N2    N10   A    
C8    Cl43  S    
N14   Ni4   S    
C35   N8    A    
C31   Cl5   S    
N8    Ni7   S    
C71   Cl27  S    
N4    Ni5   S    
C27   C62   A    
C15   H5    S    
N12   Ni2   S    
C24   Cl49  S    
C2    C80   S    
C23   Cl23  S    
C36   C62   A    
N26   N29   A    
C43   N17   A    
C30   Cl4   S    
C38   Cl11  S    
N29   Ni4   S    
N24   N31   A    
N18   N23   A    
C1    C53   A    
C13   H3    S    
C42   Cl16  S    
C72   C88   S    
C4    C96   S    
C3    C73   S    
C52   Cl26  S    
N4    N13   A    
C7    C87   S    
C22   Cl50  S    
C60   C67   A    
C19   Cl44  S    
N9    N32   A    
C62   C92   S    
C8    C79   S    
C19   C22   S    
C8    C92   S    
N23   Ni2   S    
C74   C87   S    
C50   N24   A    
C75   C80   S    
C61   C78   A    
C4    C74   S    
C84   H12   S    
C33   C69   A    
C47   C53   A    
C5    C85   S    
C45   N28   A    
C29   C64   A    
C79   Cl35  S    
N16   Ni3   S    
C40   C66   A    
C72   Cl28  S    
C67   Cl54  S    
N31   Ni3   S    
C39   C65   A    
N3    N11   A    
N7    Ni8   S    
C2    C72   S    
C37   C63   A    
C78   Cl55  S    
C41   C68   A    
C71   C84   S    
N21   Ni6   S    
C47   Cl20  S    
C11   C20   D    
C87   H15   S    
C45   C58   A    
C68   C95   S    
C6    C84   S    
C29   Cl3   S    
C48   Cl21  S    
C2    Cl37  S    
N11   Ni1   S    
C80   H1    S    
C70   C93   S    
C52   N26   A    
C21   Cl47  S    
C35   Cl8   S    
C51   N25   A    
C1    Cl1   S    
C12   Cl12  S    
N18   Ni6   S    
C40   Cl14  S    
C49   N22   A    
C82   H10   S    
N1    Ni1   S    
C42   N16   A    
C6    C90   S    
C32   N6    A    
C42   C69   A    
C82   C91   S    
C33   Cl7   S    
N28   Ni3   S    
C74   C91   S    
C5    C75   S    
C79   C95   S    
C10   C57   S    
C37   N10   A    
C52   C59   A    
C76   C93   S    
C34   C57   A    
C85   C94   S    
C49   Cl22  S    
C71   C89   S    
C2    C94   S    
C10   C19   D    
N25   N28   A    
C7    C91   S    
C87   C96   S    
N19   Ni5   S    
C15   C61   S    
C13   C21   D    
N5    Ni7   S    
C51   C58   A    
C77   Cl33  S    
C29   N3    A    
N3    Ni6   S    
C23   C55   A    
C89   Cl36  S    
C30   N4    A    
C48   N21   A    
C39   N13   A    
C11   H4    S    
C17   C59   S    
C4    Cl39  S    
C9    C55   S    
C81   C90   S    
N22   Ni8   S    
C15   C24   D    
C12   N12   A    
C14   H6    S    
C9    H2    S    
C69   C94   S    
C43   C70   A    
C35   C70   A    
C46   C57   A    
C3    C83   S    
C51   Cl25  S    
N24   Ni7   S    
C18   C24   S    
C78   N31   A    
C17   C26   D    
C46   N19   A    
C73   Cl29  S    
N26   Ni8   S    
N17   Ni4   S    
C65   C88   S    
C66   C96   S    
C13   C54   S    
C31   N5    A    
C28   Cl2   S    
C16   C25   D    
C83   H11   S    
C18   Cl46  S    
C38   N11   A    
N19   N27   A    
C36   Cl9   S    
C56   N29   A    
C31   C66   A    
C81   H9    S    
C6    C76   S    
C27   N32   A    
N1    N20   A    
C11   C53   S    
C76   C81   S    
N5    N14   A    
C7    Cl42  S    
C40   N14   A    
N2    Ni6   S    
C73   C92   S    
N27   Ni1   S    
C32   Cl6   S    
C14   C60   S    
C36   N9    A    
C77   C96   S    
C50   Cl24  S    
C56   C59   A    
C7    C77   S    
N12   N21   A    
C3    Cl38  S    
C85   H13   S    
C14   C22   D    
C6    Cl41  S    
C56   Cl53  S    
C81   C89   S    
C37   Cl10  S    
C80   C88   S    
C43   Cl17  S    
C79   C83   S    
C44   C55   A    
C74   Cl30  S    
C71   C90   S    
C20   C26   S    
C77   C82   S    
C76   Cl32  S    
C1    N1    A    
C25   Cl52  S    
C8    C86   S    
C84   C93   S    
C89   C93   S    
C26   Cl51  S    
C33   N7    A    
C73   C86   S    
C30   C65   A    
C17   H7    S    
C86   C95   S    
C44   Cl18  S    
N6    Ni8   S    
C28   C63   A    
C9    C18   D    
C39   Cl13  S    
C4    C82   S    
C34   Cl34  S    
C10   H16   S    
C41   Cl15  S    
N10   Ni1   S    
C63   C91   S    
C5    C88   S    
C50   C61   A    
N9    Ni2   S    
C41   N15   A    
C3    C95   S    
N15   Ni3   S    
C47   N20   A    
N6    N15   A    
C12   C54   A    
C28   N2    A    
C75   C94   S    
C44   N18   A    
N7    N16   A    
C75   Cl31  S    
