data_mof_unit_38206.cif
_audit_creation_date              2012-10-26T20:35:47-0400
_audit_creation_method            fapswitch 2.2
_symmetry_space_group_name_H-M    P1
_symmetry_Int_Tables_number       1
_space_group_crystal_system       triclinic
_cell_length_a                    8.689332
_cell_length_b                    15.987626
_cell_length_c                    16.99485
_cell_angle_alpha                 94.692204
_cell_angle_beta                  93.246665
_cell_angle_gamma                 84.276188
_cell_volume                      2338.51152423

loop_
_atom_site_label
_atom_site_type_symbol
_atom_type_description
_atom_site_fract_x
_atom_site_fract_y
_atom_site_fract_z
_atom_type_partial_charge
C1    C     C_R   0.503341 0.490602 0.349060 0.540184
C2    C     C_R   0.418247 0.158771 0.417492 -0.038208
C3    C     C_R   0.648609 0.746167 0.541544 0.392271
C4    C     C_R   0.407779 0.248601 0.426841 0.398702
C5    C     C_R   0.205784 0.521787 0.500718 0.520907
C6    C     C_R   0.794233 0.478452 0.501109 0.532439
C7    C     C_2   0.040212 0.533486 0.499000 -0.171765
C8    C     C_2   0.959764 0.467734 0.506291 -0.172220
C9    C     C_R   0.502907 0.489945 0.262977 -0.036317
C10   C     C_R   0.496102 0.511171 0.736626 -0.031514
C11   C     C_R   0.598166 0.540629 0.226324 -0.025606
C12   C     C_R   0.498770 0.509289 0.650842 0.540432
C13   C     C_R   0.372524 0.481780 0.773783 -0.026507
C14   C     C_R   0.565929 0.556094 0.146116 -0.003132
C15   C     C_R   0.388046 0.471049 0.855899 -0.016189
C16   C     C_R   0.450343 0.513371 0.101889 0.226300
C17   C     C_R   0.520465 0.498130 0.900311 0.226242
C18   C     C_R   0.359816 0.461656 0.138653 0.259258
C19   C     C_R   0.639294 0.529555 0.862386 0.259462
C20   C     C_R   0.389037 0.448815 0.218467 -0.159597
C21   C     C_R   0.628180 0.533178 0.780526 -0.175617
C22   C     C_3   0.224673 0.463117 0.726750 -0.384459
C23   C     C_R   0.396643 0.763503 0.479510 0.094715
C24   C     C_3   0.734528 0.577366 0.271558 -0.374177
C25   C     C_3   0.269082 0.427929 0.895690 -0.348910
C26   C     C_3   0.649858 0.620436 0.109305 -0.371444
C27   C     C_3   0.100740 0.461258 0.111324 -0.028711
C28   C     C_3   0.976415 0.414062 0.065440 -0.350645
C29   C     C_3   0.790885 0.634874 0.905234 -0.014697
C30   C     C_3   0.946771 0.652723 0.944897 -0.376364
C31   C     C_3   0.646418 0.279757 0.617808 -0.330621
C32   C     C_3   0.267118 0.729591 0.427110 -0.332913
C33   C     C_3   0.545933 0.112290 0.628939 -0.378263
C34   C     C_R   0.545682 0.242233 0.551342 0.089486
C35   C     C_3   0.244315 0.908336 0.482353 -0.378320
C36   C     C_3   0.819060 0.868646 0.553298 -0.396991
C37   C     C_3   0.371302 0.113276 0.339777 -0.391608
C38   C     C_3   0.787883 0.706325 0.653029 -0.018574
C39   C     C_3   0.937694 0.657266 0.680691 -0.385425
C40   C     C_3   0.165291 0.291777 0.378869 -0.000764
C41   C     C_3   0.072653 0.357255 0.330525 -0.376547
C42   C     C_R   0.395520 0.852808 0.490995 -0.011423
C43   C     C_R   0.523362 0.155231 0.552089 -0.011366
C44   C     C_R   0.536094 0.888311 0.512703 0.173262
C45   C     C_R   0.472863 0.110939 0.481213 0.174010
C46   C     C_R   0.664488 0.833410 0.535998 -0.032218
Cu1   Cu    Cu3+1 0.492520 0.415770 0.496210 0.959527
Cu2   Cu    Cu3+1 0.507480 0.584230 0.503790 0.951151
H1    H     H_    0.984469 0.596011 0.489666 0.166134
H2    H     H_    0.706586 0.645962 0.286087 0.141622
H3    H     H_    0.327755 0.383442 0.937207 0.191424
H4    H     H_    0.190497 0.475859 0.928323 0.170202
H5    H     H_    0.197854 0.389515 0.853587 0.111645
H6    H     H_    0.592557 0.638901 0.052681 0.162361
H7    H     H_    0.649582 0.679267 0.148809 0.109558
H8    H     H_    0.771092 0.595015 0.099133 0.134711
H9    H     H_    0.090829 0.526925 0.092902 0.128548
H10   H     H_    0.078324 0.462906 0.175345 0.108805
H11   H     H_    0.985599 0.347792 0.081664 0.154456
H12   H     H_    0.015448 0.405948 0.517595 0.112278
H13   H     H_    0.859907 0.444554 0.079730 0.136553
H14   H     H_    0.989940 0.414530 0.000924 0.178741
H15   H     H_    0.697670 0.672649 0.938313 0.124530
H16   H     H_    0.787169 0.656279 0.844554 0.110690
H17   H     H_    0.041736 0.617648 0.911127 0.156331
H18   H     H_    0.959950 0.721229 0.946645 0.092517
H19   H     H_    0.955237 0.633139 0.006237 0.144265
H20   H     H_    0.576291 0.301663 0.669470 0.136403
H21   H     H_    0.739946 0.232051 0.636846 0.083231
H22   H     H_    0.709297 0.330713 0.600097 0.182794
H23   H     H_    0.318343 0.409071 0.246428 0.160556
H24   H     H_    0.303311 0.669471 0.394327 0.183945
H25   H     H_    0.165089 0.724066 0.462154 0.130491
H26   H     H_    0.230469 0.772581 0.379936 0.084710
H27   H     H_    0.452114 0.070980 0.634093 0.152734
H28   H     H_    0.660660 0.074990 0.631870 0.146677
H29   H     H_    0.537971 0.157906 0.681643 0.106066
H30   H     H_    0.234423 0.935588 0.424055 0.149235
H31   H     H_    0.142232 0.873181 0.487610 0.101784
H32   H     H_    0.237103 0.959382 0.530796 0.152246
H33   H     H_    0.915594 0.818920 0.562068 0.150326
H34   H     H_    0.725597 0.550581 0.750612 0.107632
H35   H     H_    0.847333 0.903085 0.502633 0.142075
H36   H     H_    0.813529 0.913000 0.607082 0.122107
H37   H     H_    0.267194 0.080072 0.346837 0.121342
H38   H     H_    0.346207 0.156624 0.291926 0.159341
H39   H     H_    0.467317 0.066272 0.320529 0.146695
H40   H     H_    0.689042 0.682642 0.680197 0.150942
H41   H     H_    0.793375 0.773620 0.674499 0.104889
H42   H     H_    0.037107 0.677706 0.651308 0.161627
H43   H     H_    0.957558 0.668767 0.745514 0.089055
H44   H     H_    0.931538 0.588741 0.665656 0.152350
H45   H     H_    0.219647 0.393930 0.716829 0.132009
H46   H     H_    0.134199 0.303711 0.441554 0.129747
H47   H     H_    0.129282 0.229030 0.356825 0.114387
H48   H     H_    0.088491 0.340782 0.266572 0.142468
H49   H     H_    0.947609 0.358707 0.341565 0.112268
H50   H     H_    0.111075 0.420766 0.347105 0.156409
H51   H     H_    0.122465 0.491811 0.759084 0.126661
H52   H     H_    0.214601 0.490164 0.668504 0.142887
H53   H     H_    0.767706 0.546556 0.326994 0.146523
H54   H     H_    0.838495 0.567142 0.235637 0.100873
N1    N     N_2   0.425238 0.520387 0.019822 -0.251225
N2    N     N_2   0.541238 0.491589 0.982934 -0.211550
N3    N     N_R   0.518730 0.710760 0.509500 -0.222639
N4    N     N_R   0.481270 0.289240 0.490500 -0.224089
N5    N     N_2   0.552729 0.977633 0.517061 -0.243382
N6    N     N_2   0.462343 0.020945 0.472909 -0.242942
O1    O     O_R   0.493000 0.421040 0.382520 -0.435343
O2    O     O_3   0.773921 0.547838 0.905176 -0.557082
O3    O     O_3   0.773024 0.694760 0.569765 -0.539646
O4    O     O_3   0.325703 0.295638 0.370787 -0.529212
O5    O     O_R   0.507000 0.578960 0.617480 -0.494007
O6    O     O_R   0.505640 0.563310 0.388930 -0.521854
O7    O     O_R   0.494360 0.436690 0.611070 -0.515457
O8    O     O_R   0.269980 0.445280 0.497530 -0.481806
O9    O     O_R   0.730020 0.554720 0.502470 -0.437320
O10   O     O_R   0.282610 0.587550 0.503940 -0.518941
O11   O     O_R   0.717390 0.412450 0.496060 -0.525583
O12   O     O_3   0.247978 0.419695 0.094958 -0.554010

loop_
_geom_bond_atom_site_label_1
_geom_bond_atom_site_label_2
_ccdc_geom_bond_type
C29   H15   S    
C39   H44   S    
C26   H7    S    
C7    C8    D    
C32   H24   S    
C27   O12   S    
C3    N3    A    
Cu1   O7    S    
C38   H41   S    
C23   C42   A    
C37   H37   S    
C19   C21   A    
C17   N2    S    
C25   H5    S    
C32   H26   S    
C38   C39   S    
C11   C14   A    
C19   O2    S    
C41   H48   S    
C36   H35   S    
C23   N3    A    
C11   C24   S    
C24   H53   S    
C35   C42   S    
C41   H49   S    
C9    C20   A    
C1    O1    A    
C33   H27   S    
C31   H22   S    
Cu1   Cu2   S    
C3    O3    S    
N5    N6    D    
C20   H23   S    
C36   C46   S    
C39   H42   S    
C24   H54   S    
C30   H19   S    
C45   N6    S    
C12   O7    A    
C28   H13   S    
Cu1   O11   S    
C4    O4    S    
C29   H16   S    
C2    C45   A    
C31   H20   S    
C42   C44   A    
C26   H6    S    
C39   H43   S    
C44   C46   A    
C10   C21   A    
C24   H2    S    
Cu1   O8    S    
C22   H52   S    
C33   C43   S    
C29   O2    S    
C1    C9    S    
C7    H1    S    
C40   O4    S    
C27   H9    S    
C32   H25   S    
C5    C7    S    
C6    C8    S    
Cu1   O1    S    
C4    N4    A    
C27   H10   S    
C38   H40   S    
C34   N4    A    
C2    C4    A    
C25   H3    S    
C29   C30   S    
C9    C11   A    
C37   H38   S    
C16   N1    S    
Cu2   N3    S    
C36   H33   S    
Cu1   N4    S    
C44   N5    S    
C31   C34   S    
C14   C26   S    
C43   C45   A    
C30   H18   S    
C10   C12   S    
C40   C41   S    
C13   C15   A    
C5    O8    A    
C22   H45   S    
C14   C16   A    
C1    O6    A    
C40   H47   S    
C18   O12   S    
C6    O11   A    
N1    N2    D    
Cu2   O6    S    
C12   O5    A    
C28   H11   S    
C15   C17   A    
C22   H51   S    
C6    O9    A    
C37   H39   S    
C34   C43   A    
C40   H46   S    
C10   C13   A    
C26   H8    S    
Cu2   O10   S    
Cu2   O9    S    
C35   H30   S    
C5    O10   A    
C23   C32   S    
C25   H4    S    
C8    H12   S    
C2    C37   S    
C33   H29   S    
C36   H36   S    
C35   H31   S    
C17   C19   A    
C3    C46   A    
C13   C22   S    
C18   C20   A    
C30   H17   S    
C15   C25   S    
C35   H32   S    
C31   H21   S    
C33   H28   S    
C21   H34   S    
C16   C18   A    
C27   C28   S    
C41   H50   S    
C38   O3    S    
Cu2   O5    S    
C28   H14   S    
