data_mof_unit_59781.cif
_audit_creation_date              2012-12-10T21:11:30-0500
_audit_creation_method            fapswitch 2.2
_symmetry_space_group_name_H-M    P1
_symmetry_Int_Tables_number       1
_space_group_crystal_system       triclinic
_cell_length_a                    17.360843
_cell_length_b                    16.886146
_cell_length_c                    10.624121
_cell_angle_alpha                 92.021763
_cell_angle_beta                  95.273054
_cell_angle_gamma                 89.162406
_cell_volume                      3099.2294131

loop_
_atom_site_label
_atom_site_type_symbol
_atom_type_description
_atom_site_fract_x
_atom_site_fract_y
_atom_site_fract_z
_atom_type_partial_charge
C1    C     C_R   0.352944 0.500791 0.502293 0.960898
C2    C     C_R   0.646733 0.499146 0.494449 0.982571
C3    C     C_R   0.876211 0.486268 0.387712 -0.156481
C4    C     C_R   0.108032 0.502320 0.475030 -0.176200
C5    C     C_1   0.958624 0.491424 0.408284 0.200828
C6    C     C_1   0.026852 0.496315 0.437183 0.199991
C7    C     C_R   0.445111 0.833804 0.426459 -0.245368
C8    C     C_R   0.554244 0.166435 0.576186 -0.249415
C9    C     C_R   0.551564 0.835130 0.582565 -0.269831
C10   C     C_R   0.446180 0.164566 0.423318 -0.268461
C11   C     C_R   0.446327 0.750012 0.421741 0.464912
C12   C     C_R   0.554181 0.250210 0.577796 0.454695
C13   C     C_R   0.553665 0.751233 0.579218 0.440083
C14   C     C_R   0.445572 0.248397 0.422846 0.444373
C15   C     C_R   0.497424 0.876976 0.506492 -0.033478
C16   C     C_R   0.500343 0.123007 0.499681 -0.036644
C17   C     C_1   0.498347 0.963860 0.504830 0.056880
C18   C     C_1   0.499253 0.036167 0.502447 0.056416
C19   C     C_R   0.510913 0.498130 0.261802 0.908770
C20   C     C_R   0.490519 0.501832 0.739156 0.915810
C21   C     C_R   0.576981 0.629397 0.133854 -0.062191
C22   C     C_R   0.430339 0.368554 0.869622 -0.099862
C23   C     C_R   0.496033 0.652583 0.900230 -0.082414
C24   C     C_R   0.512998 0.347056 0.102390 -0.072355
C25   C     C_R   0.576144 0.703830 0.081288 -0.036374
C26   C     C_R   0.434634 0.293695 0.921125 -0.063501
C27   C     C_R   0.533000 0.716142 0.966713 -0.046165
C28   C     C_R   0.478671 0.282354 0.035198 -0.031707
C29   C     C_R   0.503491 0.574741 0.946272 0.102803
C30   C     C_R   0.503301 0.424625 0.056084 0.105816
C31   C     C_R   0.536033 0.565636 0.070195 0.085818
C32   C     C_R   0.470239 0.433362 0.932463 0.093177
C33   C     C_R   0.479758 0.505787 0.873599 -0.243976
C34   C     C_R   0.525177 0.493747 0.128880 -0.248017
C35   C     C_R   0.831674 0.555778 0.366589 0.426056
C36   C     C_R   0.149405 0.437537 0.530040 0.389730
C37   C     C_R   0.147636 0.571985 0.452324 0.402858
C38   C     C_R   0.840427 0.417386 0.423663 0.367826
C39   C     C_R   0.757371 0.560241 0.405571 -0.210629
C40   C     C_R   0.229936 0.438512 0.542274 -0.201744
C41   C     C_R   0.227959 0.571377 0.465044 -0.187621
C42   C     C_R   0.766547 0.423209 0.463777 -0.226973
C43   C     C_R   0.726280 0.495583 0.461085 -0.181253
C44   C     C_R   0.269147 0.503319 0.502949 -0.188932
H1    H     H_    0.485266 0.223635 0.072763 0.162573
H2    H     H_    0.528441 0.774874 0.928839 0.164193
H3    H     H_    0.405660 0.244122 0.870730 0.151713
H4    H     H_    0.606506 0.752557 0.131717 0.157706
H5    H     H_    0.609592 0.621822 0.224538 0.136505
H6    H     H_    0.396036 0.375449 0.780178 0.135168
H7    H     H_    0.460349 0.665828 0.814664 0.150118
H8    H     H_    0.548489 0.335259 0.188874 0.148087
H9    H     H_    0.723064 0.613458 0.388724 0.218613
H10   H     H_    0.262305 0.388850 0.582610 0.196533
H11   H     H_    0.258302 0.623790 0.442993 0.256950
H12   H     H_    0.739976 0.370677 0.494826 0.225051
H13   H     H_    0.403925 0.866008 0.363814 0.216418
H14   H     H_    0.596626 0.134499 0.637120 0.221014
H15   H     H_    0.594585 0.868665 0.641537 0.229904
H16   H     H_    0.402453 0.130978 0.365867 0.228603
N1    N     N_R   0.500000 0.707230 0.500000 -0.226429
N2    N     N_R   0.500000 0.292770 0.500000 -0.228725
O1    O     O_R   0.389110 0.566570 0.499990 -0.600631
O2    O     O_R   0.610890 0.433430 0.500010 -0.599183
O3    O     O_R   0.610890 0.566570 0.500010 -0.575386
O4    O     O_R   0.389110 0.433430 0.499990 -0.573711
O5    O     O_R   0.499990 0.566540 0.316770 -0.571732
O6    O     O_R   0.500010 0.433460 0.683230 -0.576507
O7    O     O_R   0.500010 0.566540 0.683230 -0.599574
O8    O     O_R   0.499990 0.433460 0.316770 -0.597651
Zn1   Zn    Zn3+2 0.500000 0.588860 0.500000 1.063751
Zn2   Zn    Zn3+2 0.500000 0.411140 0.500000 1.060704
S1    S     S_3+6 0.862344 0.634841 0.279973 0.094412
O9    O     O_2   0.885303 0.703289 0.368928 -0.192529
O10   O     O_2   0.928978 0.609292 0.206843 -0.216096
O11   O     O_3   0.788087 0.663727 0.178275 -0.570079
H17   H     H_    0.807757 0.709510 0.135568 0.399041
S2    S     S_3+6 0.103406 0.355949 0.589178 0.117353
O12   O     O_2   0.032307 0.383795 0.649102 -0.203963
O13   O     O_2   0.081014 0.297724 0.482430 -0.189979
O14   O     O_3   0.163284 0.310914 0.698884 -0.510294
H18   H     H_    0.193145 0.271632 0.651056 0.372571
S3    S     S_3+6 0.099682 0.661681 0.411951 0.103038
O15   O     O_2   0.077274 0.660244 0.271980 -0.196789
O16   O     O_2   0.028898 0.671237 0.482564 -0.233570
O17   O     O_3   0.158550 0.738685 0.450705 -0.508678
H19   H     H_    0.128707 0.785902 0.420715 0.410103
S4    S     S_3+6 0.882266 0.321963 0.408403 0.126061
O18   O     O_2   0.947545 0.323031 0.324975 -0.190101
O19   O     O_2   0.911663 0.293488 0.536545 -0.177467
O20   O     O_3   0.814632 0.258915 0.342694 -0.506614
H20   H     H_    0.787864 0.239876 0.414097 0.376419
S5    S     S_3+6 0.378855 0.711259 0.298507 0.043281
O21   O     O_2   0.367909 0.623614 0.287872 -0.267915
O22   O     O_2   0.301562 0.749656 0.314659 -0.270262
O23   O     O_3   0.407832 0.740817 0.161212 -0.577790
H21   H     H_    0.366408 0.723913 0.095834 0.392062
S6    S     S_3+6 0.628070 0.289233 0.690259 0.044261
O24   O     O_2   0.704623 0.260744 0.649352 -0.307570
O25   O     O_2   0.631625 0.376970 0.713062 -0.247696
O26   O     O_3   0.616045 0.248363 0.829165 -0.568806
H22   H     H_    0.662183 0.264016 0.885924 0.402702
S7    S     S_3+6 0.637238 0.711856 0.666964 0.046005
O27   O     O_2   0.625863 0.634063 0.725323 -0.262363
O28   O     O_2   0.700622 0.703216 0.580220 -0.276114
O29   O     O_3   0.666768 0.776711 0.784901 -0.580692
H23   H     H_    0.715045 0.753342 0.825665 0.405774
S8    S     S_3+6 0.364045 0.287059 0.329177 0.039717
O30   O     O_2   0.297072 0.291359 0.409095 -0.304136
O31   O     O_2   0.374666 0.366423 0.275556 -0.258242
O32   O     O_3   0.341093 0.223142 0.206769 -0.578961
H24   H     H_    0.292324 0.244261 0.164129 0.409110

loop_
_geom_bond_atom_site_label_1
_geom_bond_atom_site_label_2
_ccdc_geom_bond_type
C24   H8    S    
C4    C36   A    
S5    O21   D    
S1    O9    D    
C35   C39   A    
O32   H24   S    
C2    O3    A    
C21   H5    S    
O14   H18   S    
C7    C11   A    
C21   C31   A    
O26   H22   S    
C22   C32   A    
C23   C29   A    
C38   C42   A    
C5    C6    T    
S2    O13   D    
O29   H23   S    
C14   N2    A    
C29   C33   A    
S8    O30   D    
O7    Zn1   S    
C9    C13   A    
C41   H11   S    
C42   H12   S    
O4    Zn2   S    
C3    C38   A    
C19   O5    A    
C23   C27   A    
C13   S7    S    
C12   S6    S    
O6    Zn2   S    
C22   H6    S    
C8    H14   S    
N1    Zn1   S    
C14   S8    S    
S5    O22   D    
S1    O10   D    
C1    O1    A    
C2    O2    A    
C1    O4    A    
C28   H1    S    
C30   C34   A    
C36   C40   A    
O11   H17   S    
C4    C6    S    
C10   C14   A    
O20   H20   S    
S2    O12   D    
C39   C43   A    
C3    C5    S    
O3    Zn1   S    
C38   S4    S    
C9    H15   S    
C10   H16   S    
C12   N2    A    
C1    C44   S    
C23   H7    S    
S3    O15   D    
S4    O20   S    
C3    C35   A    
C2    C43   S    
C8    C12   A    
O23   H21   S    
C17   C18   T    
C31   C34   A    
N2    Zn2   S    
S7    O28   D    
S4    O18   D    
C25   H4    S    
C26   H3    S    
C20   C33   S    
C27   H2    S    
C16   C18   S    
S3    O16   D    
O1    Zn1   S    
S5    O23   S    
C40   H10   S    
C41   C44   A    
C20   O7    A    
C42   C43   A    
C15   C17   S    
C21   C25   A    
C35   S1    S    
O17   H19   S    
C20   O6    A    
C24   C28   A    
S4    O19   D    
C11   N1    A    
C19   C34   S    
O8    Zn2   S    
C25   C27   A    
S6    O26   S    
C26   C28   A    
S8    O32   S    
C32   C33   A    
C9    C15   A    
C29   C31   A    
C10   C16   A    
C30   C32   A    
S2    O14   S    
C11   S5    S    
C39   H9    S    
C7    C15   A    
S1    O11   S    
S8    O31   D    
S7    O29   S    
O5    Zn1   S    
O2    Zn2   S    
C37   C41   A    
S6    O25   D    
C24   C30   A    
C40   C44   A    
S3    O17   S    
C13   N1    A    
C4    C37   A    
C8    C16   A    
S6    O24   D    
C22   C26   A    
S7    O27   D    
C37   S3    S    
C19   O8    A    
C36   S2    S    
C7    H13   S    
