data_mof_unit_44657.cif
_audit_creation_date              2012-12-10T16:52:40-0500
_audit_creation_method            fapswitch 2.2
_symmetry_space_group_name_H-M    P1
_symmetry_Int_Tables_number       1
_space_group_crystal_system       triclinic
_cell_length_a                    13.086125
_cell_length_b                    10.954442
_cell_length_c                    9.74397
_cell_angle_alpha                 90.583025
_cell_angle_beta                  96.866017
_cell_angle_gamma                 91.197634
_cell_volume                      1386.37645945

loop_
_atom_site_label
_atom_site_type_symbol
_atom_type_description
_atom_site_fract_x
_atom_site_fract_y
_atom_site_fract_z
_atom_type_partial_charge
C1    C     C_R   0.504694 0.265205 0.500294 0.782186
C2    C     C_R   0.028712 0.528175 0.574632 0.016762
C3    C     C_R   0.970960 0.523487 0.442328 0.048079
C4    C     C_R   0.864062 0.517619 0.429369 -0.302997
C5    C     C_R   0.869634 0.479736 0.674470 0.194133
C6    C     C_R   0.975558 0.510699 0.692948 0.195752
C7    C     C_2   0.536656 0.929312 0.405392 -0.165958
C8    C     C_2   0.492984 0.865213 0.499695 -0.301808
C9    C     C_2   0.522377 0.061930 0.391560 0.241118
C10   C     C_2   0.526337 0.134112 0.506681 0.024223
C11   C     C_2   0.466860 0.408978 0.920377 0.346077
C12   C     C_R   0.300580 0.509075 0.473810 0.778177
C13   C     C_2   0.496807 0.402903 0.074934 -0.166614
C14   C     C_R   0.499167 0.734102 0.500425 0.838365
C15   C     C_R   0.699326 0.496294 0.526808 0.839935
C16   C     C_R   0.812490 0.497484 0.544648 -0.126947
C17   C     C_R   0.187031 0.526222 0.460436 -0.209742
C18   C     C_R   0.019549 0.525587 0.322779 -0.197207
C19   C     C_R   0.126033 0.522415 0.329679 0.240719
C20   C     C_R   0.137313 0.542780 0.582020 -0.088098
Cu1   Cu    Cu3+1 0.500020 0.500020 0.638640 0.997234
Cu2   Cu    Cu3+1 0.499980 0.499980 0.361360 0.935198
H1    H     H_    0.821024 0.524372 0.327532 0.175743
H2    H     H_    0.512105 0.315539 0.121992 0.205554
H3    H     H_    0.467364 0.575945 0.107556 0.208697
H4    H     H_    0.974200 0.524442 0.221930 0.143979
H5    H     H_    0.577761 0.881984 0.331079 0.166880
H6    H     H_    0.448872 0.908132 0.573679 0.164542
N1    N     N_2   0.498860 0.498660 0.846770 -0.241945
N2    N     N_2   0.498840 0.498630 0.152900 -0.310044
O1    O     O_R   0.500020 0.321960 0.617050 -0.595885
O2    O     O_R   0.499980 0.321920 0.382890 -0.567722
O3    O     O_R   0.349010 0.500000 0.598060 -0.574175
O4    O     O_R   0.348980 0.499950 0.363910 -0.573796
O5    O     O_R   0.500020 0.678080 0.617110 -0.519671
O6    O     O_R   0.499980 0.678040 0.382950 -0.593050
O7    O     O_R   0.651020 0.500050 0.636090 -0.550399
O8    O     O_R   0.650990 0.500000 0.401940 -0.583091
N3    N     N_2   0.561949 0.086102 0.639471 -0.434509
H7    H     H_    0.523485 0.117454 0.718816 0.275664
C21   C     C_3   0.672532 0.092297 0.674076 -0.648784
H8    H     H_    0.693817 0.047934 0.775118 0.229675
H9    H     H_    0.700076 0.189067 0.681840 0.227207
H10   H     H_    0.710905 0.043598 0.594455 0.232455
N4    N     N_2   0.402689 0.313284 0.852327 -0.393015
H11   H     H_    0.366648 0.333147 0.756059 0.318238
C22   C     C_3   0.339948 0.234048 0.928631 -0.747008
H12   H     H_    0.363169 0.138146 0.916403 0.231393
H13   H     H_    0.257670 0.240390 0.885698 0.236731
H14   H     H_    0.345277 0.257322 0.039956 0.229749
C23   C     C_2   0.572105 0.586778 0.911702 0.519464
H15   H     H_    0.625990 0.564416 0.000654 0.003914
O9    O     O_2   0.575116 0.690708 0.868988 -0.543011
N5    N     N_2   0.825928 0.407951 0.774848 -0.430717
H16   H     H_    0.863653 0.327618 0.797794 0.231873
C24   C     C_3   0.797652 0.469914 0.895646 -0.650675
H17   H     H_    0.732675 0.418264 0.932459 0.215234
H18   H     H_    0.774514 0.564930 0.871274 0.243859
H19   H     H_    0.862036 0.470780 0.980698 0.198020
N6    N     N_2   0.027682 0.520036 0.829437 -0.389583
H20   H     H_    0.014859 0.448294 0.893093 0.260833
C25   C     C_3   0.021875 0.639158 0.894040 -0.660183
H21   H     H_    0.942291 0.657698 0.915034 0.214744
H22   H     H_    0.046871 0.712235 0.826383 0.207621
H23   H     H_    0.073241 0.643209 0.993025 0.250523
N7    N     N_2   0.168506 0.519856 0.202169 -0.432251
H24   H     H_    0.229602 0.578747 0.192872 0.276260
C26   C     C_3   0.174572 0.399858 0.141175 -0.644009
H25   H     H_    0.201889 0.408717 0.038366 0.271964
H26   H     H_    0.097389 0.354112 0.127009 0.210052
H27   H     H_    0.228972 0.342923 0.207786 0.226195
C27   C     C_2   0.197883 0.589021 0.711119 0.494575
H28   H     H_    0.216764 0.685747 0.722739 0.022888
O10   O     O_2   0.229842 0.519036 0.802342 -0.538757
N8    N     N_2   0.498198 0.111063 0.256417 -0.430459
H29   H     H_    0.422070 0.134227 0.234575 0.243038
C28   C     C_3   0.540018 0.051961 0.142300 -0.706446
H30   H     H_    0.529458 0.110414 0.049752 0.232476
H31   H     H_    0.499566 0.963051 0.116279 0.235059
H32   H     H_    0.623951 0.038277 0.168512 0.235499

loop_
_geom_bond_atom_site_label_1
_geom_bond_atom_site_label_2
_ccdc_geom_bond_type
N7    C26   S    
C21   H8    S    
C18   H4    S    
C7    C8    D    
C22   H13   S    
C28   H30   S    
Cu1   O1    S    
Cu2   O2    S    
C19   N7    S    
C14   O6    A    
C5    C6    A    
Cu1   O3    S    
C15   C16   S    
Cu2   O8    S    
C1    O1    A    
C17   C20   A    
C7    H5    S    
C24   H17   S    
C3    C18   A    
N6    C25   S    
C18   C19   A    
C15   O7    A    
C5    C16   A    
C25   H22   S    
C26   H25   S    
C12   C17   S    
C9    C10   D    
C28   H31   S    
N7    H24   S    
Cu1   Cu2   S    
C21   H9    S    
C2    C6    A    
C22   H14   S    
N4    C22   S    
Cu2   O4    S    
N5    C24   S    
C2    C20   A    
C23   H15   S    
C6    N6    S    
C13   N2    D    
C27   O10   D    
N3    H7    S    
C4    H1    S    
N4    H11   S    
Cu1   N1    S    
C1    O2    A    
C13   H2    S    
C10   N3    S    
C23   O9    D    
C4    C16   A    
N8    H29   S    
C15   O8    A    
C25   H21   S    
C5    N5    S    
C22   H12   S    
N8    C28   S    
C8    H6    S    
C21   H10   S    
C11   N4    S    
C12   O4    A    
C3    C4    A    
C14   O5    A    
N1    C23   S    
C28   H32   S    
H3    N2    S    
C7    C9    S    
N5    H16   S    
C8    C14   S    
Cu2   N2    S    
C25   H23   S    
C20   C27   S    
C1    C10   S    
C27   H28   S    
Cu1   O5    S    
N3    C21   S    
Cu2   O6    S    
C24   H19   S    
C2    C3    A    
C11   C13   S    
C26   H27   S    
C17   C19   A    
C24   H18   S    
Cu1   O7    S    
C11   N1    D    
C26   H26   S    
N6    H20   S    
C9    N8    S    
C12   O3    A    
