data_mof_unit_9911.cif
_audit_creation_date              2012-12-10T19:04:15-0500
_audit_creation_method            fapswitch 2.2
_symmetry_space_group_name_H-M    P1
_symmetry_Int_Tables_number       1
_space_group_crystal_system       triclinic
_cell_length_a                    10.659579
_cell_length_b                    10.858566
_cell_length_c                    9.541502
_cell_angle_alpha                 90.641964
_cell_angle_beta                  89.994331
_cell_angle_gamma                 90.050253
_cell_volume                      1104.33756167

loop_
_atom_site_label
_atom_site_type_symbol
_atom_type_description
_atom_site_fract_x
_atom_site_fract_y
_atom_site_fract_z
_atom_type_partial_charge
C1    C     C_R   0.496188 0.262151 0.498477 0.875059
C2    C     C_R   0.465159 0.938304 0.620911 0.126221
C3    C     C_3   0.532270 0.937089 0.758126 -0.470343
C4    C     C_R   0.259578 0.500713 0.499989 0.863269
C5    C     C_3   0.527499 0.076674 0.756006 -0.441020
C6    C     C_R   0.607262 0.525443 0.074024 0.293214
C7    C     C_R   0.397735 0.462310 0.073826 -0.032049
C8    C     C_R   0.397739 0.462254 0.925140 -0.088811
C9    C     C_R   0.607502 0.524679 0.926645 0.306371
C10   C     C_3   0.683441 0.639729 0.921787 -0.512155
C11   C     C_3   0.682037 0.641423 0.080924 -0.500231
C12   C     C_3   0.960044 0.456431 0.375071 -0.029392
C13   C     C_R   0.498254 0.737572 0.500399 0.796264
C14   C     C_R   0.740451 0.496034 0.500055 0.841436
C15   C     C_3   0.041655 0.534003 0.626655 -0.191787
C16   C     C_3   0.961144 0.417941 0.599098 -0.043492
C17   C     C_3   0.877012 0.492416 0.500489 -0.069361
C18   C     C_3   0.956538 0.608850 0.527057 -0.195187
C19   C     C_3   0.040538 0.572829 0.400276 -0.245847
C20   C     C_2   0.925716 0.331720 0.714470 0.809872
C21   C     C_2   0.916999 0.412656 0.233559 0.373529
C22   C     C_2   0.089364 0.253583 0.442735 0.407128
C23   C     C_3   0.044337 0.381852 0.473469 -0.062188
C24   C     C_2   0.486999 0.115575 0.224893 0.887402
C25   C     C_3   0.123339 0.497575 0.499864 -0.002684
C26   C     C_R   0.462390 0.065008 0.618129 0.148741
C27   C     C_R   0.480531 0.128733 0.493296 -0.142100
C28   C     C_R   0.481169 0.059848 0.365212 0.002109
C29   C     C_R   0.484978 0.931560 0.369841 -0.265147
C30   C     C_R   0.485839 0.870283 0.498567 -0.114985
Cu1   Cu    Cu3+1 0.499990 0.499980 0.640670 0.977450
Cu2   Cu    Cu3+1 0.500010 0.500020 0.359330 0.998940
H1    H     H_    0.629323 0.900547 0.748603 0.198083
H2    H     H_    0.077030 0.566138 0.730258 0.147991
H3    H     H_    0.918335 0.702113 0.549386 0.146373
H4    H     H_    0.075294 0.636277 0.318464 0.145442
H5    H     H_    0.491906 0.880160 0.272046 0.171253
H6    H     H_    0.474374 0.896622 0.842910 0.210158
H7    H     H_    0.789284 0.250995 0.826694 0.332165
H8    H     H_    0.945614 0.461570 0.140363 0.061385
H9    H     H_    0.021632 0.180091 0.427344 0.098051
H10   H     H_    0.589776 0.145732 0.051314 0.328188
H11   H     H_    0.465192 0.116905 0.837900 0.218752
H12   H     H_    0.621551 0.119834 0.747342 0.216654
H13   H     H_    0.314269 0.433058 0.128475 0.177045
H14   H     H_    0.314281 0.432968 0.869772 0.170619
H15   H     H_    0.778278 0.623405 0.876775 0.203792
H16   H     H_    0.630908 0.717157 0.875345 0.210144
H17   H     H_    0.776254 0.627289 0.127712 0.193189
H18   H     H_    0.628251 0.719972 0.126270 0.216644
N1    N     N_R   0.500800 0.500930 0.147930 -0.200856
N2    N     N_R   0.500800 0.500890 0.852020 -0.198715
O1    O     O_R   0.500000 0.319640 0.618810 -0.564726
O2    O     O_R   0.799927 0.306634 0.742905 -0.762253
O3    O     O_2   0.850926 0.321251 0.222464 -0.522885
O4    O     O_2   0.201168 0.231068 0.434906 -0.546457
O5    O     O_2   0.397099 0.172729 0.179910 -0.568168
O6    O     O_R   0.594735 0.100115 0.143183 -0.748319
O7    O     O_R   0.500010 0.319680 0.381230 -0.545131
O8    O     O_R   0.316850 0.499950 0.618770 -0.598605
O9    O     O_R   0.316860 0.499990 0.381190 -0.587475
O10   O     O_R   0.499990 0.680320 0.618770 -0.589573
O11   O     O_R   0.500000 0.680360 0.381190 -0.597297
O12   O     O_R   0.683140 0.500010 0.618810 -0.555690
O13   O     O_R   0.683150 0.500050 0.381230 -0.575598
O14   O     O_2   0.008332 0.284129 0.784213 -0.584408

loop_
_geom_bond_atom_site_label_1
_geom_bond_atom_site_label_2
_ccdc_geom_bond_type
Cu1   O8    S    
C12   C17   S    
C15   C18   S    
Cu2   N1    S    
C29   C30   A    
C11   H17   S    
C6    N1    A    
C24   C28   S    
C9    C10   S    
C8    N2    A    
C15   H2    S    
Cu1   Cu2   S    
Cu1   O10   S    
C16   C20   S    
Cu1   N2    S    
C2    C30   A    
C14   O12   A    
C4    O8    A    
C6    C9    A    
C1    O7    A    
C2    C3    S    
C5    H11   S    
C7    N1    A    
C7    C8    A    
C2    C26   A    
C11   H18   S    
Cu1   O1    S    
C9    N2    A    
C12   C23   S    
H10   O6    S    
C26   C27   A    
C20   O14   D    
C21   H8    S    
C12   C21   S    
C7    H13   S    
C12   C19   S    
C24   O6    S    
C28   C29   A    
C14   O13   A    
C13   O11   A    
Cu2   O9    S    
C17   C18   S    
C16   C23   S    
C19   H4    S    
C23   C25   S    
C10   H16   S    
C19   C25   S    
C8    H14   S    
C15   C25   S    
H7    O2    S    
C16   C17   S    
C10   C11   S    
C3    H1    S    
C5    C26   S    
C22   H9    S    
C4    C25   S    
C13   C30   S    
C6    C11   S    
C3    H6    S    
C20   O2    S    
C18   C19   S    
C18   H3    S    
C29   H5    S    
C27   C28   A    
C1    C27   S    
C1    O1    A    
C22   C23   S    
C24   O5    D    
C21   O3    D    
C22   O4    D    
Cu2   O7    S    
C4    O9    A    
C10   H15   S    
Cu1   O12   S    
C5    H12   S    
C13   O10   A    
C15   C16   S    
Cu2   O11   S    
Cu2   O13   S    
C3    C5    S    
C14   C17   S    
