data_mof_unit_35888.cif
_audit_creation_date              2012-12-10T16:56:31-0500
_audit_creation_method            fapswitch 2.2
_symmetry_space_group_name_H-M    P1
_symmetry_Int_Tables_number       1
_space_group_crystal_system       triclinic
_cell_length_a                    7.789794
_cell_length_b                    8.59242
_cell_length_c                    15.69244
_cell_angle_alpha                 90.926595
_cell_angle_beta                  85.784484
_cell_angle_gamma                 93.144971
_cell_volume                      1045.84800466

loop_
_atom_site_label
_atom_site_type_symbol
_atom_type_description
_atom_site_fract_x
_atom_site_fract_y
_atom_site_fract_z
_atom_type_partial_charge
C1    C     C_R   0.544758 0.793934 0.508386 0.927250
C2    C     C_R   0.455568 0.207076 0.513236 0.921355
C3    C     C_R   0.501615 0.497284 0.661852 0.858797
C4    C     C_R   0.498400 0.502697 0.338139 0.888797
C5    C     C_2   0.567380 0.955085 0.534059 -0.038498
C6    C     C_2   0.430129 0.046856 0.538335 -0.039524
C7    C     C_3   0.460093 0.642213 0.023798 0.595923
C8    C     C_3   0.540529 0.355930 0.975942 0.591408
C9    C     C_3   0.619105 0.602418 0.965522 0.121570
C10   C     C_3   0.381525 0.395696 0.034237 0.116908
C11   C     C_1   0.504641 0.488188 0.750380 -0.195777
C12   C     C_1   0.495387 0.511050 0.249516 -0.164959
C13   C     C_3   0.342097 0.527946 0.974191 -0.395971
C14   C     C_3   0.658517 0.470175 0.025584 -0.396004
C15   C     C_3   0.503299 0.487111 0.916514 0.010479
C16   C     C_3   0.497293 0.511043 0.083271 0.006688
C17   C     C_1   0.505236 0.483183 0.825573 0.016633
C18   C     C_1   0.495055 0.515413 0.174263 0.031665
H1    H     H_    0.786761 0.449948 0.048642 0.170972
H2    H     H_    0.213865 0.548150 0.951108 0.166304
N1    N     N_2   0.950320 0.457950 0.477300 0.186072
N2    N     N_2   0.049680 0.542050 0.522700 0.196769
O1    O     O_R   0.389250 0.738570 0.505570 -0.623360
O2    O     O_R   0.610750 0.261430 0.494430 -0.654866
O3    O     O_R   0.678390 0.711630 0.491020 -0.569140
O4    O     O_R   0.321610 0.288370 0.508980 -0.618711
O5    O     O_R   0.355460 0.513480 0.630490 -0.660614
O6    O     O_R   0.644540 0.486520 0.369510 -0.613728
O7    O     O_R   0.644600 0.486540 0.615950 -0.597836
O8    O     O_R   0.355400 0.513460 0.384050 -0.552130
Zn1   Zn    Zn3+2 0.306940 0.517990 0.509710 1.015947
Zn2   Zn    Zn3+2 0.693060 0.482010 0.490290 1.022557
C19   C     C_3   0.757732 0.713523 0.923636 -0.914462
H3    H     H_    0.827763 0.777401 0.973620 0.240714
H4    H     H_    0.850987 0.646066 0.883249 0.235840
H5    H     H_    0.698343 0.796774 0.882827 0.244841
C20   C     C_3   0.243094 0.284305 0.076028 -0.897764
H6    H     H_    0.172869 0.220767 0.025992 0.235569
H7    H     H_    0.302750 0.200743 0.116540 0.244052
H8    H     H_    0.149996 0.351444 0.116697 0.249624
O9    O     O_3   0.423945 0.792938 0.054344 -0.611822
C21   C     C_3   0.327329 0.865784 0.995498 -0.312148
H9    H     H_    0.192356 0.815868 0.998990 0.160841
H10   H     H_    0.387191 0.858806 0.928961 0.176026
H11   H     H_    0.322655 0.990357 0.012851 0.225957
O10   O     O_3   0.576579 0.205289 0.945227 -0.614710
C22   C     C_3   0.674037 0.132489 0.003713 -0.314593
H12   H     H_    0.614788 0.139184 0.070377 0.178449
H13   H     H_    0.808916 0.182663 0.999919 0.160204
H14   H     H_    0.678824 0.007987 0.986215 0.226078
C23   C     C_3   0.744085 0.008392 0.561286 -0.854790
H15   H     H_    0.786507 0.923191 0.606830 0.254340
H16   H     H_    0.837757 0.011682 0.504891 0.237843
H17   H     H_    0.745628 0.121871 0.596025 0.252160
C24   C     C_3   0.246252 0.989846 0.565843 -0.828823
H18   H     H_    0.172100 0.084616 0.597045 0.228707
H19   H     H_    0.177748 0.946053 0.509886 0.264157
H20   H     H_    0.246358 0.899149 0.615146 0.248960
O11   O     O_3   0.030133 0.415782 0.402213 -0.504946
C25   C     C_3   0.972411 0.262824 0.383520 -0.162175
H21   H     H_    0.832088 0.253195 0.376014 0.183686
H22   H     H_    0.010173 0.182792 0.432700 0.134530
H23   H     H_    0.037810 0.226974 0.321696 0.144396
O12   O     O_3   0.962808 0.634622 0.578839 -0.527091
C26   C     C_3   0.009838 0.603461 0.661275 -0.152217
H24   H     H_    0.124880 0.677075 0.676257 0.154287
H25   H     H_    0.028176 0.477375 0.670858 0.146685
H26   H     H_    0.903715 0.636710 0.707910 0.142619

loop_
_geom_bond_atom_site_label_1
_geom_bond_atom_site_label_2
_ccdc_geom_bond_type
C1    O3    A    
C9    C14   S    
O2    Zn2   S    
C1    O1    A    
C20   H6    S    
C14   C16   S    
C22   H14   S    
O9    C21   S    
C22   H12   S    
C13   C15   S    
O6    Zn2   S    
C6    C24   S    
C24   H18   S    
C26   H26   S    
O12   C26   S    
C23   H17   S    
O3    Zn2   S    
C3    O5    A    
C19   H3    S    
C9    C15   S    
O11   C25   S    
C2    O4    A    
C10   C16   S    
N1    N2    D    
C25   H22   S    
C9    C19   S    
C2    C6    S    
N2    Zn1   S    
C21   H10   S    
C25   H21   S    
C10   C20   S    
C1    C5    S    
C5    C6    D    
C16   C18   S    
C7    C16   S    
C19   H4    S    
C22   H13   S    
N1    O11   S    
C8    C15   S    
C8    O10   S    
C24   H19   S    
C2    O2    A    
O8    Zn1   S    
N1    Zn2   S    
C25   H23   S    
O7    Zn2   S    
C21   H9    S    
C4    O6    A    
O5    Zn1   S    
C20   H8    S    
C7    C9    S    
C7    C13   S    
C19   H5    S    
C3    C11   S    
C23   H16   S    
C20   H7    S    
C26   H24   S    
O4    Zn1   S    
C24   H20   S    
C12   C18   T    
C3    O7    A    
O10   C22   S    
C11   C17   T    
C8    C14   S    
C13   H2    S    
C4    C12   S    
C15   C17   S    
N2    O12   S    
C14   H1    S    
C10   C13   S    
C8    C10   S    
C4    O8    A    
C23   H15   S    
C7    O9    S    
C5    C23   S    
C26   H25   S    
C21   H11   S    
O1    Zn1   S    
