data_mof_unit_36848.cif
_audit_creation_date              2012-12-11T14:15:22-0500
_audit_creation_method            fapswitch 2.2
_symmetry_space_group_name_H-M    P1
_symmetry_Int_Tables_number       1
_space_group_crystal_system       triclinic
_cell_length_a                    11.264668
_cell_length_b                    12.688272
_cell_length_c                    23.557658
_cell_angle_alpha                 89.834114
_cell_angle_beta                  96.360447
_cell_angle_gamma                 68.684691
_cell_volume                      3114.05112055

loop_
_atom_site_label
_atom_site_type_symbol
_atom_type_description
_atom_site_fract_x
_atom_site_fract_y
_atom_site_fract_z
_atom_type_partial_charge
C1    C     C_R   0.145439 0.616158 0.427592 0.535739
C2    C     C_R   0.566392 0.616294 0.332694 0.135647
C3    C     C_R   0.682391 0.742976 0.323696 -0.160943
C4    C     C_R   0.632885 0.766444 0.266474 0.010260
C5    C     C_R   0.562010 0.704108 0.240307 0.024399
C6    C     C_R   0.536155 0.709735 0.180506 0.116852
C7    C     C_R   0.627207 0.857026 0.175552 -0.158632
C8    C     C_R   0.662386 0.844288 0.234238 -0.141498
C9    C     C_1   0.236411 0.160706 0.123053 -0.003835
C10   C     C_2   0.182468 0.231680 0.226406 -0.121931
C11   C     C_2   0.157285 0.164555 0.263693 -0.120010
C12   C     C_R   0.745544 0.607167 0.405983 0.549630
C13   C     C_1   0.133728 0.199463 0.321117 -0.045553
C14   C     C_1   0.211430 0.195381 0.169706 -0.048107
C15   C     C_1   0.116690 0.233072 0.368623 -0.000322
C16   C     C_1   0.160358 0.744015 0.120334 -0.010378
C17   C     C_2   0.135323 0.671140 0.222096 -0.130829
C18   C     C_2   0.200691 0.695820 0.267794 -0.138320
C19   C     C_1   0.192475 0.660100 0.324870 -0.052080
C20   C     C_1   0.144887 0.710156 0.165820 -0.063582
C21   C     C_1   0.179203 0.635636 0.372659 -0.017257
C22   C     C_1   0.615471 0.764648 0.863399 -0.019128
C23   C     C_R   0.101040 0.283317 0.423346 0.544281
C24   C     C_2   0.638654 0.738736 0.754095 -0.131410
C25   C     C_2   0.723505 0.646709 0.733867 0.140502
C26   C     C_1   0.714360 0.635586 0.672978 -0.035375
C27   C     C_1   0.632259 0.754382 0.814048 -0.078853
C28   C     C_1   0.719374 0.623299 0.622760 -0.027903
C29   C     C_R   0.205149 0.187091 0.855599 -0.043018
C30   C     C_R   0.101215 0.233694 0.642905 -0.034074
C31   C     C_R   0.981823 0.225746 0.722158 0.141234
C32   C     C_R   0.987313 0.236806 0.663410 -0.125329
C33   C     C_R   0.209929 0.216729 0.681002 -0.137751
C34   C     C_R   0.149998 0.616777 0.590549 0.543584
C35   C     C_R   0.202866 0.218243 0.739372 0.014866
C36   C     C_R   0.091397 0.214417 0.760717 0.040538
C37   C     C_R   0.094529 0.197747 0.819847 -0.134074
C38   C     C_R   0.299846 0.218919 0.834976 -0.089643
C39   C     C_R   0.304114 0.227916 0.776633 0.144806
C40   C     C_R   0.131883 0.752512 0.850040 -0.037410
C41   C     C_R   0.194260 0.639952 0.648118 -0.025650
C42   C     C_R   0.320090 0.574380 0.740581 0.140989
C43   C     C_R   0.301136 0.562790 0.681324 -0.126573
C44   C     C_R   0.111716 0.733149 0.673103 -0.139998
C45   C     C_R   0.751275 0.601221 0.566202 0.527483
C46   C     C_R   0.118791 0.739902 0.731819 0.012558
C47   C     C_R   0.221781 0.657831 0.766620 0.035950
C48   C     C_R   0.223574 0.662723 0.826036 -0.136372
C49   C     C_R   0.025798 0.827291 0.815213 -0.093972
C50   C     C_R   0.019760 0.823388 0.756273 0.130542
C51   C     C_R   0.266311 0.108982 0.069516 0.531339
C52   C     C_R   0.537085 0.797008 0.085714 0.582081
C53   C     C_R   0.188341 0.786419 0.068893 0.543485
C54   C     C_R   0.241402 0.117932 0.908784 0.544905
C55   C     C_R   0.574628 0.776811 0.918770 0.556210
C56   C     C_R   0.098428 0.280156 0.585759 0.540929
C57   C     C_R   0.164832 0.787037 0.906852 0.544020
C58   C     C_R   0.568242 0.787711 0.148039 0.029927
C59   C     C_R   0.659341 0.659817 0.354880 0.030957
C60   C     C_R   0.523786 0.633873 0.274514 -0.132864
Cr1   Cr    Cr6+3 0.189770 0.415650 0.511620 1.016390
Cr2   Cr    Cr6+3 0.930400 0.667320 0.496770 1.013101
Cr3   Cr    Cr6+3 0.879870 0.417010 0.491650 1.028183
Cr4   Cr    Cr6+3 0.149500 0.973980 0.985330 1.015722
Cr5   Cr    Cr6+3 0.457000 0.976510 0.994660 1.016865
Cr6   Cr    Cr6+3 0.411170 0.724270 0.995270 1.016032
H1    H     H_    0.377828 0.224166 0.864505 0.141741
H2    H     H_    0.900534 0.253832 0.634148 0.133774
H3    H     H_    0.297618 0.212636 0.664741 0.158976
H4    H     H_    0.299901 0.601230 0.854021 0.157452
H5    H     H_    0.953088 0.896041 0.833359 0.142928
H6    H     H_    0.367899 0.492488 0.661425 0.112594
H7    H     H_    0.714818 0.893742 0.254283 0.121428
H8    H     H_    0.748250 0.781723 0.342198 0.134777
H9    H     H_    0.156785 0.082119 0.251632 0.135806
H10   H     H_    0.183717 0.313797 0.238663 0.133121
H11   H     H_    0.257408 0.747761 0.262730 0.135688
O1    O     O_R   0.196340 0.303200 0.448500 -0.506836
O2    O     O_R   0.811960 0.658090 0.547150 -0.499610
O3    O     O_R   0.757930 0.506140 0.547110 -0.519528
O4    O     O_R   0.988670 0.321620 0.556040 -0.503981
O5    O     O_3   0.000020 0.499990 0.500010 -0.248656
O6    O     O_R   0.113660 0.883270 0.047820 -0.505027
O7    O     O_R   0.186930 0.068530 0.043990 -0.497483
O8    O     O_R   0.377770 0.089040 0.054220 -0.521007
O9    O     O_R   0.562800 0.872960 0.056970 -0.512250
O10   O     O_R   0.555390 0.700940 0.062700 -0.485351
O11   O     O_R   0.295020 0.731920 0.049950 -0.497481
O12   O     O_R   0.199310 0.519670 0.454880 -0.501314
O13   O     O_R   0.094290 0.884230 0.921550 -0.519853
O14   O     O_R   0.168980 0.069410 0.926940 -0.497554
O15   O     O_R   0.358400 0.089990 0.927950 -0.521762
O16   O     O_R   0.544850 0.873850 0.939920 -0.485180
O17   O     O_R   0.536020 0.701900 0.936430 -0.520552
O18   O     O_R   0.277070 0.732810 0.932890 -0.506392
O19   O     O_3   0.339220 0.891590 0.991750 -0.268521
O20   O     O_R   0.045660 0.691380 0.441680 -0.507661
O21   O     O_R   0.811930 0.659460 0.430950 -0.518605
O22   O     O_R   0.757900 0.507620 0.421760 -0.477264
O23   O     O_R   0.988630 0.322990 0.439840 -0.492137
O24   O     O_R   0.196380 0.301720 0.573850 -0.520327
O25   O     O_R   0.199350 0.518300 0.571080 -0.500439
O26   O     O_R   0.045700 0.689900 0.567030 -0.524293
N1    N     N_2   0.485267 0.633060 0.152491 -0.487194
H12   H     H_    0.401695 0.633422 0.166112 0.242334
C61   C     C_3   0.577747 0.519449 0.148737 -0.267786
H13   H     H_    0.533272 0.470615 0.120473 0.141223
H14   H     H_    0.608552 0.475170 0.191589 0.127185
H15   H     H_    0.663622 0.521649 0.130445 0.177453
H16   H     H_    0.076035 0.621314 0.226703 0.140111
N2    N     N_2   0.822404 0.561618 0.770552 -0.507264
H17   H     H_    0.825731 0.573956 0.813829 0.257115
C62   C     C_3   0.948271 0.518313 0.751224 -0.277054
H18   H     H_    0.016967 0.455544 0.783600 0.149601
H19   H     H_    0.983209 0.588462 0.745394 0.153281
H20   H     H_    0.945265 0.475409 0.710376 0.169522
H21   H     H_    0.566435 0.802136 0.724789 0.110339
H22   H     H_    0.017075 0.185089 0.838317 0.150335
N3    N     N_2   0.861948 0.241550 0.742067 -0.524200
H23   H     H_    0.781426 0.289518 0.715114 0.249075
C63   C     C_3   0.850893 0.143026 0.768373 -0.322967
H24   H     H_    0.785712 0.113608 0.739686 0.162924
H25   H     H_    0.810796 0.165743 0.809518 0.138145
H26   H     H_    0.945398 0.072808 0.777449 0.184196
N4    N     N_2   0.407919 0.246818 0.754457 -0.529756
H27   H     H_    0.381350 0.314789 0.725538 0.251295
C64   C     C_3   0.528614 0.222453 0.789948 -0.321593
H28   H     H_    0.597223 0.235065 0.763273 0.136726
H29   H     H_    0.566554 0.133337 0.807223 0.160054
H30   H     H_    0.517899 0.281899 0.825184 0.158269
H31   H     H_    0.651146 0.917863 0.151487 0.145278
N5    N     N_2   0.434177 0.498073 0.772829 -0.537302
H32   H     H_    0.489271 0.433594 0.749713 0.246845
C65   C     C_3   0.512870 0.546606 0.808267 -0.298274
H33   H     H_    0.608866 0.522045 0.793359 0.171006
H34   H     H_    0.526576 0.512835 0.852994 0.154715
H35   H     H_    0.468868 0.640383 0.807330 0.171922
N6    N     N_2   0.918436 0.909832 0.722512 -0.560222
H36   H     H_    0.943266 0.946297 0.688846 0.251262
C66   C     C_3   0.800661 0.889302 0.710662 -0.320606
H37   H     H_    0.817305 0.811499 0.686293 0.164398
H38   H     H_    0.727594 0.961978 0.684808 0.137868
H39   H     H_    0.763543 0.881191 0.751456 0.171204
H40   H     H_    0.031983 0.794080 0.646612 0.155237
H41   H     H_    0.463231 0.590106 0.256616 0.109106
N7    N     N_2   0.521827 0.549367 0.367532 -0.488611
H42   H     H_    0.467891 0.508806 0.345412 0.248430
C67   C     C_3   0.466646 0.603029 0.417734 -0.272858
H43   H     H_    0.428351 0.546908 0.439675 0.149687
H44   H     H_    0.388614 0.685886 0.405436 0.129565
H45   H     H_    0.538918 0.618016 0.449055 0.163428

loop_
_geom_bond_atom_site_label_1
_geom_bond_atom_site_label_2
_ccdc_geom_bond_type
Cr5   O15   S    
C1    C21   S    
C43   H6    S    
C39   N4    S    
C6    C58   A    
Cr1   O24   S    
N2    H17   S    
C9    C51   S    
C66   H39   S    
Cr4   O13   S    
C4    C8    A    
C17   H16   S    
C51   O8    A    
C65   H35   S    
N1    C61   S    
C7    C8    A    
C24   H21   S    
C34   O25   A    
Cr3   O4    S    
C36   C37   A    
C19   C21   T    
C67   H44   S    
C56   O24   A    
C62   H18   S    
Cr1   O5    S    
Cr6   O11   S    
C5    C6    A    
C2    C60   A    
C61   H13   S    
C40   C49   A    
C17   C20   S    
C18   C19   S    
C3    H8    S    
C16   C53   S    
Cr4   O7    S    
C12   O22   A    
Cr3   O22   S    
Cr2   O21   S    
C12   C59   S    
C10   H10   S    
Cr5   O19   S    
C37   H22   S    
C35   C36   A    
Cr1   O12   S    
N5    H32   S    
C63   H26   S    
C29   C38   A    
C24   C27   S    
C6    N1    S    
C53   O11   A    
C7    C58   A    
C12   O21   A    
C5    C60   A    
C33   H3    S    
C32   H2    S    
C62   H20   S    
Cr5   O16   S    
C23   O23   A    
Cr2   O5    S    
C41   C43   A    
C34   C41   S    
C55   O17   A    
N1    H12   S    
C44   C46   A    
N7    C67   S    
Cr3   O3    S    
N3    C63   S    
C66   H37   S    
C28   C45   S    
C57   O13   A    
Cr3   O5    S    
C47   C48   A    
Cr2   O2    S    
Cr5   O9    S    
C67   H45   S    
C67   H43   S    
Cr4   O19   S    
C45   O2    A    
C10   C14   S    
C1    O20   A    
Cr6   O10   S    
C2    C59   A    
C65   H34   S    
C25   C26   S    
C30   C56   S    
C35   C39   A    
C9    C14   T    
C64   H29   S    
Cr4   O6    S    
C54   O15   A    
Cr3   O23   S    
Cr2   O20   S    
C31   C32   A    
Cr1   O1    S    
C44   H40   S    
C17   C18   D    
N2    C62   S    
C16   C20   T    
C24   C25   D    
C31   N3    S    
C63   H24   S    
C65   H33   S    
C52   C58   S    
C22   C27   T    
C13   C15   T    
C57   O18   A    
N4    H27   S    
C41   C44   A    
C42   C43   A    
C3    C4    A    
Cr6   O19   S    
N7    H42   S    
C40   C48   A    
C46   C47   A    
C1    O12   A    
C40   C57   S    
C55   O16   A    
C30   C33   A    
C7    H31   S    
C52   O10   A    
C48   H4    S    
C4    C5    A    
Cr2   O26   S    
N3    H23   S    
C50   N6    S    
Cr5   O8    S    
C22   C55   S    
N6    C66   S    
C2    N7    S    
C60   H41   S    
C46   C50   A    
C26   C28   T    
C34   O26   A    
Cr6   O17   S    
C53   O6    A    
C29   C54   S    
C10   C11   D    
C52   O9    A    
Cr1   O25   S    
C64   H30   S    
C54   O14   A    
C11   H9    S    
C30   C32   A    
C11   C13   S    
C38   C39   A    
C61   H14   S    
C18   H11   S    
C15   C23   S    
C8    H7    S    
C33   C35   A    
C56   O4    A    
C45   O3    A    
C42   C47   A    
C23   O1    A    
C63   H25   S    
N6    H36   S    
C25   N2    S    
C38   H1    S    
N5    C65   S    
C49   C50   A    
C49   H5    S    
C29   C37   A    
N4    C64   S    
C31   C36   A    
C42   N5    S    
Cr4   O14   S    
C66   H38   S    
C51   O7    A    
C64   H28   S    
Cr6   O18   S    
C62   H19   S    
C61   H15   S    
C3    C59   A    
