data_mof_unit_65637.cif
_audit_creation_date              2012-12-10T17:39:23-0500
_audit_creation_method            fapswitch 2.2
_symmetry_space_group_name_H-M    P1
_symmetry_Int_Tables_number       1
_space_group_crystal_system       triclinic
_cell_length_a                    43.787733
_cell_length_b                    30.096155
_cell_length_c                    31.810479
_cell_angle_alpha                 89.999989
_cell_angle_beta                  136.579275
_cell_angle_gamma                 90.000184
_cell_volume                      28814.5472514

loop_
_atom_site_label
_atom_site_type_symbol
_atom_type_description
_atom_site_fract_x
_atom_site_fract_y
_atom_site_fract_z
_atom_type_partial_charge
C1    C     C_R   0.586704 0.999971 0.086742 0.886899
C2    C     C_3   0.536551 0.020991 0.800495 -0.163534
C3    C     C_R   0.500028 0.999951 0.581286 0.904393
C4    C     C_R   0.999972 0.499951 0.418714 0.904393
C5    C     C_R   0.000028 0.499951 0.581286 0.904393
C6    C     C_R   0.500000 0.086612 0.500000 0.886849
C7    C     C_R   0.000000 0.586612 0.500000 0.886849
C8    C     C_R   0.000000 0.086905 0.500000 0.894647
C9    C     C_R   0.500000 0.586905 0.500000 0.894647
C10   C     C_R   0.913033 0.999971 0.413078 0.894465
C11   C     C_R   0.086967 0.999971 0.586922 0.894463
C12   C     C_R   0.413033 0.499971 0.413078 0.894465
C13   C     C_3   0.963476 0.521039 0.199532 -0.163537
C14   C     C_R   0.586967 0.499971 0.586922 0.894463
C15   C     C_R   0.000000 0.913057 0.500000 0.894432
C16   C     C_R   0.500000 0.413057 0.500000 0.894432
C17   C     C_R   0.972695 0.157438 0.500941 -0.259878
C18   C     C_R   0.027304 0.157438 0.499057 -0.259877
C19   C     C_R   0.472695 0.657438 0.500940 -0.259877
C20   C     C_R   0.527304 0.657439 0.499057 -0.259879
C21   C     C_R   1.000000 0.134696 0.499999 -0.064298
C22   C     C_R   0.499999 0.634696 0.499999 -0.064298
C23   C     C_R   0.028053 0.203602 0.500047 0.121761
C24   C     C_3   0.036551 0.520991 0.800495 -0.163534
C25   C     C_R   0.971944 0.203602 0.499949 0.121761
C26   C     C_R   0.528053 0.703602 0.500047 0.121762
C27   C     C_R   0.471944 0.703602 0.499949 0.121761
C28   C     C_3   0.536404 0.021176 0.272423 -0.161833
C29   C     C_3   0.463579 0.021147 0.727560 -0.161833
C30   C     C_3   0.036448 0.521100 0.272468 -0.161834
C31   C     C_3   0.963579 0.521148 0.727560 -0.161834
C32   C     C_R   0.999999 0.226812 0.499998 0.057481
C33   C     C_R   0.499999 0.726812 0.499998 0.057482
C34   C     C_R   0.056377 0.226891 0.501246 -0.217845
C35   C     C_3   0.499867 0.042140 0.263823 -0.162465
C36   C     C_R   0.943620 0.226891 0.498749 -0.217843
C37   C     C_R   0.556377 0.726891 0.501246 -0.217845
C38   C     C_R   0.443620 0.726891 0.498748 -0.217844
C39   C     C_R   0.557081 0.773154 0.502603 -0.218199
C40   C     C_R   0.442916 0.773154 0.497391 -0.218200
C41   C     C_R   0.057081 0.273154 0.502603 -0.218199
C42   C     C_R   0.942916 0.273154 0.497391 -0.218200
C43   C     C_R   0.529011 0.796443 0.501892 0.121570
C44   C     C_R   0.470986 0.796443 0.498104 0.121570
C45   C     C_R   0.029011 0.296444 0.501892 0.121570
C46   C     C_3   0.500100 0.042140 0.736144 -0.162463
C47   C     C_R   0.970986 0.296443 0.498104 0.121570
C48   C     C_R   0.499999 0.773233 0.499997 0.057060
C49   C     C_R   0.999999 0.273233 0.499997 0.057060
C50   C     C_R   0.529284 0.842608 0.502872 -0.258195
C51   C     C_R   0.470714 0.842608 0.497124 -0.258195
C52   C     C_R   0.029283 0.342608 0.502872 -0.258194
C53   C     C_R   0.970714 0.342608 0.497124 -0.258194
C54   C     C_R   0.499999 0.865347 0.499999 -0.058342
C55   C     C_R   0.999999 0.365347 0.499999 -0.058342
C56   C     C_R   0.972528 0.842462 0.444443 -0.259739
C57   C     C_3   0.999955 0.542140 0.263911 -0.162461
C58   C     C_R   0.027473 0.842462 0.555557 -0.259739
C59   C     C_R   0.472528 0.342462 0.444443 -0.259739
C60   C     C_R   0.527473 0.342462 0.555557 -0.259739
C61   C     C_R   0.000000 0.865227 0.500000 -0.064453
C62   C     C_R   0.500000 0.365227 0.500000 -0.064453
C63   C     C_R   0.028229 0.796280 0.556060 0.121842
C64   C     C_R   0.971772 0.796280 0.443941 0.121843
C65   C     C_R   0.528229 0.296280 0.556060 0.121843
C66   C     C_R   0.471772 0.296280 0.443941 0.121843
C67   C     C_1   0.499950 0.999977 0.125774 -0.184395
C68   C     C_3   0.000101 0.542140 0.736145 -0.162463
C69   C     C_1   0.500050 0.999977 0.874226 -0.184394
C70   C     C_1   0.999950 0.499977 0.125774 -0.184395
C71   C     C_1   0.000050 0.499977 0.874226 -0.184394
C72   C     C_R   0.000000 0.773061 0.500000 0.057417
C73   C     C_R   0.500000 0.273061 0.500000 0.057417
C74   C     C_R   0.056730 0.772978 0.611502 -0.217845
C75   C     C_R   0.943271 0.772977 0.388499 -0.217846
C76   C     C_R   0.556730 0.272978 0.611502 -0.217845
C77   C     C_R   0.443271 0.272977 0.388499 -0.217845
C78   C     C_R   0.557436 0.226706 0.611545 -0.218486
C79   C     C_1   0.499956 0.999987 0.163354 -0.078589
C80   C     C_R   0.442564 0.226705 0.388456 -0.218487
C81   C     C_R   0.057437 0.726706 0.611545 -0.218486
C82   C     C_R   0.942564 0.726705 0.388456 -0.218486
C83   C     C_R   0.529189 0.203403 0.556118 0.121468
C84   C     C_R   0.470812 0.203402 0.443882 0.121469
C85   C     C_R   0.029189 0.703402 0.556118 0.121468
C86   C     C_R   0.970812 0.703402 0.443882 0.121468
C87   C     C_R   0.500000 0.226621 0.500000 0.057176
C88   C     C_R   0.000000 0.726621 0.500000 0.057176
C89   C     C_R   0.529459 0.157220 0.555679 -0.258098
C90   C     C_1   0.500044 0.999987 0.836645 -0.078589
C91   C     C_R   0.470541 0.157219 0.444322 -0.258097
C92   C     C_R   0.029459 0.657220 0.555679 -0.258098
C93   C     C_R   0.970542 0.657219 0.444322 -0.258097
C94   C     C_R   0.500000 0.134450 0.500000 -0.058787
C95   C     C_R   0.000000 0.634450 0.500000 -0.058788
C96   C     C_1   0.499998 0.999986 0.374176 -0.184396
C97   C     C_1   0.500002 0.999986 0.625823 -0.184396
C98   C     C_1   0.999998 0.499986 0.374176 -0.184396
C99   C     C_1   0.000002 0.499986 0.625823 -0.184396
C100  C     C_3   0.500103 0.957871 0.236149 -0.163793
C101  C     C_1   0.999956 0.499987 0.163354 -0.078589
C102  C     C_3   0.499929 0.957871 0.763883 -0.163790
C103  C     C_3   0.000015 0.457871 0.236061 -0.163787
C104  C     C_3   0.999928 0.457871 0.763882 -0.163791
C105  C     C_3   0.499970 0.999999 0.208888 0.205161
C106  C     C_3   0.500029 0.999999 0.791112 0.205161
C107  C     C_3   0.999970 0.499999 0.208888 0.205160
C108  C     C_3   0.000029 0.499999 0.791112 0.205160
C109  C     C_3   0.463566 0.978835 0.227548 -0.162377
C110  C     C_3   0.536450 0.978863 0.772468 -0.162381
C111  C     C_3   0.963522 0.478911 0.227504 -0.162384
C112  C     C_R   0.413295 0.999971 0.913258 0.886900
C113  C     C_1   0.000044 0.499987 0.836645 -0.078589
C114  C     C_3   0.036450 0.478863 0.772467 -0.162380
C115  C     C_1   0.500006 0.000005 0.336609 -0.078585
C116  C     C_1   0.499994 0.000005 0.663391 -0.078585
C117  C     C_1   0.000006 0.500005 0.336609 -0.078585
C118  C     C_1   0.999994 0.500005 0.663391 -0.078585
C119  C     C_R   0.842478 0.027422 0.314424 -0.259713
C120  C     C_R   0.157522 0.027422 0.685576 -0.259714
C121  C     C_R   0.342478 0.527422 0.314424 -0.259714
C122  C     C_R   0.657522 0.527422 0.685576 -0.259714
C123  C     C_R   0.865225 0.000004 0.365311 -0.064160
C124  C     C_R   0.086704 0.499971 0.086742 0.886899
C125  C     C_R   0.134774 0.000003 0.634689 -0.064159
C126  C     C_R   0.365225 0.500004 0.365311 -0.064160
C127  C     C_R   0.634775 0.500003 0.634689 -0.064160
C128  C     C_R   0.842468 0.972613 0.370719 -0.259877
C129  C     C_R   0.157532 0.972611 0.629282 -0.259877
C130  C     C_R   0.342468 0.472613 0.370719 -0.259877
C131  C     C_R   0.657532 0.472611 0.629282 -0.259877
C132  C     C_R   0.796295 0.971876 0.324312 0.121835
C133  C     C_R   0.203704 0.971873 0.675689 0.121835
C134  C     C_R   0.296295 0.471875 0.324312 0.121835
C135  C     C_R   0.913295 0.499971 0.913258 0.886900
C136  C     C_R   0.703704 0.471873 0.675689 0.121835
C137  C     C_R   0.773088 0.000040 0.273205 0.057430
C138  C     C_R   0.226912 0.000038 0.726796 0.057429
C139  C     C_R   0.273088 0.500040 0.273205 0.057430
C140  C     C_R   0.726912 0.500038 0.726796 0.057429
C141  C     C_R   0.499954 0.999968 0.081214 0.904428
C142  C     C_R   0.500046 0.999968 0.918786 0.904429
C143  C     C_R   0.999954 0.499968 0.081214 0.904428
C144  C     C_R   0.000046 0.499968 0.918786 0.904429
C145  C     C_R   0.796308 0.028194 0.268518 0.121792
C146  C     C_3   0.499999 0.000011 0.291084 0.205159
C147  C     C_R   0.203692 0.028193 0.731483 0.121793
C148  C     C_R   0.296308 0.528194 0.268518 0.121792
C149  C     C_R   0.703692 0.528193 0.731483 0.121793
C150  C     C_R   0.772993 0.943448 0.328028 -0.217840
C151  C     C_R   0.227007 0.943444 0.671975 -0.217840
C152  C     C_R   0.272992 0.443448 0.328028 -0.217840
C153  C     C_R   0.727007 0.443444 0.671975 -0.217839
C154  C     C_R   0.726726 0.942742 0.281100 -0.218285
C155  C     C_R   0.273273 0.942738 0.718902 -0.218286
C156  C     C_R   0.226726 0.442742 0.281100 -0.218286
C157  C     C_3   0.500000 0.000011 0.708916 0.205159
C158  C     C_R   0.773273 0.442738 0.718903 -0.218287
C159  C     C_R   0.703438 0.970917 0.230555 0.121438
C160  C     C_R   0.296562 0.970914 0.769447 0.121437
C161  C     C_R   0.203438 0.470917 0.230555 0.121438
C162  C     C_R   0.796562 0.470914 0.769447 0.121437
C163  C     C_R   0.726659 0.000041 0.226775 0.057124
C164  C     C_R   0.273341 0.000039 0.773226 0.057124
C165  C     C_R   0.226659 0.500041 0.226775 0.057124
C166  C     C_R   0.773341 0.500039 0.773226 0.057124
C167  C     C_R   0.703452 0.029156 0.176556 0.121563
C168  C     C_3   1.000000 0.500011 0.291084 0.205159
C169  C     C_R   0.296548 0.029155 0.823444 0.121563
C170  C     C_R   0.203452 0.529156 0.176556 0.121563
C171  C     C_R   0.796548 0.529155 0.823444 0.121562
C172  C     C_R   0.726755 0.057337 0.172611 -0.218398
C173  C     C_R   0.273245 0.057337 0.827389 -0.218400
C174  C     C_R   0.226755 0.557337 0.172611 -0.218398
C175  C     C_R   0.773245 0.557338 0.827389 -0.218398
C176  C     C_R   0.773021 0.056629 0.218218 -0.217810
C177  C     C_R   0.226980 0.056629 0.781782 -0.217809
C178  C     C_R   0.273021 0.556629 0.218218 -0.217810
C179  C     C_3   1.000000 0.500011 0.708916 0.205160
C180  C     C_R   0.726980 0.556629 0.781782 -0.217809
C181  C     C_R   0.657265 0.970630 0.183654 -0.258055
C182  C     C_R   0.342734 0.970628 0.816347 -0.258054
C183  C     C_R   0.157266 0.470630 0.183654 -0.258055
C184  C     C_R   0.842734 0.470628 0.816347 -0.258053
C185  C     C_R   0.634518 0.000007 0.134594 -0.058553
C186  C     C_R   0.365482 0.000006 0.865407 -0.058554
C187  C     C_R   0.134518 0.500007 0.134594 -0.058553
C188  C     C_R   0.865482 0.500006 0.865407 -0.058554
C189  C     C_3   0.536537 0.979047 0.300483 -0.164349
C190  C     C_3   0.463433 0.020963 0.199489 -0.163532
C191  C     C_3   0.463479 0.979019 0.699533 -0.164348
C192  C     C_3   0.036493 0.478971 0.300439 -0.164348
C193  C     C_3   0.963478 0.479019 0.699533 -0.164348
C194  C     C_R   0.657280 0.029411 0.131074 -0.258127
C195  C     C_R   0.342720 0.029411 0.868926 -0.258127
C196  C     C_R   0.157280 0.529411 0.131074 -0.258126
C197  C     C_R   0.842720 0.529411 0.868926 -0.258126
C198  C     C_R   0.500000 0.913134 0.500000 0.887578
C199  C     C_R   1.000000 0.413134 0.500000 0.887578
C200  C     C_R   0.499972 0.999951 0.418714 0.904393
H1    H     H_    0.566266 0.038533 0.290036 0.135065
H2    H     H_    0.361060 0.948301 0.814258 0.148239
H3    H     H_    0.138940 0.448304 0.185744 0.148238
H4    H     H_    0.861060 0.448301 0.814258 0.148239
H5    H     H_    0.638966 0.051721 0.092325 0.148031
H6    H     H_    0.361034 0.051721 0.907674 0.148033
H7    H     H_    0.138966 0.551721 0.092325 0.148031
H8    H     H_    0.861034 0.551722 0.907674 0.148032
H9    H     H_    0.709205 0.079689 0.134144 0.147095
H10   H     H_    0.290796 0.079690 0.865855 0.147095
H11   H     H_    0.209205 0.579689 0.134144 0.147095
H12   H     H_    0.433703 0.038481 0.709934 0.135064
H13   H     H_    0.790796 0.579690 0.865855 0.147095
H14   H     H_    0.790583 0.078434 0.214355 0.148073
H15   H     H_    0.209418 0.078435 0.785645 0.148072
H16   H     H_    0.290583 0.578434 0.214355 0.148073
H17   H     H_    0.709418 0.578435 0.785645 0.148072
H18   H     H_    0.951478 0.139116 0.501177 0.149746
H19   H     H_    0.048521 0.139117 0.498821 0.149746
H20   H     H_    0.451478 0.639116 0.501177 0.149746
H21   H     H_    0.548521 0.639117 0.498821 0.149747
H22   H     H_    0.078099 0.209332 0.501466 0.148077
H23   H     H_    0.066347 0.538395 0.290116 0.135061
H24   H     H_    0.921898 0.209331 0.498529 0.148076
H25   H     H_    0.578099 0.709332 0.501466 0.148077
H26   H     H_    0.421898 0.709331 0.498529 0.148077
H27   H     H_    0.579348 0.790713 0.503872 0.147192
H28   H     H_    0.420649 0.790713 0.496122 0.147192
H29   H     H_    0.079348 0.290713 0.503872 0.147192
H30   H     H_    0.920649 0.290713 0.496122 0.147192
H31   H     H_    0.551515 0.860935 0.504597 0.147987
H32   H     H_    0.448483 0.860935 0.495400 0.147987
H33   H     H_    0.051515 0.360935 0.504597 0.147986
H34   H     H_    0.933704 0.538482 0.709935 0.135064
H35   H     H_    0.948483 0.360935 0.495400 0.147987
H36   H     H_    0.951183 0.860781 0.401767 0.149499
H37   H     H_    0.048818 0.860781 0.598234 0.149499
H38   H     H_    0.451183 0.360781 0.401767 0.149499
H39   H     H_    0.548818 0.360781 0.598234 0.149499
H40   H     H_    0.566508 0.961863 0.342672 0.134374
H41   H     H_    0.433521 0.961811 0.657357 0.134372
H42   H     H_    0.066429 0.461724 0.342592 0.134370
H43   H     H_    0.933520 0.461812 0.657357 0.134372
H44   H     H_    0.078593 0.790534 0.654733 0.148114
H45   H     H_    0.709165 0.920385 0.284448 0.147321
H46   H     H_    0.921407 0.790533 0.345268 0.148114
H47   H     H_    0.578593 0.290534 0.654733 0.148114
H48   H     H_    0.421407 0.290533 0.345268 0.148114
H49   H     H_    0.579846 0.209150 0.654810 0.147241
H50   H     H_    0.420154 0.209150 0.345191 0.147241
H51   H     H_    0.079846 0.709150 0.654810 0.147241
H52   H     H_    0.920154 0.709150 0.345191 0.147242
H53   H     H_    0.551832 0.138903 0.598420 0.148256
H54   H     H_    0.448169 0.138903 0.401581 0.148256
H55   H     H_    0.051832 0.638903 0.598420 0.148256
H56   H     H_    0.290834 0.920380 0.715555 0.147321
H57   H     H_    0.948168 0.638903 0.401581 0.148257
H58   H     H_    0.499770 0.076688 0.275954 0.134069
H59   H     H_    0.500170 0.076688 0.723986 0.134070
H60   H     H_    0.999930 0.576688 0.276114 0.134073
H61   H     H_    0.000171 0.576688 0.723987 0.134071
H62   H     H_    0.433461 0.038145 0.157298 0.133612
H63   H     H_    0.566509 0.038198 0.842672 0.133612
H64   H     H_    0.933540 0.538284 0.157378 0.133612
H65   H     H_    0.066510 0.538196 0.842673 0.133612
H66   H     H_    0.433704 0.961476 0.209935 0.135675
H67   H     H_    0.209165 0.420385 0.284448 0.147321
H68   H     H_    0.566325 0.961527 0.790094 0.135676
H69   H     H_    0.933624 0.461614 0.209855 0.135676
H70   H     H_    0.066324 0.461526 0.790093 0.135675
H71   H     H_    0.500200 0.923322 0.224020 0.135420
H72   H     H_    0.499859 0.923322 0.776038 0.135422
H73   H     H_    0.000039 0.423322 0.223860 0.135423
H74   H     H_    0.999858 0.423322 0.776037 0.135422
H75   H     H_    0.860802 0.048705 0.311358 0.149546
H76   H     H_    0.139198 0.048706 0.688642 0.149546
H77   H     H_    0.360802 0.548705 0.311358 0.149546
H78   H     H_    0.790835 0.420380 0.715555 0.147321
H79   H     H_    0.639198 0.548706 0.688642 0.149546
H80   H     H_    0.860785 0.951312 0.410410 0.149500
H81   H     H_    0.139214 0.951310 0.589591 0.149499
H82   H     H_    0.360785 0.451312 0.410410 0.149500
H83   H     H_    0.639214 0.451310 0.589591 0.149499
H84   H     H_    0.790544 0.921637 0.367000 0.148109
H85   H     H_    0.209456 0.921632 0.633003 0.148109
H86   H     H_    0.290544 0.421637 0.367000 0.148109
H87   H     H_    0.709456 0.421632 0.633003 0.148109
H88   H     H_    0.638940 0.948304 0.185744 0.148238
O1    O     O_R   0.566070 0.962660 0.066090 -0.622926
O2    O     O_R   0.066140 0.999980 0.600900 -0.624999
O3    O     O_R   0.433860 0.499980 0.399100 -0.625000
O4    O     O_R   0.566140 0.499980 0.600900 -0.624999
O5    O     O_R   0.000070 0.933930 0.534840 -0.624781
O6    O     O_R   0.999930 0.933930 0.465160 -0.624780
O7    O     O_R   0.500070 0.433930 0.534840 -0.624781
O8    O     O_R   0.499930 0.433930 0.465160 -0.624780
O9    O     O_R   0.566010 0.037250 0.066030 -0.622866
O10   O     O_R   0.433990 0.037250 0.933970 -0.622866
O11   O     O_R   0.066010 0.537250 0.066030 -0.622866
O12   O     O_R   0.433930 0.962660 0.933910 -0.622927
O13   O     O_R   0.933990 0.537250 0.933970 -0.622866
O14   O     O_R   0.499990 0.962670 0.061610 -0.618070
O15   O     O_R   0.500010 0.962670 0.938390 -0.618071
O16   O     O_R   0.999990 0.462670 0.061610 -0.618070
O17   O     O_R   0.000010 0.462670 0.938390 -0.618071
O18   O     O_R   0.499940 0.037260 0.061550 -0.617858
O19   O     O_R   0.500060 0.037260 0.938450 -0.617859
O20   O     O_R   0.999940 0.537260 0.061550 -0.617858
O21   O     O_R   0.000060 0.537260 0.938450 -0.617859
O22   O     O_R   0.537250 0.933800 0.537250 -0.623171
O23   O     O_R   0.066070 0.462660 0.066090 -0.622926
O24   O     O_R   0.462750 0.933800 0.462750 -0.623172
O25   O     O_R   0.037250 0.433800 0.537250 -0.623171
O26   O     O_R   0.962750 0.433800 0.462750 -0.623172
O27   O     O_R   0.537260 0.999870 0.475660 -0.617991
O28   O     O_R   0.462740 0.999870 0.524340 -0.617992
O29   O     O_R   0.037260 0.499870 0.475660 -0.617991
O30   O     O_R   0.962740 0.499870 0.524340 -0.617992
O31   O     O_R   0.462660 0.999960 0.401030 -0.618007
O32   O     O_R   0.537340 0.999960 0.598970 -0.618008
O33   O     O_R   0.962660 0.499960 0.401030 -0.618008
O34   O     O_R   0.933930 0.462660 0.933910 -0.622927
O35   O     O_R   0.037340 0.499960 0.598970 -0.618007
O36   O     O_R   0.537280 0.065930 0.537300 -0.622790
O37   O     O_R   0.462720 0.065930 0.462700 -0.622791
O38   O     O_R   0.037280 0.565930 0.537300 -0.622790
O39   O     O_R   0.962720 0.565930 0.462700 -0.622791
O40   O     O_R   0.999920 0.066060 0.534710 -0.625055
O41   O     O_R   0.000080 0.066060 0.465290 -0.625056
O42   O     O_R   0.499920 0.566060 0.534710 -0.625055
O43   O     O_R   0.500080 0.566060 0.465290 -0.625056
O44   O     O_R   0.933920 0.999970 0.468730 -0.624859
O45   O     O_R   0.066080 0.999970 0.531270 -0.624858
O46   O     O_R   0.433920 0.499970 0.468730 -0.624859
O47   O     O_R   0.566080 0.499970 0.531270 -0.624858
O48   O     O_R   0.933860 0.999980 0.399100 -0.625000
Zn1   Zn    Zn3+2 0.500000 0.950160 0.000000 0.956626
Zn2   Zn    Zn3+2 1.000000 0.999990 0.453550 0.951526
Zn3   Zn    Zn3+2 0.500000 0.499990 0.546450 0.951526
Zn4   Zn    Zn3+2 0.500000 0.499990 0.453550 0.951526
Zn5   Zn    Zn3+2 1.000000 0.450160 0.000000 0.956626
Zn6   Zn    Zn3+2 0.500000 0.049770 0.000000 0.956629
Zn7   Zn    Zn3+2 0.000000 0.549770 0.000000 0.956629
Zn8   Zn    Zn3+2 0.549780 0.999850 0.549790 0.956689
Zn9   Zn    Zn3+2 0.450220 0.999850 0.450210 0.956689
Zn10  Zn    Zn3+2 0.049780 0.499850 0.549790 0.956689
Zn11  Zn    Zn3+2 0.950220 0.499850 0.450210 0.956688
Zn12  Zn    Zn3+2 1.000000 0.999990 0.546450 0.951526

loop_
_geom_bond_atom_site_label_1
_geom_bond_atom_site_label_2
_ccdc_geom_bond_type
C101  C107  S    
C142  O15   A    
C184  H4    S    
C24   H65   S    
C18   C21   A    
C132  C150  A    
C36   C42   A    
C173  H10   S    
C133  C151  A    
C136  C140  A    
C14   O47   A    
C12   O3    A    
C198  O24   A    
C121  H77   S    
C59   C66   A    
C179  C193  S    
C86   C88   A    
C12   C126  S    
O4    Zn3   S    
C135  O13   A    
C46   H59   S    
C71   C113  T    
C60   C62   A    
C89   C94   A    
O46   Zn3   S    
C55   C199  S    
C152  C156  A    
C6    C94   S    
C104  C193  S    
C84   C91   A    
C151  C155  A    
C36   H24   S    
C200  O31   A    
C38   H26   S    
C74   H44   S    
C58   C61   A    
C100  C109  S    
C130  C134  A    
C81   H51   S    
O19   Zn6   S    
C8    O41   A    
C31   H34   S    
C16   O7    A    
C122  C149  A    
O17   Zn5   S    
C67   C79   T    
C120  C125  A    
C132  C137  A    
C17   C21   A    
C108  C113  S    
C157  C191  S    
O14   Zn1   S    
C7    O38   A    
C102  C191  S    
C15   C61   S    
C1    O1    A    
C112  O12   A    
C159  C181  A    
C110  C157  S    
C93   H57   S    
C60   C65   A    
C172  H9    S    
C35   C190  S    
C119  C123  A    
C74   C81   A    
C67   C141  S    
C104  H74   S    
C144  O17   A    
C29   H12   S    
C137  C163  A    
C170  C174  A    
C137  C145  A    
C66   C77   A    
C11   C125  S    
C10   O44   A    
C198  O22   A    
C63   C74   A    
C1    C185  S    
C168  C192  S    
C17   C25   A    
C91   C94   A    
C136  C153  A    
C66   C73   A    
C47   C53   A    
C152  H86   S    
O35   Zn10  S    
O2    Zn12  S    
C109  C146  S    
C25   C36   A    
C92   H55   S    
C125  C129  A    
C41   C45   A    
O16   Zn5   S    
C197  H8    S    
C103  C107  S    
C161  C165  A    
C44   C48   A    
C100  H71   S    
C24   C114  S    
C30   C107  S    
C177  H15   S    
O42   Zn3   S    
C28   C189  S    
O34   Zn5   S    
C131  H83   S    
C70   C101  T    
C169  C195  A    
C57   C168  S    
O28   Zn9   S    
C27   C33   A    
C135  O34   A    
C115  C146  S    
C70   C143  S    
C28   H1    S    
O45   Zn2   S    
C82   H52   S    
C76   C78   A    
C13   C57   S    
C117  C168  S    
C141  O18   A    
C124  O23   A    
C122  C127  A    
C139  C165  A    
O27   Zn8   S    
C181  H88   S    
C11   O2    A    
C28   C35   S    
C153  H87   S    
C56   C64   A    
C30   C192  S    
C93   C95   A    
C80   H50   S    
C180  H17   S    
O38   Zn10  S    
C199  O25   A    
C151  H85   S    
C85   C92   A    
C120  H76   S    
C127  C131  A    
C83   C89   A    
C139  C148  A    
O25   Zn10  S    
C174  H11   S    
C131  C136  A    
C134  C139  A    
C31   C193  S    
C9    O43   A    
C45   C52   A    
C2    C106  S    
C112  O10   A    
C40   H28   S    
C200  O27   A    
C86   C93   A    
C155  H56   S    
C147  C177  A    
C26   C33   A    
C109  C190  S    
C23   C34   A    
C75   H46   S    
C143  O16   A    
O44   Zn12  S    
C24   C108  S    
C156  C161  A    
C7    O39   A    
C4    O33   A    
O36   Zn8   S    
C85   C88   A    
C96   C200  S    
C194  H5    S    
C148  C178  A    
O20   Zn7   S    
C12   O46   A    
C43   C50   A    
C175  C180  A    
C103  C111  S    
C68   C179  S    
C178  H16   S    
O11   Zn7   S    
C6    O36   A    
C154  C159  A    
C13   C111  S    
O22   Zn8   S    
C195  H6    S    
C64   C75   A    
O15   Zn1   S    
C32   C49   A    
O18   Zn6   S    
C40   C44   A    
C10   O48   A    
C56   H36   S    
C19   H20   S    
O1    Zn1   S    
C140  C149  A    
C128  H80   S    
C81   C85   A    
C17   H18   S    
C172  C176  A    
C83   C87   A    
C15   O6    A    
C187  C196  A    
C135  C188  S    
C185  C194  A    
C80   C84   A    
C110  H68   S    
C50   C54   A    
C65   C76   A    
C102  H72   S    
C16   O8    A    
C160  C164  A    
C1    O9    A    
O13   Zn7   S    
O47   Zn4   S    
C158  H78   S    
C126  C130  A    
C27   C38   A    
C30   C57   S    
O33   Zn11  S    
C182  C186  A    
C73   C87   A    
C162  C166  A    
C78   C83   A    
C5    C99   S    
C52   H33   S    
C20   H21   S    
C146  C189  S    
O10   Zn6   S    
C58   H37   S    
O26   Zn11  S    
C174  C178  A    
C39   H27   S    
C52   C55   A    
C37   H25   S    
C51   H32   S    
C133  C138  A    
C33   C48   A    
C193  H43   S    
C35   H58   S    
C31   C68   S    
C34   C41   A    
C114  H70   S    
C5    O30   A    
C140  C166  A    
C141  O14   A    
C192  H42   S    
C59   H38   S    
C103  H73   S    
O48   Zn2   S    
C10   C123  S    
C82   C86   A    
C149  C180  A    
C14   C127  S    
C35   C146  S    
C161  C183  A    
C162  C184  A    
C183  C187  A    
C3    C97   S    
C2    H63   S    
C145  C176  A    
C45   C49   A    
C28   C105  S    
C5    O35   A    
C134  C152  A    
O30   Zn11  S    
O31   Zn9   S    
C121  C148  A    
C75   C82   A    
C60   H39   S    
C150  H84   S    
C3    O32   A    
C97   C116  T    
C90   C106  S    
C30   H23   S    
C42   H30   S    
O24   Zn9   S    
C20   C22   A    
O12   Zn1   S    
C176  H14   S    
C102  C110  S    
C76   H47   S    
C111  H69   S    
C104  C108  S    
C77   C80   A    
C165  C170  A    
C2    C110  S    
C129  C133  A    
C11   O45   A    
O5    Zn12  S    
C182  H2    S    
C105  C190  S    
O3    Zn4   S    
C26   C37   A    
C167  C172  A    
C119  C145  A    
C142  O19   A    
C29   C46   S    
C77   H48   S    
C23   C32   A    
C69   C142  S    
C37   C39   A    
C143  O20   A    
C38   C40   A    
C188  C197  A    
C9    C22   S    
C13   H64   S    
C24   C68   S    
C119  H75   S    
C121  C126  A    
C63   C72   A    
C120  C147  A    
C130  H82   S    
C114  C179  S    
C78   H49   S    
C56   C61   A    
C111  C168  S    
C189  H40   S    
C4    O29   A    
C71   C144  S    
C170  C196  A    
C4    C98   S    
C31   C108  S    
O8    Zn4   S    
C100  C189  S    
C84   C87   A    
C13   C107  S    
C122  H79   S    
C47   C49   A    
C2    C46   S    
O9    Zn6   S    
C100  C105  S    
C175  H13   S    
C112  C186  S    
O40   Zn12  S    
O43   Zn4   S    
C9    O42   A    
C153  C158  A    
C65   C73   A    
C79   C105  S    
C154  H45   S    
C96   C115  T    
C19   C27   A    
C43   C48   A    
C53   H35   S    
C118  C179  S    
C25   C32   A    
C166  C171  A    
C89   H53   S    
O6    Zn2   S    
C164  C169  A    
C16   C62   S    
O37   Zn9   S    
C18   H19   S    
C128  C132  A    
C160  C182  A    
C68   H61   S    
C72   C88   A    
C53   C55   A    
C18   C23   A    
C191  H41   S    
C186  C195  A    
C19   C22   A    
C181  C185  A    
C144  O21   A    
C39   C43   A    
C46   C157  S    
C171  C175  A    
C92   C95   A    
C184  C188  A    
O23   Zn5   S    
C6    O37   A    
C163  C167  A    
C173  C177  A    
C138  C147  A    
C29   C191  S    
C8    C21   S    
C50   H31   S    
O21   Zn7   S    
C129  H81   S    
C124  O11   A    
C104  C114  S    
C44   C51   A    
C41   H29   S    
C14   O4    A    
C167  C194  A    
C159  C163  A    
C29   C106  S    
C199  O26   A    
C69   C90   T    
O41   Zn2   S    
O29   Zn10  S    
C98   C117  T    
C58   C63   A    
C15   O5    A    
C59   C62   A    
C169  C173  A    
C155  C160  A    
C109  H66   S    
C124  C187  S    
C91   H54   S    
C7    C95   S    
C57   H60   S    
C54   C198  S    
C51   C54   A    
C183  H3    S    
C3    O28   A    
C190  H62   S    
C196  H7    S    
O7    Zn3   S    
C116  C157  S    
C171  C197  A    
C99   C118  T    
C123  C128  A    
C156  H67   S    
C20   C26   A    
C102  C106  S    
C42   C47   A    
C64   C72   A    
C8    O40   A    
C158  C162  A    
O39   Zn11  S    
C150  C154  A    
C138  C164  A    
C103  C192  S    
O32   Zn8   S    
C34   H22   S    
