data_mof_unit_22729.cif
_audit_creation_date              2012-12-10T17:04:28-0500
_audit_creation_method            fapswitch 2.2
_symmetry_space_group_name_H-M    P1
_symmetry_Int_Tables_number       1
_space_group_crystal_system       triclinic
_cell_length_a                    14.955546
_cell_length_b                    10.649115
_cell_length_c                    10.019319
_cell_angle_alpha                 88.506537
_cell_angle_beta                  89.182293
_cell_angle_gamma                 89.887827
_cell_volume                      1595.0035888

loop_
_atom_site_label
_atom_site_type_symbol
_atom_type_description
_atom_site_fract_x
_atom_site_fract_y
_atom_site_fract_z
_atom_type_partial_charge
Br1   Br    Br    0.424120 0.133207 0.226268 -0.430559
Br2   Br    Br    0.448122 0.065213 0.693408 -0.465212
Br3   Br    Br    0.252776 0.244125 0.600361 -0.498030
Br4   Br    Br    0.099239 0.845951 0.290991 -0.454093
C1    C     C_R   0.490276 0.262815 0.502084 0.917158
C2    C     C_R   0.186272 0.393040 0.549162 0.160739
C3    C     C_R   0.231423 0.501068 0.504285 -0.259529
C4    C     C_R   0.327046 0.501046 0.501033 0.992433
C5    C     C_R   0.186150 0.611786 0.467579 0.423048
C6    C     C_2   0.444354 0.929779 0.413743 -0.151635
C7    C     C_2   0.504140 0.869923 0.489596 -0.350043
C8    C     C_2   0.445722 0.065178 0.403184 0.247531
C9    C     C_2   0.464952 0.132304 0.511576 0.029915
C10   C     C_2   0.551337 0.572240 0.921913 -0.090915
C11   C     C_2   0.547610 0.577143 0.071951 -0.106987
C12   C     C_R   0.906203 0.601332 0.444780 0.083343
C13   C     C_R   0.502289 0.737463 0.497804 0.915966
C14   C     C_R   0.672884 0.498276 0.499027 0.932339
C15   C     C_R   0.813596 0.599902 0.445121 -0.327377
C16   C     C_R   0.768150 0.495266 0.496567 -0.141060
C17   C     C_R   0.812993 0.388004 0.543439 0.416898
C18   C     C_R   0.906281 0.391854 0.552300 0.009896
C19   C     C_R   0.953099 0.497934 0.499883 0.051944
C20   C     C_3   0.781914 0.184265 0.486411 0.063096
C21   C     C_3   0.693868 0.135883 0.433128 -0.333925
C22   C     C_3   0.708348 0.023946 0.343116 -0.932046
C23   C     C_R   0.953244 0.292359 0.612397 -0.215502
C24   C     C_3   0.248501 0.772063 0.583158 0.088570
C25   C     C_3   0.179312 0.872956 0.617278 -0.348996
C26   C     C_3   0.194215 0.924116 0.756025 -0.797404
C27   C     C_R   0.045603 0.292601 0.611721 -0.131513
C28   C     C_R   0.093213 0.394596 0.555032 0.084891
C29   C     C_R   0.046629 0.500356 0.502226 -0.069916
C30   C     C_R   0.093244 0.608155 0.452079 -0.063864
C31   C     C_R   0.045008 0.708060 0.390252 0.302697
C32   C     C_R   0.952121 0.704327 0.389365 -0.255984
H1    H     H_    0.776481 0.680175 0.406032 0.156490
H2    H     H_    0.397693 0.878520 0.353208 0.221513
H3    H     H_    0.815898 0.105286 0.539779 0.165297
H4    H     H_    0.825342 0.213463 0.399271 0.139090
H5    H     H_    0.650102 0.106766 0.518714 0.229733
H6    H     H_    0.660760 0.212565 0.375088 0.239349
H7    H     H_    0.752854 0.050423 0.257286 0.277415
H8    H     H_    0.643111 0.993207 0.303888 0.285192
H9    H     H_    0.738600 0.944213 0.400302 0.251279
H10   H     H_    0.315657 0.815894 0.581460 0.188780
H11   H     H_    0.249851 0.698739 0.664905 0.129122
H12   H     H_    0.555108 0.917793 0.544896 0.176756
H13   H     H_    0.183982 0.951550 0.542360 0.287599
H14   H     H_    0.111019 0.832519 0.614763 0.220407
H15   H     H_    0.186915 0.847838 0.833141 0.264224
H16   H     H_    0.143890 0.998160 0.776717 0.267245
H17   H     H_    0.261940 0.965685 0.762154 0.316818
H18   H     H_    0.598473 0.633876 0.869523 0.166010
H19   H     H_    0.452968 0.447675 0.900305 0.193430
H20   H     H_    0.587877 0.647729 0.118851 0.164513
H21   H     H_    0.466452 0.430172 0.104828 0.205605
H22   H     H_    0.919065 0.213690 0.660538 0.175883
H23   H     H_    0.078671 0.212420 0.657428 0.188122
H24   H     H_    0.915604 0.781590 0.343054 0.175893
N1    N     N_2   0.500970 0.501330 0.852150 -0.181731
N2    N     N_2   0.500990 0.501360 0.147810 -0.181401
O1    O     O_R   0.499990 0.319060 0.613040 -0.547856
O2    O     O_3   0.232939 0.723840 0.454520 -0.606339
O3    O     O_R   0.500010 0.319100 0.386900 -0.603622
O4    O     O_R   0.367830 0.499950 0.613080 -0.615594
O5    O     O_R   0.367860 0.499990 0.386940 -0.579446
O6    O     O_R   0.499990 0.680900 0.613100 -0.612028
O7    O     O_R   0.500010 0.680940 0.386960 -0.610386
O8    O     O_R   0.632140 0.500010 0.613060 -0.596987
O9    O     O_R   0.632170 0.500050 0.386920 -0.631414
O10   O     O_3   0.764514 0.280769 0.578821 -0.638999
Zn1   Zn    Zn3+2 0.499980 0.499970 0.650990 1.019663
Zn2   Zn    Zn3+2 0.500020 0.500030 0.349010 1.004502

loop_
_geom_bond_atom_site_label_1
_geom_bond_atom_site_label_2
_ccdc_geom_bond_type
C21   H6    S    
C14   O8    A    
O9    Zn2   S    
C2    C28   A    
C26   H15   S    
C24   H11   S    
C4    O4    A    
C25   C26   S    
C5    O2    S    
C15   H1    S    
C15   C16   A    
C1    C9    S    
C31   C32   A    
C6    H2    S    
Br3   C2    S    
N1    Zn1   S    
C28   C29   A    
O8    Zn1   S    
C29   C30   A    
C21   C22   S    
Br4   C31   S    
C22   H8    S    
H21   N2    S    
O5    Zn2   S    
C25   H13   S    
C17   C18   A    
C20   C21   S    
C13   O7    A    
C8    C9    D    
O4    Zn1   S    
C24   H10   S    
C7    H12   S    
C2    C3    A    
Br1   C8    S    
C6    C8    S    
C25   H14   S    
C12   C15   A    
C12   C32   A    
H19   N1    S    
C19   C29   A    
C11   H20   S    
C24   C25   S    
C10   H18   S    
C11   N2    D    
C22   H7    S    
C12   C19   A    
C14   C16   S    
C18   C23   A    
C5    C30   A    
C26   H17   S    
C3    C4    S    
C6    C7    D    
C17   O10   S    
C23   C27   A    
C24   O2    S    
C1    O1    A    
O7    Zn2   S    
C20   H3    S    
C16   C17   A    
C20   O10   S    
C4    O5    A    
C1    O3    A    
C30   C31   A    
C27   H23   S    
C14   O9    A    
C3    C5    A    
Br2   C9    S    
C26   H16   S    
C10   C11   S    
N2    Zn2   S    
C13   O6    A    
C21   H5    S    
O1    Zn1   S    
C22   H9    S    
C20   H4    S    
O6    Zn1   S    
C18   C19   A    
C10   N1    D    
C7    C13   S    
O3    Zn2   S    
C27   C28   A    
C32   H24   S    
C23   H22   S    
