data_mof_unit_28855.cif
_audit_creation_date              2012-12-11T14:27:10-0500
_audit_creation_method            fapswitch 2.2
_symmetry_space_group_name_H-M    P1
_symmetry_Int_Tables_number       1
_space_group_crystal_system       triclinic
_cell_length_a                    15.12299
_cell_length_b                    14.986134
_cell_length_c                    14.97702
_cell_angle_alpha                 110.026175
_cell_angle_beta                  109.694261
_cell_angle_gamma                 108.899628
_cell_volume                      2606.07199661

loop_
_atom_site_label
_atom_site_type_symbol
_atom_type_description
_atom_site_fract_x
_atom_site_fract_y
_atom_site_fract_z
_atom_type_partial_charge
C1    C     C_R   0.960078 0.776035 0.057853 -0.257731
C2    C     C_R   0.676233 0.211058 0.673986 0.131996
C3    C     C_R   0.020522 0.495766 0.679857 -0.074092
C4    C     C_R   0.700238 0.501455 0.063834 0.086722
C5    C     C_R   0.063863 0.594199 0.313754 -0.140329
C6    C     C_R   0.224476 0.409075 0.953829 -0.057100
C7    C     C_R   0.296183 0.802444 0.207728 -0.130320
C8    C     C_R   0.962437 0.235827 0.049615 -0.117390
C9    C     C_R   0.056727 0.239518 0.962890 -0.142298
C10   C     C_R   0.205422 0.803016 0.297948 -0.131442
C11   C     C_R   0.966949 0.412190 0.225452 -0.134760
C12   C     C_R   0.777938 0.240888 0.685337 -0.143737
C13   C     C_R   0.314835 0.592634 0.052245 -0.128376
C14   C     C_R   0.046817 0.504797 0.326711 0.103196
C15   C     C_R   0.326083 0.500587 0.025363 0.055403
C16   C     C_R   0.296061 0.866139 0.299042 0.128813
C17   C     C_R   0.037534 0.209290 0.033994 0.117986
C18   C     C_3   0.552692 0.520514 0.964784 -0.584594
C19   C     C_3   0.448477 0.520602 0.952345 0.378883
C20   C     C_3   0.521282 0.390009 0.036977 -0.364078
C21   C     C_3   0.629179 0.594854 0.169950 0.534830
C22   C     C_3   0.603227 0.501739 0.060795 0.195690
C23   C     C_R   0.067800 0.588791 0.779832 -0.067134
C24   C     C_3   0.426230 0.500491 0.039873 0.193559
C25   C     C_3   0.417950 0.390235 0.027433 -0.378833
C26   C     C_3   0.522639 0.592871 0.157189 -0.622536
C27   C     C_2   0.378433 0.037271 0.468558 -0.108921
C28   C     C_2   0.370563 0.982934 0.371868 -0.178742
C29   C     C_2   0.481076 0.132160 0.563265 -0.095272
C30   C     C_2   0.575713 0.145835 0.569700 -0.200398
C31   C     C_2   0.063073 0.431179 0.538384 -0.275420
C32   C     C_2   0.025368 0.492745 0.584226 0.542867
C33   C     C_2   0.066397 0.421801 0.439682 -0.112817
C34   C     C_R   0.702507 0.409868 0.004475 -0.153190
C35   C     C_2   0.098653 0.510876 0.431116 -0.082915
C36   C     C_2   0.051729 0.113828 0.134290 -0.115903
C37   C     C_2   0.084268 0.152884 0.076892 -0.086734
C38   C     C_2   0.043529 0.009831 0.118216 -0.287174
C39   C     C_2   0.999237 0.925556 0.016256 0.621406
C40   C     C_R   0.980439 0.406265 0.690709 -0.152765
C41   C     C_R   0.790251 0.592009 0.092532 -0.142262
C42   C     C_R   0.687358 0.244261 0.777439 -0.118788
C43   C     C_R   0.058359 0.784592 0.974057 0.450342
C44   C     C_R   0.998046 0.826290 0.007151 -0.160305
H1    H     H_    0.921652 0.798256 0.104159 0.123711
H2    H     H_    0.203893 0.327043 0.901135 0.113525
H3    H     H_    0.346455 0.831526 0.175768 0.116336
H4    H     H_    0.917713 0.207637 0.085983 0.083116
H5    H     H_    0.100650 0.217447 0.924387 0.100667
H6    H     H_    0.172237 0.832459 0.347556 0.091833
H7    H     H_    0.924933 0.330937 0.210397 0.084257
H8    H     H_    0.376798 0.677585 0.097498 0.094451
H9    H     H_    0.537195 0.455983 0.887146 0.238562
H10   H     H_    0.610016 0.600358 0.980132 0.145893
H11   H     H_    0.458997 0.602279 0.966635 0.072952
H12   H     H_    0.796018 0.222973 0.619659 0.095929
H13   H     H_    0.498528 0.322169 0.957519 0.162652
H14   H     H_    0.350022 0.319149 0.946286 0.189409
H15   H     H_    0.683930 0.674820 0.183110 -0.025135
H16   H     H_    0.532571 0.674391 0.172378 0.127183
H17   H     H_    0.506707 0.579990 0.220388 0.211075
H18   H     H_    0.556895 0.372708 0.102858 0.193274
H19   H     H_    0.404291 0.377723 0.091791 0.169490
H20   H     H_    0.315933 0.002041 0.485941 0.122741
H21   H     H_    0.119798 0.670616 0.801743 0.182855
H22   H     H_    0.429618 0.020389 0.351708 0.135737
H23   H     H_    0.478912 0.178310 0.635569 0.130861
H24   H     H_    0.580353 0.099260 0.499627 0.128573
H25   H     H_    0.081096 0.378298 0.567060 0.148135
H26   H     H_    0.024042 0.340133 0.369006 0.112501
H27   H     H_    0.147677 0.591696 0.504622 0.168047
H28   H     H_    0.012736 0.144996 0.175694 0.115031
H29   H     H_    0.129508 0.124562 0.042720 0.177461
H30   H     H_    0.067592 0.999934 0.189709 0.125502
H31   H     H_    0.650304 0.325630 0.977016 0.093035
H32   H     H_    0.951555 0.322332 0.632701 0.097589
H33   H     H_    0.815919 0.677093 0.141773 0.073632
H34   H     H_    0.624339 0.231095 0.798284 0.094820
H35   H     H_    0.118525 0.679256 0.376787 0.108034
N1    N     N_R   0.993980 0.704500 0.053430 -0.045328
N2    N     N_R   0.154170 0.443650 0.946570 -0.044412
N3    N     N_R   0.207180 0.704490 0.150760 -0.044168
N4    N     N_R   0.948740 0.295490 0.002840 -0.044674
N5    N     N_R   0.006020 0.295500 0.946570 -0.046358
N6    N     N_R   0.149890 0.704480 0.207030 -0.046024
N7    N     N_R   0.946310 0.443620 0.150760 -0.040292
N8    N     N_R   0.209610 0.556360 0.002840 -0.036446
N9    N     N_R   0.850110 0.295520 0.792970 -0.043685
N10   N     N_R   0.053690 0.556380 0.849240 -0.046726
N11   N     N_R   0.790390 0.443640 0.997160 -0.038808
N12   N     N_R   0.998260 0.443670 0.792970 -0.033198
N13   N     N_R   0.845830 0.556350 0.053430 -0.032690
N14   N     N_R   0.792820 0.295510 0.849240 -0.047277
N15   N     N_R   0.051260 0.704510 0.997160 -0.077906
N16   N     N_R   0.001740 0.556330 0.207030 -0.042283
Ni1   Ni    Ni4+2 0.997880 0.629240 0.129060 0.206352
Ni2   Ni    Ni4+2 0.002120 0.370760 0.870940 0.228070
Ni3   Ni    Ni4+2 0.129260 0.629260 0.000000 0.255396
Ni4   Ni    Ni4+2 0.870740 0.370740 0.000000 0.209863
Cl1   Cl    Cl    0.339771 0.422641 0.812895 -0.699193
O1    O     O_3   0.677141 0.578612 0.258085 -0.663304
C45   C     C_3   0.745294 0.678414 0.359956 0.175964
H36   H     H_    0.740830 0.660382 0.424766 0.132635
H37   H     H_    0.718832 0.740406 0.364235 0.083028
C46   C     C_3   0.862611 0.725048 0.384766 -0.324340
H38   H     H_    0.885084 0.659919 0.372042 0.222915
H39   H     H_    0.870750 0.754649 0.327983 0.180670
C47   C     C_3   0.940878 0.820375 0.502589 -0.965569
H40   H     H_    0.919642 0.886376 0.517384 0.261929
H41   H     H_    0.024518 0.853901 0.516623 0.271492
H42   H     H_    0.938449 0.792353 0.561792 0.266488
O2    O     O_3   0.998559 0.558598 0.546796 -0.657549
C48   C     C_3   0.887941 0.526534 0.509505 0.188172
H43   H     H_    0.878530 0.598313 0.515073 0.132696
H44   H     H_    0.858763 0.503201 0.561521 0.097311
C49   C     C_3   0.817213 0.434015 0.388873 -0.322861
H45   H     H_    0.838575 0.464094 0.336704 0.219713
H46   H     H_    0.832150 0.364301 0.379086 0.192669
C50   C     C_3   0.697215 0.393225 0.349470 -0.956452
H47   H     H_    0.672958 0.356791 0.396419 0.259994
H48   H     H_    0.648534 0.329665 0.260815 0.267205
H49   H     H_    0.679756 0.461429 0.360547 0.287915
O3    O     O_3   0.964089 0.935962 0.923474 -0.649139
C51   C     C_3   0.858248 0.849143 0.839556 0.196198
H50   H     H_    0.810893 0.885983 0.809041 0.126463
H51   H     H_    0.813312 0.801454 0.868193 0.072130
C52   C     C_3   0.862025 0.772865 0.743685 -0.252192
H52   H     H_    0.903393 0.821138 0.713793 0.213905
H53   H     H_    0.908455 0.734383 0.771548 0.208784
C53   C     C_3   0.748537 0.682715 0.649028 -1.057629
H54   H     H_    0.705389 0.633872 0.677497 0.283199
H55   H     H_    0.753980 0.627239 0.582103 0.261905
H56   H     H_    0.701666 0.718688 0.615753 0.271367
Cl2   Cl    Cl    0.159747 0.854307 0.952384 -0.714991

loop_
_geom_bond_atom_site_label_1
_geom_bond_atom_site_label_2
_ccdc_geom_bond_type
C16   C28   S    
C21   C26   S    
C10   N6    A    
O1    C45   S    
C27   C29   S    
C42   N14   A    
C3    C23   A    
N16   Ni1   S    
C2    C12   A    
C34   N11   A    
O3    C51   S    
C47   H40   S    
C46   H39   S    
N5    Ni2   S    
C36   C37   D    
C26   H17   S    
C24   C26   S    
C21   H15   S    
C41   H33   S    
C38   C39   D    
C11   C14   A    
C20   C25   S    
N15   Ni3   S    
C11   N7    A    
C8    N4    A    
N13   Ni1   S    
C43   N15   A    
C39   O3    S    
C49   H45   S    
C45   C46   S    
C18   C19   S    
C25   H19   S    
C28   H22   S    
C18   H9    S    
C33   C35   D    
C6    C15   A    
C29   H23   S    
N4    N5    A    
C49   H46   S    
C23   N10   A    
N1    Ni1   S    
C32   O2    S    
N14   Ni4   S    
N9    Ni2   S    
C34   H31   S    
C48   C49   S    
C21   O1    S    
C35   H27   S    
C6    N2    A    
N4    Ni4   S    
C21   C22   S    
N3    Ni3   S    
C3    C32   S    
O2    C48   S    
C5    N16   A    
C50   H48   S    
C46   C47   S    
C4    C34   A    
C12   N9    A    
C9    H5    S    
C24   C25   S    
N7    N16   A    
C14   C35   S    
C7    N3    A    
C40   H32   S    
C7    H3    S    
C43   Cl2   S    
C53   H55   S    
C43   C44   A    
C52   H53   S    
C29   C30   D    
C13   H8    S    
C4    C22   S    
C1    C44   A    
N11   N13   A    
C31   C32   D    
C19   Cl1   S    
C13   N8    A    
C31   C33   S    
C17   C37   S    
N12   Ni2   S    
C45   H37   S    
N7    Ni4   S    
C5    C14   A    
C12   H12   S    
C33   H26   S    
C51   C52   S    
C9    C17   A    
C15   C24   S    
C20   C22   S    
C3    C40   A    
C42   H34   S    
C13   C15   A    
C53   H56   S    
C5    H35   S    
C25   H14   S    
N1    N15   A    
C52   H52   S    
C10   H6    S    
N11   Ni4   S    
C51   H51   S    
C48   H43   S    
C38   H30   S    
C50   H49   S    
C19   H11   S    
C37   H29   S    
N9    N14   A    
C7    C16   A    
C6    H2    S    
C18   C22   S    
N8    Ni3   S    
C50   H47   S    
C49   C50   S    
C39   C44   S    
N3    N6    A    
C46   H38   S    
C8    C17   A    
C47   H42   S    
N10   Ni3   S    
C2    C30   S    
C23   H21   S    
C36   C38   S    
C53   H54   S    
C52   C53   S    
C10   C16   A    
C8    H4    S    
N2    N8    A    
C1    H1    S    
N2    Ni2   S    
C2    C42   A    
N6    Ni1   S    
C47   H41   S    
C19   C24   S    
C40   N12   A    
C20   H18   S    
C45   H36   S    
C11   H7    S    
C27   H20   S    
C18   H10   S    
C9    N5    A    
C31   H25   S    
C41   N13   A    
N10   N12   A    
C4    C41   A    
C27   C28   D    
C1    N1    A    
C20   H13   S    
C26   H16   S    
C30   H24   S    
C36   H28   S    
C51   H50   S    
C48   H44   S    
