data_mof_unit_53340.cif
_audit_creation_date              2012-12-11T15:39:29-0500
_audit_creation_method            fapswitch 2.2
_symmetry_space_group_name_H-M    P1
_symmetry_Int_Tables_number       1
_space_group_crystal_system       triclinic
_cell_length_a                    17.324395
_cell_length_b                    24.387636
_cell_length_c                    14.893907
_cell_angle_alpha                 90.00525
_cell_angle_beta                  125.715422
_cell_angle_gamma                 89.80625
_cell_volume                      5109.15933796

loop_
_atom_site_label
_atom_site_type_symbol
_atom_type_description
_atom_site_fract_x
_atom_site_fract_y
_atom_site_fract_z
_atom_type_partial_charge
C1    C     C_R   0.351377 0.349072 0.906407 -0.144484
C2    C     C_R   0.432577 0.500054 0.630739 0.026912
C3    C     C_R   0.187315 0.862620 0.999074 0.040561
C4    C     C_2   0.345757 0.675325 0.805576 0.422300
C5    C     C_2   0.738131 0.662054 0.196094 0.431609
C6    C     C_2   0.845639 0.175324 0.805523 0.422204
C7    C     C_2   0.238045 0.162100 0.196075 0.431516
C8    C     C_R   0.949059 0.000100 0.274191 0.035437
C9    C     C_R   0.932600 0.000052 0.630750 0.026799
C10   C     C_R   0.174698 0.500727 0.726383 0.019885
C11   C     C_R   0.803191 0.499866 0.368764 0.058353
C12   C     C_R   0.674696 0.000730 0.726370 0.019974
C13   C     C_R   0.303191 0.999868 0.368764 0.058340
C14   C     C_R   0.021385 0.551743 0.626257 0.146213
C15   C     C_R   0.927658 0.551213 0.535522 0.160052
C16   C     C_R   0.521384 0.051747 0.626251 0.146326
C17   C     C_R   0.690313 0.375350 0.092085 -0.126520
C18   C     C_R   0.427656 0.051217 0.535520 0.160057
C19   C     C_R   0.071854 0.502439 0.670523 0.043703
C20   C     C_R   0.882268 0.501488 0.486061 0.039801
C21   C     C_R   0.571854 0.002443 0.670514 0.043679
C22   C     C_R   0.382266 0.001492 0.486060 0.039786
C23   C     C_R   0.019234 0.453530 0.640246 -0.190058
C24   C     C_R   0.924349 0.452971 0.547281 -0.200884
C25   C     C_R   0.519233 0.953534 0.640243 -0.190084
C26   C     C_R   0.424347 0.952975 0.547282 -0.200874
C27   C     C_3   0.939382 0.601631 0.487271 -0.516835
C28   C     C_R   0.851364 0.849078 0.906403 -0.144536
C29   C     C_3   0.041927 0.602107 0.585854 -0.502836
C30   C     C_3   0.439377 0.101636 0.487267 -0.516809
C31   C     C_3   0.541924 0.102113 0.585846 -0.503030
C32   C     C_R   0.275538 0.761900 0.896389 -0.194809
C33   C     C_R   0.844596 0.681164 0.080699 -0.189914
C34   C     C_R   0.775211 0.261732 0.896338 -0.194894
C35   C     C_R   0.344612 0.181185 0.080801 -0.189888
C36   C     C_R   0.729826 0.307957 0.895889 -0.155352
C37   C     C_R   0.393034 0.226783 0.081865 -0.167311
C38   C     C_R   0.230127 0.808111 0.895988 -0.155398
C39   C     C_R   0.190308 0.875343 0.092106 -0.126524
C40   C     C_R   0.893004 0.726771 0.081768 -0.167323
C41   C     C_R   0.757947 0.331711 0.996085 0.144259
C42   C     C_R   0.348063 0.261391 0.989303 0.142756
C43   C     C_R   0.258044 0.831728 0.996207 0.144212
C44   C     C_R   0.847970 0.761424 0.989274 0.142794
C45   C     C_R   0.443549 0.652460 0.090510 -0.093983
C46   C     C_R   0.597904 0.622575 0.907606 -0.109797
C47   C     C_R   0.943520 0.152456 0.090505 -0.093919
C48   C     C_R   0.097892 0.122601 0.907608 -0.109411
C49   C     C_R   0.844674 0.316141 0.094151 -0.181450
C50   C     C_R   0.386289 0.685209 0.998187 -0.071036
C51   C     C_R   0.262383 0.245706 0.891254 -0.178549
C52   C     C_R   0.344655 0.816070 0.094323 -0.181397
C53   C     C_R   0.762198 0.745803 0.891278 -0.178580
C54   C     C_R   0.394181 0.771192 0.093764 -0.143617
C55   C     C_R   0.713208 0.702146 0.891855 -0.150916
C56   C     C_R   0.894181 0.271244 0.093611 -0.143753
C57   C     C_R   0.213367 0.202060 0.891834 -0.150868
C58   C     C_R   0.355632 0.741438 0.995693 0.147157
C59   C     C_R   0.750185 0.672932 0.989989 0.156852
C60   C     C_R   0.855490 0.241393 0.995616 0.147165
C61   C     C_R   0.685119 0.640022 0.998885 -0.078553
C62   C     C_R   0.250236 0.172922 0.990027 0.156839
C63   C     C_R   0.390443 0.549799 0.462400 -0.167708
C64   C     C_R   0.392895 0.549792 0.371160 -0.167116
C65   C     C_R   0.890453 0.049796 0.462405 -0.167727
C66   C     C_R   0.892894 0.049789 0.371158 -0.167112
C67   C     C_R   0.405134 0.500161 0.333333 0.141396
C68   C     C_R   0.399252 0.500131 0.515139 0.143950
C69   C     C_R   0.905133 0.000159 0.333333 0.141401
C70   C     C_R   0.899272 0.000128 0.515150 0.143966
C71   C     C_R   0.393129 0.450549 0.371257 -0.165358
C72   C     C_R   0.886229 0.185189 0.998170 -0.071022
C73   C     C_R   0.390712 0.450510 0.462516 -0.165122
C74   C     C_R   0.893134 0.950547 0.371259 -0.165357
C75   C     C_R   0.890730 0.950507 0.462526 -0.165105
C76   C     C_R   0.480137 0.454103 0.248339 -0.126728
C77   C     C_R   0.449358 0.454525 0.695077 -0.141272
C78   C     C_R   0.980136 0.954103 0.248337 -0.126728
C79   C     C_R   0.949378 0.954523 0.695088 -0.141251
C80   C     C_R   0.232777 0.546048 0.756619 -0.059585
C81   C     C_R   0.753501 0.545036 0.305402 -0.157966
C82   C     C_R   0.732776 0.046050 0.756602 -0.059690
C83   C     C_R   0.185106 0.140053 0.998894 -0.078728
C84   C     C_R   0.253503 0.045038 0.305398 -0.157899
C85   C     C_R   0.480135 0.545991 0.248410 -0.118277
C86   C     C_R   0.449344 0.545512 0.695061 -0.100052
C87   C     C_R   0.980134 0.045990 0.248409 -0.118265
C88   C     C_R   0.949359 0.045511 0.695067 -0.099966
C89   C     C_R   0.230822 0.454453 0.749949 -0.125332
C90   C     C_R   0.756044 0.454287 0.304582 -0.129420
C91   C     C_R   0.730820 0.954455 0.749943 -0.125355
C92   C     C_R   0.256042 0.954289 0.304585 -0.129413
C93   C     C_R   0.360699 0.653686 0.907623 -0.023424
C94   C     C_R   0.449061 0.500101 0.274194 0.035448
C95   C     C_R   0.685552 0.630583 0.092000 0.007998
C96   C     C_R   0.860665 0.153674 0.907614 -0.023480
C97   C     C_R   0.185530 0.130608 0.092004 0.007980
C98   C     C_R   0.442159 0.347653 0.089966 -0.139072
C99   C     C_R   0.597188 0.376289 0.907116 -0.125717
C100  C     C_R   0.942142 0.847657 0.089964 -0.139074
C101  C     C_R   0.097192 0.876254 0.907135 -0.125676
C102  C     C_R   0.379741 0.317038 0.996355 0.052554
C103  C     C_R   0.687302 0.362644 0.999031 0.040551
C104  C     C_R   0.879708 0.817052 0.996348 0.052553
H1    H     H_    0.315521 0.335920 0.821642 0.089400
H2    H     H_    0.091131 0.594576 0.562076 0.216472
H3    H     H_    0.398115 0.137055 0.485882 0.209240
H4    H     H_    0.591123 0.094582 0.562063 0.216414
H5    H     H_    0.239963 0.739636 0.819606 0.102000
H6    H     H_    0.878213 0.654941 0.152810 0.104830
H7    H     H_    0.739503 0.239358 0.819652 0.101891
H8    H     H_    0.378183 0.155000 0.152961 0.104794
H9    H     H_    0.665556 0.319734 0.817624 0.107577
H10   H     H_    0.462030 0.236622 0.156395 0.113035
H11   H     H_    0.165990 0.819996 0.817698 0.107611
H12   H     H_    0.748864 0.369401 0.177669 0.094920
H13   H     H_    0.962051 0.736576 0.156251 0.113062
H14   H     H_    0.870278 0.335437 0.172250 0.112931
H15   H     H_    0.226457 0.270520 0.817094 0.108363
H16   H     H_    0.370140 0.835268 0.172463 0.112875
H17   H     H_    0.726206 0.770672 0.817188 0.108379
H18   H     H_    0.457362 0.757306 0.171377 0.119146
H19   H     H_    0.642147 0.696012 0.818190 0.108506
H20   H     H_    0.957488 0.257429 0.171188 0.119260
H21   H     H_    0.142361 0.195880 0.818101 0.108484
H22   H     H_    0.391050 0.588943 0.496765 0.112654
H23   H     H_    0.815499 0.835922 0.821638 0.089439
H24   H     H_    0.395187 0.588903 0.338715 0.109831
H25   H     H_    0.891059 0.088940 0.496769 0.112653
H26   H     H_    0.895179 0.088901 0.338707 0.109837
H27   H     H_    0.395610 0.411441 0.338900 0.112093
H28   H     H_    0.391575 0.411350 0.496998 0.110227
H29   H     H_    0.895614 0.911438 0.338901 0.112107
H30   H     H_    0.891599 0.911346 0.497012 0.110238
H31   H     H_    0.487050 0.665801 0.175634 0.117911
H32   H     H_    0.571903 0.624081 0.821988 0.103438
H33   H     H_    0.986995 0.165807 0.175624 0.117929
H34   H     H_    0.248851 0.869415 0.177698 0.094896
H35   H     H_    0.071886 0.124108 0.821989 0.103398
H36   H     H_    0.469765 0.411566 0.258200 0.096494
H37   H     H_    0.430475 0.412645 0.667205 0.089575
H38   H     H_    0.969766 0.911565 0.258200 0.096500
H39   H     H_    0.930505 0.912641 0.667221 0.089596
H40   H     H_    0.214475 0.588228 0.756969 0.125564
H41   H     H_    0.758209 0.585311 0.337367 0.159961
H42   H     H_    0.714474 0.088233 0.756931 0.125355
H43   H     H_    0.258216 0.085314 0.337358 0.159977
H44   H     H_    0.469752 0.588543 0.258443 0.092566
H45   H     H_    0.930981 0.593929 0.408380 0.196020
H46   H     H_    0.430727 0.587491 0.667215 0.125433
H47   H     H_    0.969753 0.088542 0.258446 0.092572
H48   H     H_    0.930747 0.087489 0.667218 0.125555
H49   H     H_    0.209116 0.412109 0.737901 0.098381
H50   H     H_    0.766407 0.412361 0.333054 0.086891
H51   H     H_    0.709111 0.912111 0.737896 0.098371
H52   H     H_    0.266403 0.912364 0.333063 0.086884
H53   H     H_    0.486614 0.332898 0.174288 0.088623
H54   H     H_    0.568788 0.372406 0.821050 0.093859
H55   H     H_    0.986583 0.832899 0.174285 0.088642
H56   H     H_    0.059783 0.637985 0.640764 0.192791
H57   H     H_    0.068790 0.872333 0.821073 0.093835
H58   H     H_    0.053598 0.414762 0.677987 0.126671
H59   H     H_    0.889216 0.413824 0.516848 0.125854
H60   H     H_    0.553597 0.914766 0.677984 0.126663
H61   H     H_    0.389213 0.913829 0.516851 0.125850
H62   H     H_    0.354300 0.718659 0.797385 0.026819
H63   H     H_    0.808351 0.678038 0.231289 0.015280
H64   H     H_    0.853800 0.218695 0.797134 0.026926
H65   H     H_    0.308210 0.178159 0.231234 0.015344
H66   H     H_    0.430973 0.093936 0.408374 0.196023
H67   H     H_    0.559782 0.137990 0.640759 0.192733
H68   H     H_    0.898119 0.637050 0.485882 0.209267
N1    N     N_R   0.394180 0.396910 0.943210 -0.039435
N2    N     N_R   0.474350 0.471570 0.793850 -0.044308
N3    N     N_R   0.025650 0.971570 0.206150 -0.043397
N4    N     N_R   0.974350 0.971570 0.793850 -0.044325
N5    N     N_R   0.319480 0.528420 0.793810 -0.021438
N6    N     N_R   0.680520 0.528420 0.206190 -0.041826
N7    N     N_R   0.819480 0.028420 0.793810 -0.021406
N8    N     N_R   0.180520 0.028420 0.206190 -0.041820
N9    N     N_R   0.525640 0.528390 0.206120 -0.039030
N10   N     N_R   0.474360 0.528390 0.793880 -0.035075
N11   N     N_R   0.025640 0.028390 0.206120 -0.039028
N12   N     N_R   0.605820 0.396910 0.056790 -0.041332
N13   N     N_R   0.974360 0.028390 0.793880 -0.035045
N14   N     N_R   0.319490 0.471590 0.793840 -0.048226
N15   N     N_R   0.680510 0.471590 0.206160 -0.043681
N16   N     N_R   0.819490 0.971590 0.793840 -0.048227
N17   N     N_R   0.180510 0.971590 0.206160 -0.043693
N18   N     N_R   0.394130 0.603080 0.943110 -0.049971
N19   N     N_R   0.605870 0.603080 0.056890 -0.040278
N20   N     N_R   0.894130 0.103080 0.943110 -0.049885
N21   N     N_R   0.105870 0.103080 0.056890 -0.040279
N22   N     N_R   0.450990 0.396900 0.056840 -0.039603
N23   N     N_R   0.894180 0.896910 0.943210 -0.039431
N24   N     N_R   0.549010 0.396900 0.943160 -0.041330
N25   N     N_R   0.950990 0.896900 0.056840 -0.039603
N26   N     N_R   0.049010 0.896900 0.943160 -0.041333
N27   N     N_R   0.105820 0.896910 0.056790 -0.041337
N28   N     N_R   0.450950 0.603070 0.056740 -0.052055
N29   N     N_R   0.549050 0.603070 0.943260 -0.043569
N30   N     N_R   0.950950 0.103070 0.056740 -0.052044
N31   N     N_R   0.049050 0.103070 0.943260 -0.043453
N32   N     N_R   0.525650 0.471570 0.206150 -0.043390
Ni1   Ni    Ni4+2 0.434860 0.434850 0.869700 0.207291
Ni2   Ni    Ni4+2 0.565140 0.434850 0.130300 0.204449
Ni3   Ni    Ni4+2 0.934860 0.934850 0.869700 0.207301
Ni4   Ni    Ni4+2 0.065140 0.934850 0.130300 0.204435
Ni5   Ni    Ni4+2 0.565130 0.565140 0.130240 0.255304
Ni6   Ni    Ni4+2 0.434870 0.565140 0.869760 0.273909
Ni7   Ni    Ni4+2 0.065130 0.065140 0.130240 0.255361
Ni8   Ni    Ni4+2 0.934870 0.065140 0.869760 0.274039
O1    O     O_2   0.327599 0.644609 0.730994 -0.615434
O2    O     O_2   0.700193 0.672940 0.241899 -0.607107
O3    O     O_2   0.827867 0.144584 0.731136 -0.615405
O4    O     O_2   0.200098 0.172927 0.241891 -0.607155

loop_
_geom_bond_atom_site_label_1
_geom_bond_atom_site_label_2
_ccdc_geom_bond_type
C99   C103  A    
C91   N16   A    
N1    Ni1   S    
C26   H61   S    
C77   N2    A    
C55   C59   A    
C30   H3    S    
C27   C29   S    
C89   N14   A    
C12   C91   A    
C100  H55   S    
C85   H44   S    
C32   C58   A    
N30   Ni7   S    
C62   C83   S    
N2    N10   A    
C44   C104  S    
C75   H30   S    
N18   N28   A    
C57   C62   A    
N16   Ni3   S    
C93   N18   A    
C11   C81   A    
C45   N28   A    
C13   C84   A    
C3    C43   S    
C8    C69   S    
C16   C21   A    
C56   H20   S    
N4    Ni3   S    
C35   C37   A    
C81   N6    A    
C2    C68   S    
N8    N17   A    
C78   H38   S    
C9    C88   A    
C87   N11   A    
C30   C31   S    
C43   C52   A    
N21   Ni7   S    
C66   C69   A    
C90   N15   A    
C60   C72   S    
C25   H60   S    
N11   Ni7   S    
C65   C70   A    
C74   H29   S    
N10   Ni6   S    
C28   N23   A    
N12   Ni2   S    
C98   N22   A    
N9    Ni5   S    
C9    C79   A    
C97   N21   A    
C37   C42   A    
C84   N8    A    
C30   H66   S    
C39   N27   A    
C76   C94   A    
C89   H49   S    
C44   C53   A    
N17   Ni4   S    
C46   N29   A    
N20   Ni8   S    
C6    O3    D    
C20   C24   A    
C10   C89   A    
C64   H24   S    
C80   H40   S    
C82   N7    A    
C67   C94   S    
C51   H15   S    
C23   C24   A    
N26   N27   A    
C18   C30   S    
C32   C38   A    
C90   H50   S    
C67   C71   A    
C7    O4    D    
N14   Ni1   S    
C28   H23   S    
C95   N19   A    
C42   C51   A    
C23   H58   S    
C100  N25   A    
C3    C101  A    
C53   C55   A    
C40   H13   S    
C54   H18   S    
C73   H28   S    
C3    C39   A    
C27   H45   S    
C87   H47   S    
C8    C78   A    
C34   H7    S    
C88   H48   S    
C36   C41   A    
N24   Ni1   S    
N3    Ni4   S    
C36   H9    S    
C42   C102  S    
C41   C49   A    
C5    C95   S    
C52   C54   A    
C29   H56   S    
C6    H64   S    
C1    C102  A    
C76   H36   S    
C15   C20   A    
N22   Ni2   S    
C55   H19   S    
C11   C20   S    
C45   H31   S    
C33   C40   A    
C59   C61   S    
C32   H5    S    
C46   C61   A    
C50   C58   S    
C64   C67   A    
C34   C60   A    
N4    N13   A    
C9    C70   S    
C74   C75   A    
C71   C73   A    
C10   C80   A    
C101  N26   A    
C14   C19   A    
C37   H10   S    
C100  C104  A    
C68   C73   A    
C98   C102  A    
C71   H27   S    
C99   N24   A    
N5    N14   A    
C41   C103  S    
N6    Ni5   S    
C16   C31   S    
C72   C96   A    
N5    Ni6   S    
N8    Ni7   S    
C19   C23   A    
C91   H51   S    
C79   H39   S    
N2    Ni1   S    
C85   C94   A    
C28   C104  A    
C15   C27   S    
C49   H14   S    
C48   N31   A    
C98   H53   S    
C10   C19   S    
C1    N1    A    
C47   H33   S    
C61   C95   A    
N13   Ni8   S    
C12   C82   A    
C69   C74   A    
C92   H52   S    
C12   C21   S    
N19   Ni5   S    
C51   C57   A    
N6    N15   A    
C52   H16   S    
N18   Ni6   S    
C16   C18   A    
C88   N13   A    
N32   Ni2   S    
C6    C96   S    
C7    H65   S    
C13   C92   A    
C22   C26   A    
C78   N3    A    
C29   H2    S    
N9    N32   A    
C82   H42   S    
C14   C29   S    
C31   H4    S    
N29   Ni6   S    
N1    N22   A    
C92   N17   A    
N3    N11   A    
C54   C58   A    
C84   H43   S    
C21   C25   A    
C63   C68   A    
C85   N9    A    
C4    O1    D    
C7    C97   S    
C48   H35   S    
N26   Ni3   S    
C18   C22   A    
C79   N4    A    
C63   C64   A    
C65   H25   S    
C76   N32   A    
C50   C93   A    
N7    N16   A    
C49   C56   A    
C81   H41   S    
N28   Ni5   S    
N21   N31   A    
C48   C83   A    
C8    C87   A    
C80   N5    A    
C96   N20   A    
C86   H46   S    
C25   C26   A    
C38   C43   A    
C2    C77   A    
N12   N24   A    
C57   H21   S    
C38   H11   S    
C11   C90   A    
C31   H67   S    
C45   C50   A    
C17   N12   A    
C5    O2    D    
N7    Ni8   S    
N15   Ni2   S    
C101  H57   S    
N27   Ni4   S    
C4    H62   S    
C13   C22   S    
C2    C86   A    
C35   C62   A    
C34   C36   A    
C5    H63   S    
C17   C103  A    
N31   Ni8   S    
C77   H37   S    
C47   C72   A    
C39   H34   S    
C63   H22   S    
C46   H32   S    
C4    C93   S    
C24   H59   S    
C56   C60   A    
C40   C44   A    
N23   Ni3   S    
C47   N30   A    
C33   C59   A    
C65   C66   A    
C83   C97   A    
C99   H54   S    
C70   C75   A    
C86   N10   A    
N20   N30   A    
C14   C15   A    
N25   Ni4   S    
C53   H17   S    
C33   H6    S    
N19   N29   A    
N23   N25   A    
C27   H68   S    
C35   H8    S    
C17   H12   S    
C1    H1    S    
C66   H26   S    
