data_mof_unit_18709.cif
_audit_creation_date              2013-03-05T16:12:18-0500
_audit_creation_method            fapswitch 2.2
_symmetry_space_group_name_H-M    P1
_symmetry_Int_Tables_number       1
_space_group_crystal_system       triclinic
_cell_length_a                    8.235786
_cell_length_b                    16.485591
_cell_length_c                    27.064973
_cell_angle_alpha                 71.481205
_cell_angle_beta                  96.700642
_cell_angle_gamma                 95.988338
_cell_volume                      3451.7448074

loop_
_atom_site_label
_atom_site_type_symbol
_atom_site_description
_atom_site_fract_x
_atom_site_fract_y
_atom_site_fract_z
_atom_type_partial_charge
P1    P     P_3+3 0.610630 0.953360 0.619150 0.546662
O1    O     O_2   0.431310 0.922990 0.623550 -0.344259
O2    O     O_3   0.663280 0.983100 0.563360 -0.416048
O3    O     O_3   0.126250 0.812630 0.574830 -0.336129
O4    O     O_2   0.308039 0.760391 0.665066 -0.382024
O5    O     O_3   0.626513 0.042082 0.642231 -0.505753
O6    O     O_3   0.037962 0.663475 0.655150 -0.629708
H1    H     H_    0.263777 0.619529 0.653074 0.097501
C1    C     C_3   0.075154 0.519400 0.659362 -0.975348
H2    H     H_    0.151542 0.479211 0.646799 0.283188
H3    H     H_    0.084520 0.499324 0.702783 0.254822
P2    P     P_3+3 0.057260 0.861390 0.437850 0.526478
P3    P     P_3+3 0.507428 0.698493 0.535257 0.519015
O7    O     O_2   0.229950 0.835370 0.450810 -0.350827
O8    O     O_3   0.517580 0.797570 0.545130 -0.379037
O9    O     O_2   0.348503 0.691033 0.499988 -0.289381
O10   O     O_3   0.037679 0.904509 0.369646 -0.522385
O11   O     O_3   0.478194 0.620526 0.595310 -0.495716
C2    C     C_3   0.625775 0.616519 0.627572 0.189419
H4    H     H_    0.652170 0.676643 0.638354 0.080088
H5    H     H_    0.730111 0.606863 0.607969 0.046229
C3    C     C_3   0.611341 0.541000 0.677626 -0.079207
H6    H     H_    0.726246 0.541562 0.703441 0.163519
H7    H     H_    0.508243 0.547978 0.698678 0.118835
C4    C     C_3   0.599686 0.886066 0.392399 0.362510
H8    H     H_    0.729769 0.893746 0.406364 0.093804
H9    H     H_    0.522428 0.869367 0.425657 0.133480
C5    C     C_3   0.575782 0.813772 0.367973 -0.815587
H10   H     H_    0.658337 0.826897 0.336255 0.257302
H11   H     H_    0.603702 0.751877 0.397714 0.212762
H12   H     H_    0.446670 0.808239 0.351460 0.292645
Ba1   Ba    Ba6+2 0.337820 0.939830 0.518500 1.626075
C6    C     C_3   0.587560 0.115895 0.601174 0.360509
H13   H     H_    0.463247 0.106865 0.582725 0.092580
H14   H     H_    0.675597 0.131185 0.571067 0.142776
C7    C     C_3   0.596099 0.190549 0.623216 -0.792112
H15   H     H_    0.512724 0.175827 0.654823 0.275313
H16   H     H_    0.559370 0.249341 0.592116 0.211103
H17   H     H_    0.723353 0.202478 0.639418 0.258669
C8    C     C_3   0.127053 0.983707 0.354069 0.421849
H18   H     H_    0.252791 0.979724 0.373657 0.095047
H19   H     H_    0.063598 0.032765 0.363162 0.082813
C9    C     C_3   0.137445 0.008587 0.295265 -0.906752
H20   H     H_    0.193317 0.957542 0.285693 0.286139
H21   H     H_    0.214171 0.069096 0.281211 0.210604
H22   H     H_    0.012825 0.017113 0.274535 0.258377
P4    P     P_3+3 0.579040 0.046590 0.380840 0.469624
O12   O     O_2   0.758370 0.077020 0.376420 -0.362387
O13   O     O_3   0.526390 0.016840 0.436620 -0.424111
O14   O     O_3   0.063420 0.187310 0.425160 -0.349008
O15   O     O_3   0.555351 0.961763 0.354165 -0.560055
P5    P     P_3+3 0.693657 0.302577 0.465322 0.493458
O16   O     O_3   0.173250 0.067890 0.537260 -0.392341
O17   O     O_3   0.672100 0.202370 0.454860 -0.339938
O18   O     O_2   0.807837 0.291666 0.516020 -0.383618
O19   O     O_3   0.808144 0.377506 0.417886 -0.570724
Ba2   Ba    Ba6+2 0.851970 0.060110 0.481480 1.609316
P6    P     P_3+3 0.126561 0.768976 0.642622 0.501119
C10   C     C_3   0.133847 0.613787 0.637733 1.024026
H23   H     H_    0.945957 0.508703 0.644632 0.258164
O20   O     O_3   0.016420 0.932050 0.462720 -0.410813
C11   C     C_3   0.107314 0.058536 0.652715 0.209715
H24   H     H_    0.973392 0.065517 0.643260 0.123377
H25   H     H_    0.142134 0.002458 0.642892 0.089906
C12   C     C_3   0.149018 0.044708 0.711156 -0.133274
H26   H     H_    0.129891 0.104002 0.720292 0.157839
H27   H     H_    0.280555 0.031674 0.721462 0.184264
P7    P     P_3+3 0.148787 0.156294 0.558387 0.453188
O21   O     O_2   0.959730 0.164640 0.549160 -0.364742
O22   O     O_3   0.197052 0.133442 0.625806 -0.591752
C13   C     C_3   0.706260 0.426647 0.375690 0.778735
H28   H     H_    0.583373 0.431762 0.387069 -0.115106
C14   C     C_3   0.786585 0.518911 0.357094 0.031368
H29   H     H_    0.758519 0.555433 0.382684 0.099397
H30   H     H_    0.920945 0.517248 0.360551 0.116286
P8    P     P_3+3 0.060643 0.240290 0.357876 0.545098
C15   C     C_3   0.224773 0.388592 0.344079 0.156601
H31   H     H_    0.267271 0.385290 0.307514 0.169377
O23   O     O_2   0.882922 0.223627 0.336036 -0.311431
O24   O     O_3   0.065814 0.349730 0.350469 -0.472688
H32   H     H_    0.310577 0.357906 0.378206 0.072735
C16   C     C_3   0.215747 0.482772 0.339658 -0.099509
H33   H     H_    0.193088 0.486807 0.378482 0.153439
H34   H     H_    0.112292 0.509034 0.310661 0.169478
C17   C     C_R   0.479404 0.260674 0.167309 0.507742
O25   O     O_2   0.466901 0.182554 0.178292 -0.586247
N1    N     N_R   0.444464 0.298693 0.203355 -0.173474
C18   C     C_R   0.457976 0.387273 0.190798 0.591875
C19   C     C_2   0.250989 0.254418 0.271313 -0.237644
C20   C     C_3   0.203656 0.197312 0.324629 0.079774
C21   C     C_1   0.471205 0.140015 0.339876 0.299160
C22   C     C_2   0.507984 0.181616 0.291143 -0.088897
C23   C     C_2   0.395902 0.245662 0.254638 0.180282
C24   C     C_R   0.540025 0.401673 0.104204 -0.066125
C25   C     C_R   0.527562 0.311488 0.117527 -0.051190
C26   C     C_R   0.562795 0.273825 0.080732 -0.075841
C27   C     C_R   0.505027 0.439541 0.141303 -0.092076
C28   C     C_2   0.352025 0.162509 0.360279 -0.379776
H35   H     H_    0.622815 0.172679 0.278211 0.154002
H36   H     H_    0.554602 0.204698 0.089699 0.172318
C29   C     C_2   0.850250 0.850195 0.641734 -0.518084
C30   C     C_R   0.668057 0.466983 0.966300 0.037916
C31   C     C_R   0.644927 0.597196 0.990623 0.040007
C32   C     C_R   0.678343 0.557959 0.953396 0.091422
C33   C     C_R   0.704029 0.431528 0.927822 -0.191485
C34   C     C_R   0.746464 0.483069 0.878672 -0.074097
C35   C     C_R   0.755383 0.572610 0.865223 -0.057268
C36   C     C_R   0.722138 0.610346 0.902606 -0.053267
C37   C     C_R   0.732683 0.700516 0.889153 -0.110851
C38   C     C_R   0.773211 0.751447 0.838572 0.662280
N2    N     N_R   0.800362 0.713627 0.801582 -0.160546
C39   C     C_R   0.795290 0.625114 0.814897 0.551447
C40   C     C_2   0.976307 0.770031 0.729609 -0.091518
C41   C     C_3   0.009879 0.826490 0.674579 0.219661
C42   C     C_1   0.725554 0.864532 0.663498 0.180779
C43   C     C_2   0.696842 0.819708 0.712947 0.273077
C44   C     C_2   0.828859 0.766596 0.748226 0.018021
O26   O     O_2   0.824009 0.591894 0.782736 -0.609810
C45   C     C_R   0.622140 0.414719 0.016757 0.041206
C46   C     C_R   0.587367 0.453985 0.053814 0.089563
C47   C     C_R   0.599127 0.544956 0.041066 0.039639
C48   C     C_R   0.608841 0.323887 0.031687 -0.197760
H37   H     H_    0.074592 0.734688 0.754929 0.182387
H38   H     H_    0.771649 0.451998 0.850881 0.174234
H39   H     H_    0.700391 0.363609 0.934117 0.133401
H40   H     H_    0.632777 0.288603 0.006343 0.132658
O27   O     O_2   0.430521 0.420793 0.222944 -0.525783
C49   C     C_R   0.518069 0.529049 0.128313 -0.034320
H41   H     H_    0.165058 0.298286 0.245681 0.154580
H42   H     H_    0.492417 0.560199 0.156015 0.196107
C50   C     C_R   0.658350 0.688015 0.975756 -0.186286
C51   C     C_R   0.701128 0.738121 0.926373 -0.046144
O28   O     O_2   0.783662 0.829551 0.827415 -0.489930
C52   C     C_R   0.563726 0.580482 0.079568 -0.199758
H43   H     H_    0.636242 0.723298 0.001302 0.131997
H44   H     H_    0.708499 0.807252 0.917342 0.175525
H45   H     H_    0.569595 0.648378 0.073547 0.135846
H46   H     H_    0.359684 0.155247 0.401728 0.154110
H47   H     H_    0.834917 0.849578 0.601394 0.181739
C53   C     C_2   0.377368 0.261502 0.489216 -0.464358
C54   C     C_R   0.803008 0.759312 0.491601 -0.547869
C55   C     C_2   0.208435 0.331775 0.529675 -0.231555
C56   C     C_2   0.241780 0.259769 0.520833 0.320729
C57   C     C_2   0.496428 0.325631 0.482049 0.115610
C58   C     C_3   0.485560 0.393726 0.508090 -0.033326
C59   C     C_3   0.306947 0.414048 0.506085 0.169504
C60   C     C_2   0.595480 0.472698 0.488913 -0.115409
C61   C     C_2   0.604268 0.535181 0.510815 -0.050562
C62   C     C_R   0.849592 0.612889 0.466895 -0.055501
C63   C     C_R   0.715831 0.613129 0.494250 -0.084246
C64   C     C_R   0.955546 0.685666 0.449240 0.240964
C65   C     C_R   0.932023 0.760183 0.462112 0.209981
C66   C     C_R   0.690049 0.688210 0.505206 0.141365
H48   H     H_    0.115441 0.330740 0.555196 0.181610
H49   H     H_    0.389786 0.204984 0.478104 0.158525
H50   H     H_    0.784590 0.816387 0.501215 0.182100
H51   H     H_    0.675531 0.476975 0.459493 0.128626
H52   H     H_    0.524546 0.528299 0.541174 0.198907
O29   O     O_3   0.122441 0.638568 0.582875 -0.680904
H53   H     H_    0.004128 0.637405 0.570743 0.295528
N3    N     N_R   0.046554 0.973931 0.742302 0.237509
O30   O     O_R   0.889748 0.980477 0.740354 -0.341304
O31   O     O_R   0.114220 0.910089 0.777647 -0.342453
N4    N     N_R   0.586537 0.459498 0.666178 0.266035
O32   O     O_R   0.451338 0.440646 0.640842 -0.383115
O33   O     O_R   0.693377 0.402135 0.685163 -0.376802
N5    N     N_R   0.684089 0.386531 0.334116 0.281651
O34   O     O_R   0.580317 0.320370 0.338775 -0.443263
O35   O     O_R   0.774821 0.410740 0.294954 -0.304595
O36   O     O_3   0.731279 0.562291 0.305369 -0.616964
H54   H     H_    0.786998 0.620820 0.297100 0.353921
N6    N     N_R   0.364188 0.534700 0.322082 0.257797
O37   O     O_R   0.400367 0.548055 0.274501 -0.294694
O38   O     O_R   0.436887 0.583355 0.348818 -0.365337
N7    N     N_R   0.545450 0.823569 0.733564 0.265107
O39   O     O_R   0.472393 0.753750 0.762501 -0.409142
O40   O     O_R   0.496045 0.897187 0.731293 -0.314668
N8    N     N_R   0.083128 0.681391 0.418376 0.259086
O41   O     O_R   0.147252 0.608783 0.426814 -0.392865
O42   O     O_R   0.111931 0.743179 0.375797 -0.365049

loop_
_geom_bond_atom_site_label_1
_geom_bond_atom_site_label_2
_geom_bond_distance
_ccdc_geom_bond_type
N1    C18   1.385648 Am   
C14   H29   1.107664 S    
P2    C65   1.838966 S    
C25   C26   1.399750 A    
C53   C56   1.476753 S    
C32   C36   1.436027 A    
O14   P8    1.750317 S    
C52   H45   1.075371 S    
N8    O41   1.301519 A    
C29   H47   1.087534 S    
O13   Ba2   2.926472 S    
O12   Ba2   2.790510 S    
N7    O40   1.300803 A    
C15   H31   1.106262 S    
C43   C44   1.511875 S    
C4    C5    1.522301 S    
C5    H10   1.110654 S    
P5    C57   1.843247 S    
O4    P6    1.549360 D    
C28   H46   1.084685 S    
N4    O32   1.300613 A    
C2    H5    1.110755 S    
C61   C63   1.476592 S    
Ba1   O20   2.902021 S    
O11   C2    1.405884 S    
C18   O27   1.221019 D    
C50   H43   1.075376 S    
C62   C64   1.394235 A    
H1    C10   1.107501 S    
N6    O37   1.300546 A    
C15   O24   1.400605 S    
C34   C35   1.399713 A    
C42   C43   1.342495 D    
N1    C23   1.461682 S    
C6    C7    1.521201 S    
C19   H41   1.085651 S    
C36   C37   1.409414 A    
C11   O22   1.401932 S    
P7    C56   1.826814 S    
O1    Ba1   2.790325 S    
P1    O1    1.514859 D    
C35   C39   1.417278 A    
O16   P7    1.763239 S    
C55   C59   1.498888 S    
C38   N2    1.385226 Am   
C11   H25   1.112129 S    
C30   C33   1.417297 A    
N3    O31   1.300691 A    
C24   C46   1.436129 A    
C8    C9    1.522603 S    
C60   C61   1.334152 D    
N6    O38   1.301099 A    
P7    O21   1.561341 D    
C12   H27   1.112437 S    
C63   C66   1.402749 A    
P2    O10   1.749216 S    
C35   C36   1.409123 A    
P8    O23   1.544215 D    
C47   C52   1.417055 A    
C1    H2    1.109194 S    
O6    P6    1.758032 S    
C18   C27   1.416093 A    
C11   C12   1.527153 S    
P5    O18   1.541670 D    
C51   H44   1.083660 S    
C8    H19   1.110133 S    
C13   N5    1.461646 S    
P2    Ba1   3.430504 S    
C29   C41   1.511659 S    
C14   H30   1.102050 S    
O2    Ba1   2.925640 S    
C10   O29   1.403687 S    
Ba1   Ba2   4.517130 S    
C27   C49   1.399542 A    
O6    C10   1.408514 S    
C58   C60   1.489411 S    
P5    O17   1.750704 S    
C58   C59   1.533530 S    
C17   N1    1.385253 Am   
C16   N6    1.453394 S    
P1    O5    1.751582 S    
P4    O12   1.515187 D    
C53   C57   1.347086 D    
O8    Ba1   2.759184 S    
C2    C3    1.527967 S    
P4    O13   1.531587 S    
C21   C22   1.333055 D    
C13   C14   1.544633 S    
O16   Ba2   2.901184 S    
C64   N8    1.436834 S    
P4    O15   1.751113 S    
C24   C27   1.408640 A    
C4    H8    1.101927 S    
C17   O25   1.222211 D    
C7    H17   1.110802 S    
P1    Ba1   3.372187 S    
N5    O35   1.301905 A    
C1    C10   1.525794 S    
O10   C8    1.395148 S    
C48   H40   1.075483 S    
C9    H20   1.110888 S    
C4    O15   1.395714 S    
C11   H24   1.112269 S    
C49   C52   1.392662 A    
P4    Ba2   3.372501 S    
C3    N4    1.461315 S    
O29   H53   0.991506 S    
C40   H37   1.086109 S    
C15   H32   1.110804 S    
C64   C65   1.416074 A    
O19   C13   1.412485 S    
C37   C51   1.399319 A    
C6    H13   1.102634 S    
C61   H52   1.081771 S    
C55   H48   1.084995 S    
C30   C32   1.423455 A    
C1    H3    1.110699 S    
P3    C66   1.838097 S    
O3    Ba1   2.753983 S    
C40   C44   1.357222 D    
P3    O11   1.746842 S    
C8    H18   1.105304 S    
P2    O7    1.498365 D    
C12   H26   1.111874 S    
C16   H34   1.111036 S    
P3    O8    1.729088 S    
C29   C42   1.318237 D    
C3    H7    1.110743 S    
O3    P6    1.744961 S    
C50   C51   1.393087 A    
C60   H51   1.072737 S    
O2    Ba2   2.746369 S    
Ba1   O16   2.826709 S    
N5    O34   1.295850 A    
C46   C47   1.423501 A    
C40   C41   1.524089 S    
C45   C48   1.417492 A    
C7    H15   1.110228 S    
N2    C39   1.384776 Am   
C55   C56   1.343720 D    
O14   Ba2   2.753270 S    
P4    C21   1.833293 S    
C5    H12   1.110635 S    
P8    O24   1.747364 S    
O7    Ba1   2.901073 S    
C57   C58   1.517631 S    
C49   H42   1.083809 S    
N8    O42   1.299831 A    
C45   C46   1.423057 A    
C54   H50   1.081915 S    
Ba2   O20   2.826138 S    
C33   H39   1.075477 S    
C4    H9    1.109303 S    
C33   C34   1.393619 A    
O5    C6    1.399197 S    
C26   C48   1.393977 A    
N2    C44   1.462269 S    
C1    H23   1.108478 S    
Ba2   O21   2.901581 S    
C2    H4    1.113028 S    
N4    O33   1.300764 A    
C19   C20   1.520600 S    
C13   H28   1.110528 S    
C9    H21   1.105701 S    
N7    O39   1.301162 A    
N3    O30   1.300679 A    
C62   C63   1.398151 A    
C39   O26   1.221215 D    
P2    O20   1.598682 S    
C17   C25   1.418734 A    
C54   C66   1.397589 A    
C15   C16   1.527892 S    
C26   H36   1.083620 S    
C7    H16   1.105861 S    
C22   C23   1.506954 S    
C6    H14   1.105656 S    
C5    H11   1.107231 S    
C43   N7    1.439266 S    
C21   C28   1.318466 D    
C19   C23   1.360852 D    
C24   C25   1.409691 A    
C9    H22   1.110655 S    
Ba1   O13   2.745765 S    
C53   H49   1.083557 S    
C54   C65   1.397730 A    
P7    O22   1.747796 S    
C16   H33   1.111799 S    
O36   H54   0.993012 S    
P3    O9    1.545601 D    
C12   N3    1.455986 S    
C31   C32   1.423061 A    
P6    C41   1.864293 S    
C34   H38   1.083733 S    
C3    H6    1.109845 S    
C38   O28   1.221645 D    
P1    C42   1.840782 S    
P1    O2    1.531839 S    
C14   O36   1.400688 S    
C37   C38   1.417199 A    
C31   C50   1.417352 A    
C20   C28   1.507564 S    
C30   C45   1.433651 A    
P5    O19   1.759332 S    
C22   H35   1.085213 S    
P8    C20   1.877618 S    
O17   Ba2   2.759741 S    
C31   C47   1.432965 A    
