data_mof_unit_44788.cif
_audit_creation_date              2012-12-10T17:00:02-0500
_audit_creation_method            fapswitch 2.2
_symmetry_space_group_name_H-M    P1
_symmetry_Int_Tables_number       1
_space_group_crystal_system       triclinic
_cell_length_a                    23.544075
_cell_length_b                    10.910299
_cell_length_c                    9.673403
_cell_angle_alpha                 90.17999
_cell_angle_beta                  90.110841
_cell_angle_gamma                 89.993083
_cell_volume                      2484.81813466

loop_
_atom_site_label
_atom_site_type_symbol
_atom_type_description
_atom_site_fract_x
_atom_site_fract_y
_atom_site_fract_z
_atom_type_partial_charge
C1    C     C_R   0.497659 0.265436 0.499676 0.873279
C2    C     C_R   0.970321 0.304430 0.357565 0.065227
C3    C     C_R   0.030747 0.303930 0.363629 -0.031670
C4    C     C_R   0.060989 0.405537 0.419805 -0.122171
C5    C     C_R   0.030272 0.507900 0.469284 -0.022536
C6    C     C_R   0.059737 0.611131 0.522396 -0.000283
C7    C     C_R   0.029567 0.713326 0.570358 -0.149357
C8    C     C_R   0.970756 0.713549 0.568805 -0.170157
C9    C     C_R   0.121329 0.409823 0.427985 0.558452
C10   C     C_R   0.119062 0.610165 0.527084 0.526985
C11   C     C_R   0.241636 0.560087 0.377511 0.196408
C12   C     C_R   0.390951 0.497499 0.499833 0.850687
C13   C     C_R   0.300891 0.553734 0.385356 -0.237763
C14   C     C_R   0.328270 0.497360 0.497685 -0.151033
C15   C     C_R   0.295174 0.444927 0.604646 -0.041426
C16   C     C_R   0.235978 0.455741 0.599011 -0.171376
C17   C     C_R   0.209150 0.511636 0.486542 0.312144
C18   C     C_R   0.763821 0.432417 0.578681 -0.137686
C19   C     C_R   0.704430 0.427549 0.585312 0.083518
C20   C     C_R   0.671734 0.506390 0.498952 -0.090401
C21   C     C_R   0.700096 0.588913 0.408340 0.078984
C22   C     C_R   0.759491 0.588848 0.403104 -0.132095
C23   C     C_R   0.504430 0.734385 0.500438 0.821635
C24   C     C_R   0.791210 0.511097 0.487172 0.293287
C25   C     C_2   0.503191 0.933451 0.393735 -0.192967
C26   C     C_2   0.519245 0.864236 0.502389 0.018182
C27   C     C_2   0.507578 0.066807 0.390399 -0.179492
C28   C     C_2   0.491791 0.133779 0.499573 -0.320540
C29   C     C_2   0.469793 0.424292 0.921767 -0.055734
C30   C     C_2   0.467732 0.428273 0.077499 -0.069049
C31   C     C_R   0.609034 0.501185 0.500027 0.791425
C32   C     C_R   0.881410 0.610911 0.522721 0.533377
C33   C     C_R   0.879098 0.409155 0.426989 0.542445
C34   C     C_R   0.939505 0.405320 0.416284 -0.058425
C35   C     C_R   0.970139 0.507765 0.467973 -0.042993
C36   C     C_R   0.940665 0.611424 0.519638 -0.002601
Cu1   Cu    Cu3+1 0.500010 0.500020 0.638630 0.957471
Cu2   Cu    Cu3+1 0.499990 0.499980 0.361370 0.940036
H1    H     H_    0.781472 0.650089 0.333252 0.151794
H2    H     H_    0.483397 0.891196 0.303899 0.158261
H3    H     H_    0.520706 0.109876 0.294533 0.176424
H4    H     H_    0.475701 0.090527 0.592701 0.169338
H5    H     H_    0.444285 0.355264 0.870147 0.188155
H6    H     H_    0.521855 0.567508 0.894346 0.191212
H7    H     H_    0.438302 0.366896 0.128623 0.159530
H8    H     H_    0.529130 0.553084 0.106254 0.192654
H9    H     H_    0.051302 0.793515 0.610276 0.201200
H10   H     H_    0.948936 0.793975 0.607675 0.188836
H11   H     H_    0.325812 0.593864 0.302943 0.169721
H12   H     H_    0.209998 0.415553 0.679411 0.178001
H13   H     H_    0.789404 0.372624 0.642842 0.146882
N1    N     N_R   0.852107 0.510666 0.478208 -0.453787
N2    N     N_R   0.148295 0.510814 0.480162 -0.467131
N3    N     N_2   0.499380 0.498660 0.846910 -0.285628
N4    N     N_2   0.499370 0.498630 0.153040 -0.282904
O1    O     O_R   0.500010 0.321960 0.617040 -0.562589
O2    O     O_2   0.846894 0.312721 0.389346 -0.556924
O3    O     O_2   0.153367 0.314694 0.384898 -0.506791
O4    O     O_2   0.147559 0.707723 0.578163 -0.523541
O5    O     O_R   0.499990 0.321920 0.382900 -0.577033
O6    O     O_R   0.417890 0.499980 0.617100 -0.549578
O7    O     O_R   0.417870 0.499940 0.382950 -0.578586
O8    O     O_R   0.500010 0.678080 0.617100 -0.574208
O9    O     O_R   0.499990 0.678040 0.382960 -0.593148
O10   O     O_R   0.582130 0.500060 0.617050 -0.590579
O11   O     O_R   0.582110 0.500020 0.382900 -0.570994
O12   O     O_2   0.853062 0.709173 0.572412 -0.551390
C37   C     C_3   0.940560 0.199084 0.281627 -0.343381
C38   C     C_3   0.924344 0.095297 0.380072 -0.702105
H14   H     H_    0.962982 0.048225 0.418630 0.252413
H15   H     H_    0.900289 0.130033 0.470540 0.275598
H16   H     H_    0.897759 0.027107 0.324291 0.237198
H17   H     H_    0.903617 0.231685 0.221057 0.239513
H18   H     H_    0.967704 0.159941 0.198966 0.187543
C39   C     C_3   0.678305 0.333322 0.681196 -0.391314
C40   C     C_3   0.654442 0.224225 0.600863 -0.783358
H19   H     H_    0.637324 0.156144 0.674834 0.231970
H20   H     H_    0.619776 0.252949 0.530400 0.238752
H21   H     H_    0.688553 0.179882 0.539258 0.261371
H22   H     H_    0.710800 0.297326 0.754138 0.195765
H23   H     H_    0.645249 0.374882 0.747804 0.225965
C41   C     C_3   0.669306 0.681313 0.318366 -0.387992
C42   C     C_3   0.666192 0.637658 0.168408 -0.787765
H24   H     H_    0.644319 0.547704 0.161408 0.262471
H25   H     H_    0.642109 0.705304 0.105910 0.228171
H26   H     H_    0.709546 0.628596 0.124472 0.245912
H27   H     H_    0.625928 0.701278 0.356535 0.210705
H28   H     H_    0.692182 0.770432 0.322114 0.198033
C43   C     C_3   0.555255 0.911050 0.623304 -0.395556
C44   C     C_3   0.612328 0.844806 0.632627 -0.847254
H29   H     H_    0.606552 0.745058 0.648776 0.259259
H30   H     H_    0.637171 0.860345 0.536897 0.247893
H31   H     H_    0.636989 0.881802 0.721398 0.246710
H32   H     H_    0.565966 0.009165 0.615109 0.223564
H33   H     H_    0.531507 0.898160 0.721332 0.208937
C45   C     C_2   0.061824 0.195976 0.309143 0.928309
O13   O     O_2   0.069990 0.107163 0.383299 -0.572831
O14   O     O_R   0.081958 0.197087 0.173342 -0.746295
H34   H     H_    0.102592 0.118656 0.147910 0.344404
C46   C     C_3   0.214454 0.617900 0.251738 -0.422622
C47   C     C_3   0.219911 0.534533 0.125414 -0.722213
H35   H     H_    0.265305 0.518455 0.100150 0.261717
H36   H     H_    0.198852 0.445180 0.145089 0.284128
H37   H     H_    0.199156 0.578395 0.035038 0.252896
H38   H     H_    0.168748 0.637482 0.268533 0.220204
H39   H     H_    0.235280 0.707240 0.230256 0.215102
C48   C     C_2   0.319891 0.371207 0.718282 0.864718
O15   O     O_2   0.358704 0.299603 0.695043 -0.611644
O16   O     O_R   0.296845 0.379472 0.851093 -0.773238
H40   H     H_    0.316902 0.324221 0.919706 0.327359

loop_
_geom_bond_atom_site_label_1
_geom_bond_atom_site_label_2
_ccdc_geom_bond_type
C24   N1    S    
C31   O11   A    
C4    C9    A    
C47   H35   S    
C30   H7    S    
C19   C20   A    
C40   H21   S    
C7    C8    A    
C33   N1    A    
C46   H38   S    
Cu1   Cu2   S    
C18   C24   A    
C32   C36   A    
C1    O1    A    
C16   H12   S    
C34   C35   A    
C2    C37   S    
C25   H2    S    
C5    C6    A    
C29   N3    D    
C37   H18   S    
C41   H27   S    
C18   C19   A    
C8    C36   A    
C23   C26   S    
C15   C48   S    
C43   H32   S    
C38   H15   S    
C10   N2    A    
C32   N1    A    
C37   C38   S    
Cu1   O1    S    
C11   C17   A    
Cu2   N4    S    
Cu2   O11   S    
C16   C17   A    
Cu1   O10   S    
H8    N4    S    
C1    C28   S    
C48   O15   D    
C3    C45   S    
C39   H22   S    
C2    C34   A    
C23   O8    A    
C47   H36   S    
C21   C22   A    
C29   H5    S    
C48   O16   S    
Cu1   O8    S    
C18   H13   S    
Cu2   O9    S    
C40   H19   S    
C1    O5    A    
C39   H23   S    
C25   C26   D    
C45   O14   S    
C11   C46   S    
C26   C43   S    
C35   C36   A    
C7    H9    S    
C43   H33   S    
C38   H16   S    
C39   C40   S    
C8    H10   S    
C29   C30   S    
C12   O7    A    
C27   H3    S    
C44   H30   S    
C42   H24   S    
C45   O13   D    
C33   C34   A    
C20   C21   A    
C32   O12   S    
Cu2   O5    S    
Cu1   N3    S    
C23   O9    A    
C42   H25   S    
C12   C14   S    
C41   C42   S    
C47   H37   S    
C13   H11   S    
C9    N2    A    
C3    C4    A    
C17   N2    S    
C44   H31   S    
C31   O10   A    
C9    O3    S    
C33   O2    S    
C40   H20   S    
C4    C5    A    
C6    C10   A    
Cu1   O6    S    
C6    C7    A    
C25   C27   S    
C30   N4    D    
C46   H39   S    
C19   C39   S    
C10   O4    S    
C37   H17   S    
O16   H40   S    
C12   O6    A    
C11   C13   A    
C44   H29   S    
C41   H28   S    
C22   H1    S    
C5    C35   A    
C28   H4    S    
C46   C47   S    
C2    C3    A    
C22   C24   A    
C38   H14   S    
H6    N3    S    
C42   H26   S    
C21   C41   S    
O14   H34   S    
C27   C28   D    
C14   C15   A    
C43   C44   S    
C13   C14   A    
C15   C16   A    
Cu2   O7    S    
C20   C31   S    
