data_mof_unit_14987.cif
_audit_creation_date              2012-12-11T14:08:28-0500
_audit_creation_method            fapswitch 2.2
_symmetry_space_group_name_H-M    P1
_symmetry_Int_Tables_number       1
_space_group_crystal_system       triclinic
_cell_length_a                    10.918934
_cell_length_b                    10.957656
_cell_length_c                    18.675493
_cell_angle_alpha                 90.395928
_cell_angle_beta                  89.67928
_cell_angle_gamma                 60.317947
_cell_volume                      1941.10643836

loop_
_atom_site_label
_atom_site_type_symbol
_atom_type_description
_atom_site_fract_x
_atom_site_fract_y
_atom_site_fract_z
_atom_type_partial_charge
C1    C     C_R   0.236362 0.645675 0.608829 0.544836
C2    C     C_2   0.782622 0.153780 0.706491 -0.179339
C3    C     C_2   0.181072 0.662933 0.681597 -0.122231
C4    C     C_R   0.653780 0.622663 0.601248 0.540512
C5    C     C_2   0.195529 0.662063 0.839359 -0.120038
C6    C     C_2   0.192266 0.561291 0.799732 -0.178651
C7    C     C_2   0.220545 0.549163 0.722600 -0.177736
C8    C     C_2   0.653486 0.647018 0.318225 -0.101282
C9    C     C_2   0.627004 0.660587 0.157071 0.003339
C10   C     C_2   0.711465 0.548801 0.196870 -0.202705
C11   C     C_2   0.687749 0.539043 0.272604 -0.175526
C12   C     C_3   0.670769 0.552966 0.800816 -0.253327
C13   C     C_2   0.674477 0.137715 0.333419 -0.114644
C14   C     C_2   0.651790 0.146243 0.179268 -0.100243
C15   C     C_2   0.608956 0.075655 0.221796 -0.148522
C16   C     C_R   0.628126 0.227679 0.601944 0.544871
C17   C     C_2   0.592431 0.100043 0.298261 -0.163559
C18   C     C_2   0.122248 0.680639 0.345100 -0.110539
C19   C     C_2   0.113499 0.691496 0.190717 -0.088216
C20   C     C_2   0.042883 0.804234 0.234412 -0.141914
C21   C     C_2   0.075185 0.799753 0.309667 -0.166852
C22   C     C_R   0.703555 0.101998 0.897523 0.544415
C23   C     C_3   0.700094 0.675111 0.812273 0.054338
C24   C     C_R   0.724212 0.688574 0.888210 0.541960
C25   C     C_R   0.119556 0.706072 0.907502 0.550061
C26   C     C_R   0.675420 0.105641 0.105085 0.543740
C27   C     C_R   0.691047 0.688323 0.094451 0.571879
C28   C     C_R   0.215644 0.651164 0.404587 0.556680
C29   C     C_R   0.086402 0.713559 0.115318 0.557241
C30   C     C_R   0.642604 0.621827 0.393231 0.552134
C31   C     C_R   0.621360 0.222667 0.397413 0.554666
C32   C     C_3   0.573595 0.812701 0.782901 -0.231663
C33   C     C_3   0.553813 0.795938 0.702896 -0.242670
C34   C     C_3   0.669597 0.648767 0.676516 0.058834
C35   C     C_3   0.835286 0.645966 0.769694 -0.220573
C36   C     C_2   0.477357 0.758415 0.178611 0.205019
C37   C     C_3   0.815520 0.634958 0.689217 -0.247419
C38   C     C_3   0.656047 0.535152 0.720512 -0.214212
C39   C     C_2   0.675343 0.155997 0.670471 -0.122608
C40   C     C_2   0.689752 0.166410 0.827765 -0.121251
C41   C     C_2   0.801503 0.121042 0.783334 -0.177128
Cr1   Cr    Cr6+3 0.393010 0.398050 0.501480 1.018747
Cr2   Cr    Cr6+3 0.398820 0.707980 0.501630 1.017075
Cr3   Cr    Cr6+3 0.708140 0.393940 0.496850 1.012749
Cr4   Cr    Cr6+3 0.937950 0.938450 0.008940 1.039688
Cr5   Cr    Cr6+3 0.626180 0.937030 0.994750 1.056033
Cr6   Cr    Cr6+3 0.937790 0.625760 0.001410 1.021522
H1    H     H_    0.592988 0.902651 0.790358 0.141806
H2    H     H_    0.274594 0.443961 0.699474 0.158033
H3    H     H_    0.233745 0.728034 0.816365 0.103372
H4    H     H_    0.474993 0.838035 0.812651 0.126088
H5    H     H_    0.124776 0.768179 0.704617 0.103841
H6    H     H_    0.813499 0.467951 0.176778 0.164318
H7    H     H_    0.715144 0.435445 0.292225 0.158976
H8    H     H_    0.626655 0.751231 0.300046 0.095529
H9    H     H_    0.578469 0.002575 0.199724 0.180019
H10   H     H_    0.501336 0.102581 0.323585 0.162697
H11   H     H_    0.683163 0.219493 0.199874 0.087868
H12   H     H_    0.739726 0.428464 0.703811 0.143128
H13   H     H_    0.770359 0.126326 0.309084 0.096974
H14   H     H_    0.970692 0.907246 0.213067 0.159311
H15   H     H_    0.447066 0.808779 0.694957 0.145092
H16   H     H_    0.078556 0.889514 0.332516 0.156939
H17   H     H_    0.187133 0.587238 0.209816 0.092971
H18   H     H_    0.110105 0.594763 0.323607 0.114703
H19   H     H_    0.559643 0.879528 0.672050 0.115798
H20   H     H_    0.860619 0.731281 0.779911 0.124543
H21   H     H_    0.823766 0.719277 0.660435 0.115376
H22   H     H_    0.758215 0.453676 0.822454 0.137089
H23   H     H_    0.926841 0.545607 0.787331 0.136643
H24   H     H_    0.572118 0.574908 0.829472 0.115863
H25   H     H_    0.552528 0.541640 0.710354 0.124679
H26   H     H_    0.430150 0.733368 0.223376 0.123399
H27   H     H_    0.901496 0.532308 0.668566 0.139257
H28   H     H_    0.907963 0.055423 0.802749 0.151645
H29   H     H_    0.855273 0.180212 0.680240 0.146291
H30   H     H_    0.583800 0.233028 0.807850 0.108653
H31   H     H_    0.608564 0.121314 0.696331 0.103346
H32   H     H_    0.161477 0.489950 0.823145 0.149482
O1    O     O_R   0.507110 0.256280 0.580300 -0.523397
O2    O     O_R   0.837080 0.593860 0.915300 -0.528568
O3    O     O_R   0.064770 0.636080 0.932550 -0.499932
O4    O     O_R   0.280830 0.527190 0.577940 -0.500777
O5    O     O_R   0.068250 0.829200 0.092940 -0.493174
O6    O     O_R   0.799650 0.057040 0.080330 -0.505289
O7    O     O_R   0.586130 0.079760 0.077080 -0.494236
O8    O     O_R   0.627700 0.809630 0.066580 -0.449062
O9    O     O_R   0.816140 0.597180 0.075920 -0.529737
O10   O     O_R   0.045360 0.639170 0.081440 -0.495638
O11   O     O_3   0.833980 0.833750 0.001700 -0.265115
O12   O     O_R   0.524640 0.695370 0.425100 -0.493584
O13   O     O_R   0.261360 0.738990 0.584270 -0.520949
O14   O     O_R   0.532590 0.694780 0.574370 -0.508763
O15   O     O_R   0.744470 0.503750 0.577000 -0.529843
O16   O     O_R   0.698520 0.277230 0.571620 -0.500332
O17   O     O_R   0.498530 0.256920 0.419280 -0.510199
O18   O     O_R   0.272880 0.527780 0.428680 -0.498134
O19   O     O_R   0.252780 0.739630 0.423250 -0.511520
O20   O     O_2   0.404202 0.866377 0.145902 -0.488447
O21   O     O_R   0.735890 0.504390 0.415980 -0.510151
O22   O     O_R   0.690560 0.277820 0.422350 -0.506454
O23   O     O_3   0.499990 0.499990 0.499980 -0.248388
O24   O     O_R   0.089190 0.825870 0.932320 -0.512748
O25   O     O_R   0.819070 0.053960 0.931440 -0.495556
O26   O     O_R   0.607070 0.076440 0.916460 -0.520988
O27   O     O_R   0.647110 0.806550 0.917690 -0.510239

loop_
_geom_bond_atom_site_label_1
_geom_bond_atom_site_label_2
_ccdc_geom_bond_type
C28   O18   A    
C12   H22   S    
C37   H21   S    
Cr1   O1    S    
C18   C21   D    
Cr6   O10   S    
C19   C20   D    
Cr2   O19   S    
C37   H27   S    
C29   O10   A    
C13   H13   S    
C18   H18   S    
C12   C23   S    
Cr1   O17   S    
C31   O22   A    
C35   C37   S    
C3    C7    D    
C8    C11   D    
C5    C6    D    
C2    C41   S    
C31   O17   A    
C34   C37   S    
Cr5   O26   S    
C30   O21   A    
C22   O25   A    
Cr6   O3    S    
C20   H14   S    
C10   H6    S    
Cr4   O24   S    
C2    C39   D    
C35   H23   S    
C33   H15   S    
C9    C36   S    
C23   C24   S    
Cr3   O22   S    
C9    C10   D    
C32   H1    S    
Cr1   O23   S    
C8    H8    S    
C33   H19   S    
C4    C34   S    
C14   H11   S    
C38   H25   S    
C39   H31   S    
C18   C28   S    
C7    H2    S    
C29   O5    A    
C36   H26   S    
Cr1   O18   S    
Cr3   O23   S    
C25   O24   A    
Cr2   O12   S    
C4    O14   A    
C1    C3    S    
Cr4   O6    S    
C24   O2    A    
C32   H4    S    
Cr4   O25   S    
C41   H28   S    
C14   C15   D    
C35   H20   S    
C19   H17   S    
C26   O7    A    
C22   C40   S    
C33   C34   S    
C14   C26   S    
C27   O8    A    
Cr4   O11   S    
C11   H7    S    
C5    C25   S    
C40   C41   D    
C12   H24   S    
C1    O13   A    
C23   C35   S    
C25   O3    A    
Cr6   O11   S    
C4    O15   A    
C5    H3    S    
Cr4   O5    S    
C24   O27   A    
C19   C29   S    
C2    H29   S    
C9    C27   S    
Cr5   O8    S    
C28   O19   A    
C15   C17   S    
C16   O16   A    
C34   C38   S    
C13   C31   S    
Cr1   O4    S    
C23   C32   S    
C30   O12   A    
C3    H5    S    
C6    C7    S    
Cr5   O11   S    
C1    O4    A    
C22   O26   A    
Cr2   O13   S    
C13   C17   D    
C8    C30   S    
Cr6   O9    S    
Cr2   O23   S    
Cr3   O16   S    
C32   C33   S    
Cr3   O21   S    
C6    H32   S    
C26   O6    A    
Cr5   O27   S    
Cr2   O14   S    
C36   O20   D    
Cr6   O2    S    
C12   C38   S    
C27   O9    A    
C15   H9    S    
C21   H16   S    
Cr3   O15   S    
C10   C11   S    
C16   C39   S    
C38   H12   S    
C20   C21   S    
C40   H30   S    
C16   O1    A    
C17   H10   S    
Cr5   O7    S    
