data_mof_unit_50118.cif
_audit_creation_date              2012-12-11T15:37:35-0500
_audit_creation_method            fapswitch 2.2
_symmetry_space_group_name_H-M    P1
_symmetry_Int_Tables_number       1
_space_group_crystal_system       triclinic
_cell_length_a                    17.547375
_cell_length_b                    24.702229
_cell_length_c                    14.85495
_cell_angle_alpha                 89.96513
_cell_angle_beta                  126.40149
_cell_angle_gamma                 90.03532
_cell_volume                      5182.62334191

loop_
_atom_site_label
_atom_site_type_symbol
_atom_type_description
_atom_site_fract_x
_atom_site_fract_y
_atom_site_fract_z
_atom_type_partial_charge
C1    C     C_R   0.831689 0.643820 0.905144 -0.146460
C2    C     C_R   0.158144 0.351275 0.091448 -0.159130
C3    C     C_R   0.159921 0.648180 0.091295 -0.136861
C4    C     C_R   0.817115 0.366650 0.905396 -0.113683
C5    C     C_R   0.314301 0.130529 0.907592 -0.102818
C6    C     C_R   0.652933 0.849764 0.093018 -0.172531
C7    C     C_R   0.656084 0.149586 0.091590 -0.104893
C8    C     C_R   0.311238 0.873577 0.906449 -0.137912
C9    C     C_3   0.422158 0.500011 0.357405 0.026038
C10   C     C_3   0.592217 0.500405 0.543655 0.042167
C11   C     C_3   0.922336 0.999954 0.355214 0.021587
C12   C     C_3   0.093933 0.000295 0.539313 0.043624
C13   C     C_R   0.773172 0.257734 0.946811 -0.282199
C14   C     C_R   0.181307 0.766566 0.051213 -0.280400
C15   C     C_R   0.273239 0.284191 0.040516 -0.306409
C16   C     C_R   0.700700 0.695510 0.945340 -0.309195
C17   C     C_R   0.265537 0.767097 0.940377 -0.293603
C18   C     C_R   0.678128 0.268701 0.044620 -0.277131
C19   C     C_R   0.777164 0.794310 0.053284 -0.311651
C20   C     C_R   0.180177 0.184492 0.960485 -0.299592
C21   C     C_R   0.220322 0.721247 0.936830 0.502273
C22   C     C_R   0.729491 0.311745 0.048030 0.500101
C23   C     C_R   0.835236 0.757741 0.052612 0.500556
C24   C     C_R   0.130174 0.229084 0.954941 0.505710
C25   C     C_R   0.722725 0.214874 0.943749 0.499406
C26   C     C_R   0.226943 0.812920 0.054437 0.505900
C27   C     C_R   0.322776 0.240304 0.044928 0.504698
C28   C     C_R   0.642423 0.732299 0.945799 0.500970
C29   C     C_R   0.178310 0.721342 0.992479 -0.121773
C30   C     C_R   0.776239 0.305412 0.998589 -0.123016
C31   C     C_R   0.796077 0.708509 0.998753 -0.099973
C32   C     C_R   0.178085 0.278455 0.995680 -0.104425
C33   C     C_R   0.674980 0.221075 0.992279 -0.121635
C34   C     C_R   0.268425 0.812664 0.998173 -0.119189
C35   C     C_R   0.275832 0.190327 0.006176 -0.097451
C36   C     C_R   0.681876 0.781277 0.000660 -0.103145
C37   C     C_R   0.888433 0.451224 0.460351 -0.135084
C38   C     C_R   0.897839 0.549304 0.374484 -0.147623
C39   C     C_R   0.897690 0.451306 0.374315 -0.092229
C40   C     C_R   0.888650 0.549234 0.460592 -0.123842
C41   C     C_R   0.606788 0.950987 0.630907 -0.139638
C42   C     C_R   0.610613 0.048938 0.540390 -0.148430
C43   C     C_R   0.610591 0.950944 0.540515 -0.135515
C44   C     C_R   0.606686 0.048937 0.630666 -0.101201
C45   C     C_R   0.914136 0.500329 0.340974 0.128677
C46   C     C_R   0.895799 0.500184 0.512550 0.150474
C47   C     C_R   0.602038 0.999932 0.487493 0.127527
C48   C     C_R   0.593424 0.999971 0.667416 0.126731
C49   C     C_R   0.916314 0.363841 0.093443 -0.072537
C50   C     C_R   0.066150 0.644847 0.903443 -0.029852
C51   C     C_R   0.064097 0.354052 0.903595 -0.071778
C52   C     C_R   0.929845 0.644586 0.093331 -0.093486
C53   C     C_R   0.408077 0.872796 0.094736 -0.071723
C54   C     C_R   0.559515 0.147759 0.904391 -0.045904
C55   C     C_R   0.559306 0.851160 0.906249 -0.105027
C56   C     C_R   0.410259 0.127705 0.096199 -0.025125
C57   C     C_R   0.987553 0.545833 0.256454 -0.101059
C58   C     C_R   0.948479 0.454573 0.693730 -0.115792
C59   C     C_R   0.948555 0.545526 0.693813 -0.071197
C60   C     C_R   0.991144 0.454763 0.261000 -0.076889
C61   C     C_R   0.551415 0.045338 0.306489 -0.122995
C62   C     C_R   0.517886 0.954304 0.749848 -0.098800
C63   C     C_R   0.517640 0.045653 0.749442 -0.080441
C64   C     C_R   0.551159 0.954565 0.306360 -0.081725
C65   C     C_R   0.735979 0.454986 0.703669 -0.117838
C66   C     C_R   0.267735 0.545050 0.245980 -0.039313
C67   C     C_R   0.267697 0.454920 0.246047 -0.067734
C68   C     C_R   0.735721 0.545453 0.705054 -0.126215
C69   C     C_R   0.237406 0.955043 0.701090 -0.117128
C70   C     C_R   0.767624 0.045061 0.245487 -0.044932
C71   C     C_R   0.767563 0.954902 0.245472 -0.074167
C72   C     C_R   0.237154 0.045291 0.702100 -0.132272
C73   C     C_R   0.853158 0.668860 0.999266 0.165943
C74   C     C_R   0.132784 0.325269 0.996027 0.163361
C75   C     C_R   0.137033 0.673022 0.995658 0.151808
C76   C     C_R   0.829940 0.347593 0.999924 0.174065
C77   C     C_R   0.324475 0.145688 0.003477 0.108102
C78   C     C_R   0.625514 0.821818 0.999410 0.188265
C79   C     C_R   0.628453 0.176220 0.996098 0.158197
C80   C     C_R   0.319730 0.857748 0.000828 0.175512
C81   C     C_R   0.960481 0.500318 0.285836 0.052150
C82   C     C_R   0.930241 0.500088 0.629099 0.053780
C83   C     C_R   0.568372 0.999933 0.370853 0.068207
C84   C     C_R   0.548327 0.999979 0.724404 0.050276
C85   C     C_R   0.683338 0.500294 0.649585 0.119172
C86   C     C_R   0.322452 0.499979 0.268991 0.075321
C87   C     C_R   0.185594 0.000225 0.645036 0.121053
C88   C     C_R   0.822240 0.999969 0.268139 0.086103
C89   C     C_3   0.518730 0.456037 0.511716 -0.330075
C90   C     C_3   0.495657 0.544525 0.389177 -0.319825
C91   C     C_3   0.494371 0.454227 0.392698 -0.312188
C92   C     C_3   0.520064 0.546051 0.508267 -0.326732
C93   C     C_3   0.020607 0.956031 0.509041 -0.331726
C94   C     C_3   0.995534 0.044367 0.385244 -0.319981
C95   C     C_3   0.994130 0.954106 0.389025 -0.307318
C96   C     C_3   0.022051 0.045994 0.505325 -0.330800
C97   C     C_3   0.447408 0.501633 0.475175 0.625094
C98   C     C_3   0.568683 0.498760 0.427233 0.624239
C99   C     C_3   0.949629 0.001678 0.473891 0.623991
C100  C     C_3   0.068226 0.998541 0.421861 0.629899
H1    H     H_    0.779825 0.655227 0.818710 0.109663
H2    H     H_    0.203026 0.336220 0.176347 0.116406
H3    H     H_    0.204376 0.663604 0.175903 0.118781
H4    H     H_    0.761922 0.356456 0.819293 0.109044
H5    H     H_    0.259048 0.142069 0.822339 0.105855
H6    H     H_    0.699448 0.836384 0.179041 0.115439
H7    H     H_    0.702326 0.164032 0.176831 0.110823
H8    H     H_    0.254686 0.863977 0.820537 0.113756
H9    H     H_    0.952755 0.347366 0.176638 0.101017
H10   H     H_    0.025624 0.657079 0.816679 0.109438
H11   H     H_    0.024270 0.342085 0.816764 0.118438
H12   H     H_    0.968679 0.658849 0.178517 0.132316
H13   H     H_    0.439509 0.862583 0.180902 0.119969
H14   H     H_    0.516642 0.161214 0.818308 0.100717
H15   H     H_    0.519064 0.838037 0.820106 0.130348
H16   H     H_    0.442295 0.136876 0.182935 0.115114
H17   H     H_    0.980195 0.587353 0.271306 0.093173
H18   H     H_    0.930914 0.413093 0.665768 0.095549
H19   H     H_    0.931048 0.587025 0.665957 0.086819
H20   H     H_    0.990658 0.413843 0.284733 0.091377
H21   H     H_    0.570115 0.086649 0.335240 0.100057
H22   H     H_    0.527639 0.912601 0.738094 0.094451
H23   H     H_    0.526903 0.087314 0.736838 0.117464
H24   H     H_    0.569378 0.913188 0.334872 0.084163
H25   H     H_    0.719790 0.413822 0.673035 0.107509
H26   H     H_    0.291609 0.586521 0.265335 0.101095
H27   H     H_    0.291368 0.413407 0.265057 0.099858
H28   H     H_    0.719308 0.586958 0.676499 0.101724
H29   H     H_    0.221945 0.913849 0.670549 0.113495
H30   H     H_    0.791276 0.086600 0.263834 0.099298
H31   H     H_    0.791002 0.913322 0.263358 0.099741
H32   H     H_    0.221519 0.086716 0.672924 0.105272
H33   H     H_    0.528738 0.420941 0.564483 0.159158
H34   H     H_    0.484969 0.579564 0.335993 0.164638
H35   H     H_    0.482702 0.417749 0.342346 0.166878
H36   H     H_    0.531000 0.582583 0.558180 0.161851
H37   H     H_    0.031344 0.920935 0.562173 0.158708
H38   H     H_    0.983969 0.079384 0.331591 0.167124
H39   H     H_    0.981494 0.917562 0.338399 0.174402
H40   H     H_    0.033786 0.082617 0.555388 0.157805
H41   H     H_    0.811802 0.253661 0.911092 0.215417
H42   H     H_    0.148722 0.765521 0.094435 0.214615
H43   H     H_    0.308316 0.323173 0.070215 0.186998
H44   H     H_    0.672385 0.656613 0.904907 0.187095
H45   H     H_    0.300811 0.766727 0.900234 0.204910
H46   H     H_    0.641329 0.272006 0.082664 0.215404
H47   H     H_    0.805616 0.833387 0.092756 0.182438
H48   H     H_    0.145054 0.145674 0.929079 0.189480
H49   H     H_    0.886341 0.412544 0.492782 0.120928
H50   H     H_    0.901686 0.587966 0.343363 0.120020
H51   H     H_    0.901391 0.412705 0.342976 0.148490
H52   H     H_    0.886744 0.587864 0.493234 0.116182
H53   H     H_    0.604407 0.912359 0.663300 0.117750
H54   H     H_    0.610639 0.087612 0.506452 0.125668
H55   H     H_    0.610607 0.912268 0.506643 0.115676
H56   H     H_    0.604071 0.087583 0.662690 0.158068
N1    N     N_R   0.892620 0.603790 0.941800 -0.049910
N2    N     N_R   0.107380 0.396210 0.058200 -0.052927
N3    N     N_R   0.107380 0.603790 0.058200 -0.052910
N4    N     N_R   0.892620 0.396210 0.941800 -0.048052
N5    N     N_R   0.392620 0.103790 0.941800 -0.050999
N6    N     N_R   0.607380 0.896210 0.058200 -0.051315
N7    N     N_R   0.607380 0.103790 0.058200 -0.053409
N8    N     N_R   0.392620 0.896210 0.941800 -0.046427
N9    N     N_R   0.952210 0.397600 0.057910 -0.053247
N10   N     N_R   0.047790 0.602400 0.942090 -0.056143
N11   N     N_R   0.047790 0.397600 0.942090 -0.053133
N12   N     N_R   0.952210 0.602400 0.057910 -0.053123
N13   N     N_R   0.452210 0.897600 0.057910 -0.056280
N14   N     N_R   0.547790 0.102400 0.942090 -0.053923
N15   N     N_R   0.547790 0.897600 0.942090 -0.053260
N16   N     N_R   0.452210 0.102400 0.057910 -0.049068
N17   N     N_R   0.026300 0.529110 0.206760 -0.043415
N18   N     N_R   0.973700 0.470890 0.793240 -0.045460
N19   N     N_R   0.973700 0.529110 0.793240 -0.045340
N20   N     N_R   0.026300 0.470890 0.206760 -0.046744
N21   N     N_R   0.526300 0.029110 0.206760 -0.048341
N22   N     N_R   0.473700 0.970890 0.793240 -0.043416
N23   N     N_R   0.473700 0.029110 0.793240 -0.049175
N24   N     N_R   0.526300 0.970890 0.206760 -0.045938
N25   N     N_R   0.818530 0.472270 0.792960 -0.045825
N26   N     N_R   0.181470 0.527730 0.207040 -0.047021
N27   N     N_R   0.181470 0.472270 0.207040 -0.047243
N28   N     N_R   0.818530 0.527730 0.792960 -0.046547
N29   N     N_R   0.318530 0.972270 0.792960 -0.045803
N30   N     N_R   0.681470 0.027730 0.207040 -0.049276
N31   N     N_R   0.681470 0.972270 0.207040 -0.048118
N32   N     N_R   0.318530 0.027730 0.792960 -0.047873
Ni1   Ni    Ni4+2 0.934150 0.565840 0.869060 0.220518
Ni2   Ni    Ni4+2 0.065850 0.434160 0.130940 0.236346
Ni3   Ni    Ni4+2 0.065850 0.565840 0.130940 0.247844
Ni4   Ni    Ni4+2 0.934150 0.434160 0.869060 0.234025
Ni5   Ni    Ni4+2 0.434150 0.065840 0.869060 0.230090
Ni6   Ni    Ni4+2 0.565850 0.934160 0.130940 0.225443
Ni7   Ni    Ni4+2 0.565850 0.065840 0.130940 0.243967
Ni8   Ni    Ni4+2 0.434150 0.934160 0.869060 0.242208
O1    O     O_3   0.380732 0.503109 0.498084 -0.742671
H57   H     H_    0.418243 0.504011 0.580751 0.323066
O2    O     O_3   0.637728 0.497284 0.408281 -0.748654
H58   H     H_    0.602167 0.496404 0.325862 0.326845
O3    O     O_3   0.884317 0.003291 0.498918 -0.750958
H59   H     H_    0.922898 0.004208 0.581681 0.318582
O4    O     O_3   0.135576 0.996915 0.400230 -0.728157
H60   H     H_    0.098577 0.995936 0.317625 0.330636
Cl1   Cl    Cl    0.224576 0.663675 0.869471 -0.619577
Cl2   Cl    Cl    0.732661 0.372652 0.111866 -0.663026
Cl3   Cl    Cl    0.954028 0.775746 0.114431 -0.656767
Cl4   Cl    Cl    0.009997 0.221861 0.900233 -0.644768
Cl5   Cl    Cl    0.727143 0.153463 0.886097 -0.670180
Cl6   Cl    Cl    0.230540 0.870036 0.127758 -0.612817
Cl7   Cl    Cl    0.440863 0.250749 0.092374 -0.675515
Cl8   Cl    Cl    0.522648 0.715693 0.880583 -0.624459

loop_
_geom_bond_atom_site_label_1
_geom_bond_atom_site_label_2
_ccdc_geom_bond_type
C16   C28   A    
O4    H60   S    
C14   H42   S    
C10   C85   S    
C61   N21   A    
C25   Cl5   S    
C69   N29   A    
O3    H59   S    
C54   N14   A    
C51   N11   A    
C59   C82   A    
C50   H10   S    
C70   C88   A    
C9    C91   S    
N22   N23   A    
C15   C32   A    
C65   N25   A    
N20   Ni2   S    
C16   C31   A    
C40   C46   A    
N11   Ni4   S    
C40   H52   S    
N12   Ni3   S    
C98   O2    S    
C57   H17   S    
C16   H44   S    
C59   N19   A    
C19   C36   A    
N2    Ni2   S    
C32   C74   S    
C64   N24   A    
N25   Ni4   S    
C6    C78   A    
C52   H12   S    
C11   C95   S    
C96   C99   S    
C39   H51   S    
C70   H30   S    
C63   N23   A    
C22   Cl2   S    
C11   C99   S    
C21   Cl1   S    
C10   C98   S    
N7    N14   A    
C20   C24   A    
N26   N27   A    
C72   N32   A    
C38   C45   A    
C62   C84   A    
N21   Ni7   S    
C34   C80   S    
C46   C82   S    
C20   C35   A    
C90   C92   S    
C26   C34   A    
N6    N15   A    
C6    N6    A    
C10   C89   S    
C50   N10   A    
C9    C97   S    
C20   H48   S    
C60   H20   S    
C47   C83   S    
C89   C91   S    
C3    C75   A    
C93   C99   S    
C69   C87   A    
C53   N13   A    
C39   C45   A    
C23   Cl3   S    
C60   N20   A    
C38   H50   S    
C66   N26   A    
N5    N16   A    
C10   C92   S    
O2    H58   S    
C93   C95   S    
C56   N16   A    
C7    H7    S    
C3    N3    A    
C68   C85   A    
C41   C43   A    
C13   C25   A    
N8    N13   A    
C92   H36   S    
C42   C44   A    
C43   H55   S    
C8    H8    S    
N1    N12   A    
C55   N15   A    
C53   H13   S    
C92   C97   S    
C72   H32   S    
C41   H53   S    
C56   H16   S    
C58   N18   A    
C21   C29   A    
C89   H33   S    
C44   H56   S    
C97   O1    S    
N30   Ni7   S    
C53   C80   A    
C93   H37   S    
N4    Ni4   S    
C52   C73   A    
C8    N8    A    
C37   H49   S    
C55   C78   A    
C95   C100  S    
C33   C79   S    
N29   N32   A    
C5    H5    S    
C27   C35   A    
C64   H24   S    
N22   Ni8   S    
C24   Cl4   S    
C19   H47   S    
C56   C77   A    
C48   C84   S    
C51   C74   A    
C89   C97   S    
C23   C31   A    
C9    C90   S    
C7    N7    A    
C19   C23   A    
C24   C32   A    
C64   C83   A    
C66   C86   A    
N3    Ni3   S    
C9    C86   S    
C30   C76   S    
C60   C81   A    
C13   C30   A    
C15   C27   A    
N7    Ni7   S    
C11   C88   S    
C2    N2    A    
N21   N24   A    
N6    Ni6   S    
C27   Cl7   S    
N9    Ni2   S    
C6    H6    S    
C49   C76   A    
N5    Ni5   S    
C26   Cl6   S    
N4    N9    A    
C14   C26   A    
C94   C96   S    
C58   H18   S    
C67   N27   A    
C51   H11   S    
C57   N17   A    
C11   C94   S    
N32   Ni5   S    
C13   H41   S    
N31   Ni6   S    
C61   C83   A    
C67   H27   S    
C94   H38   S    
C4    C76   A    
C15   H43   S    
N2    N11   A    
C17   C34   A    
C14   C29   A    
C5    C77   A    
N27   Ni2   S    
C1    H1    S    
C62   H22   S    
C72   C87   A    
N24   Ni6   S    
N19   Ni1   S    
C7    C79   A    
C54   C79   A    
N23   Ni5   S    
N17   N20   A    
C3    H3    S    
C68   H28   S    
C68   N28   A    
C67   C86   A    
C59   H19   S    
C22   C30   A    
C12   C87   S    
C42   H54   S    
C18   C22   A    
C49   N9    A    
C45   C81   S    
C61   H21   S    
C71   N31   A    
N15   Ni8   S    
C18   H46   S    
C91   C98   S    
C2    C74   A    
C17   H45   S    
C96   H40   S    
N14   Ni5   S    
C63   H23   S    
N8    Ni8   S    
C65   C85   A    
N13   Ni6   S    
C29   C75   S    
C28   Cl8   S    
C95   H39   S    
N3    N10   A    
C63   C84   A    
N10   Ni1   S    
C1    C73   A    
C5    N5    A    
C35   C77   S    
C58   C82   A    
C62   N22   A    
N30   N31   A    
C49   H9    S    
C37   C39   A    
C36   C78   S    
C50   C75   A    
C52   N12   A    
C38   C40   A    
C4    N4    A    
C55   H15   S    
C90   H34   S    
N25   N28   A    
C54   H14   S    
C1    N1    A    
C100  O4    S    
C41   C48   A    
N17   Ni3   S    
C4    H4    S    
C57   C81   A    
C42   C47   A    
C94   C100  S    
O1    H57   S    
C12   C93   S    
C18   C33   A    
N1    Ni1   S    
C12   C100  S    
C31   C73   S    
C70   N30   A    
C71   H31   S    
C71   C88   A    
C66   H26   S    
C91   H35   S    
C28   C36   A    
C69   H29   S    
N26   Ni3   S    
C25   C33   A    
C8    C80   A    
C2    H2    S    
N28   Ni1   S    
C12   C96   S    
N16   Ni7   S    
N29   Ni8   S    
C65   H25   S    
C37   C46   A    
C43   C47   A    
C90   C98   S    
C99   O3    S    
C44   C48   A    
N18   Ni4   S    
N18   N19   A    
C17   C21   A    
