data_mof_unit_59818.cif
_audit_creation_date              2012-12-11T14:50:45-0500
_audit_creation_method            fapswitch 2.2
_symmetry_space_group_name_H-M    P1
_symmetry_Int_Tables_number       1
_space_group_crystal_system       triclinic
_cell_length_a                    20.694525
_cell_length_b                    7.081155
_cell_length_c                    20.399421
_cell_angle_alpha                 90.678638
_cell_angle_beta                  101.499919
_cell_angle_gamma                 91.078478
_cell_volume                      2928.45301087

loop_
_atom_site_label
_atom_site_type_symbol
_atom_type_description
_atom_site_fract_x
_atom_site_fract_y
_atom_site_fract_z
_atom_type_partial_charge
O1    O     O_R   0.423690 0.494470 0.435930 -0.537376
O2    O     O_R   0.576310 0.994470 0.564070 -0.537057
O3    O     O_R   0.556070 0.822310 0.435760 -0.536605
O4    O     O_R   0.443930 0.322310 0.564240 -0.537322
C1    C     C_R   0.575716 0.655763 0.420678 0.723961
C2    C     C_R   0.424307 0.154995 0.579365 0.724299
O5    O     O_R   0.422940 0.824080 0.428040 -0.539227
O6    O     O_R   0.577060 0.324080 0.571960 -0.540488
O7    O     O_R   0.442240 0.995960 0.556300 -0.534498
O8    O     O_R   0.557760 0.495960 0.443700 -0.534424
C3    C     C_R   0.398510 0.652488 0.410924 0.694799
C4    C     C_R   0.601354 0.158175 0.589596 0.693596
O9    O     O_3   0.506490 0.661310 0.542090 -0.371404
O10   O     O_3   0.493510 0.161310 0.457910 -0.369867
V1    V     V_3+5 0.498800 0.935560 0.492190 1.417706
V2    V     V_3+5 0.501200 0.435560 0.507810 1.417508
C5    C     C_R   0.837386 0.073538 0.856083 -0.159343
C6    C     C_R   0.162760 0.604953 0.142345 -0.114755
C7    C     C_R   0.661920 0.161094 0.643086 -0.054322
C8    C     C_R   0.337359 0.628438 0.358940 -0.058458
C9    C     C_R   0.764189 0.322643 0.697333 -0.135129
C10   C     C_R   0.237534 0.441555 0.314833 -0.139510
C11   C     C_R   0.708775 0.308507 0.645417 -0.194359
C12   C     C_R   0.292156 0.482738 0.365641 -0.192309
C13   C     C_R   0.671500 0.027703 0.694417 -0.202219
C14   C     C_R   0.326432 0.734219 0.300116 -0.202903
C15   C     C_R   0.726413 0.044197 0.748089 0.036701
C16   C     C_R   0.272088 0.690599 0.247838 0.075715
C17   C     C_R   0.773805 0.191640 0.749621 0.157627
C18   C     C_R   0.226898 0.543134 0.254932 0.158682
C19   C     C_R   0.829473 0.205942 0.803101 0.098033
C20   C     C_R   0.172225 0.500098 0.202406 0.065229
C21   C     C_R   0.787648 0.930559 0.854413 0.169670
C22   C     C_R   0.209716 0.748278 0.135637 0.171423
C23   C     C_R   0.733697 0.917122 0.800783 -0.153037
C24   C     C_R   0.263219 0.790116 0.188111 -0.240275
H1    H     H_    0.702520 0.413798 0.606680 0.124365
H2    H     H_    0.299484 0.398578 0.410434 0.123334
C25   C     C_3   0.279776 0.172253 0.833833 0.350429
C26   C     C_3   0.724830 0.700882 0.169541 0.348602
C27   C     C_3   0.214584 0.908859 0.758863 0.022999
C28   C     C_3   0.773728 0.404307 0.230708 0.021199
C29   C     C_3   0.268097 0.920547 0.714520 -0.341996
C30   C     C_3   0.720035 0.419746 0.274692 -0.345448
H3    H     H_    0.228979 0.800083 0.797605 0.106395
H4    H     H_    0.754272 0.311549 0.186652 0.110409
H5    H     H_    0.308951 0.824601 0.734522 0.110922
H6    H     H_    0.674345 0.343426 0.249286 0.113978
C31   C     C_1   0.379297 0.145240 0.625493 -0.185028
C32   C     C_1   0.620763 0.647721 0.374528 -0.184750
C33   C     C_3   0.209149 0.106496 0.793150 0.248835
C34   C     C_3   0.790746 0.605802 0.206753 0.247053
C35   C     C_3   0.328518 0.198178 0.782835 -0.007890
C36   C     C_3   0.677383 0.729730 0.221550 -0.009024
C37   C     C_3   0.294894 0.126260 0.711183 0.205613
C38   C     C_3   0.705185 0.629247 0.288826 0.205184
C39   C     C_3   0.234761 0.253585 0.686564 -0.409907
C40   C     C_3   0.771820 0.729758 0.320087 -0.405856
C41   C     C_3   0.185815 0.247213 0.735342 -0.376684
C42   C     C_3   0.820866 0.722268 0.271409 -0.372304
C43   C     C_1   0.341411 0.136908 0.663942 -0.005636
C44   C     C_1   0.658667 0.640197 0.336077 -0.004806
C45   C     C_1   0.160571 0.097445 0.838397 0.017531
C46   C     C_1   0.839366 0.594922 0.161578 0.019247
C47   C     C_1   0.121622 0.089883 0.875740 -0.173360
C48   C     C_1   0.878340 0.587488 0.124258 -0.169799
H7    H     H_    0.179621 0.391099 0.754944 0.136735
H8    H     H_    0.835649 0.866812 0.259375 0.133979
H9    H     H_    0.136025 0.204123 0.706891 0.194019
H10   H     H_    0.867461 0.658071 0.297488 0.196297
H11   H     H_    0.251638 0.402215 0.682055 0.138837
H12   H     H_    0.763556 0.879706 0.332514 0.138423
H13   H     H_    0.338147 0.352225 0.777955 0.124001
H14   H     H_    0.677371 0.883182 0.234354 0.124320
H15   H     H_    0.208712 0.205719 0.635828 0.177811
H16   H     H_    0.794068 0.660789 0.367804 0.178490
O11   O     O_R   0.942280 0.741210 0.056360 -0.533097
O12   O     O_R   0.057720 0.241210 0.943640 -0.532577
O13   O     O_R   0.077070 0.409690 0.071960 -0.548675
O14   O     O_R   0.922930 0.909690 0.928040 -0.545932
C49   C     C_R   0.101729 0.581438 0.089091 0.746904
C50   C     C_R   0.898168 0.075761 0.910571 0.696439
O15   O     O_R   0.943940 0.411580 0.064250 -0.539023
O16   O     O_R   0.056060 0.911580 0.935750 -0.529071
O17   O     O_R   0.923670 0.239840 0.935920 -0.538302
O18   O     O_R   0.076330 0.739840 0.064080 -0.514938
C51   C     C_R   0.924131 0.579653 0.078909 0.710083
C52   C     C_R   0.075859 0.080446 0.921061 0.736289
O19   O     O_3   0.993540 0.572620 0.957940 -0.376300
O20   O     O_3   0.006460 0.072620 0.042060 -0.369348
V3    V     V_3+5 0.001200 0.298330 0.007800 1.412815
V4    V     V_3+5 0.998800 0.798330 0.992200 1.437121
N1    N     N_3   0.878295 0.351739 0.801535 -0.682189
H17   H     H_    0.879106 0.445143 0.841718 0.251893
H18   H     H_    0.924471 0.290378 0.805727 0.228002
N2    N     N_3   0.125896 0.354399 0.211827 -0.682833
H19   H     H_    0.078694 0.410723 0.204309 0.226608
H20   H     H_    0.126659 0.245923 0.176831 0.251477
H21   H     H_    0.247311 0.868225 0.662787 0.165328
H22   H     H_    0.736268 0.347642 0.323225 0.162942
N3    N     N_3   0.274374 0.353826 0.868529 -0.648049
H23   H     H_    0.320266 0.391379 0.898079 0.221256
H24   H     H_    0.263291 0.463121 0.834502 0.193522
N4    N     N_3   0.740863 0.885777 0.143474 -0.651470
H25   H     H_    0.697525 0.945367 0.117404 0.220631
H26   H     H_    0.759257 0.980434 0.182534 0.194619
N5    N     N_3   0.789300 0.798699 0.907529 -0.653147
H27   H     H_    0.798323 0.872068 0.953341 0.236734
H28   H     H_    0.826839 0.702837 0.906564 0.242315
N6    N     N_3   0.203495 0.851837 0.074790 -0.645867
H29   H     H_    0.246338 0.833414 0.055796 0.232787
H30   H     H_    0.200516 0.995324 0.086309 0.228555
H31   H     H_    0.798904 0.438553 0.696620 0.157607
H32   H     H_    0.204342 0.327586 0.322481 0.159734
H33   H     H_    0.696881 0.806000 0.800627 0.147945
H34   H     H_    0.298101 0.901339 0.181822 0.132480
H35   H     H_    0.635082 0.915260 0.693812 0.121757
H36   H     H_    0.361562 0.844854 0.293945 0.121298
N7    N     N_3   0.394021 0.117108 0.805006 -0.675670
H37   H     H_    0.415986 0.174576 0.851747 0.229709
H38   H     H_    0.391485 0.970426 0.808271 0.232764
N8    N     N_3   0.607788 0.677955 0.195414 -0.678213
H39   H     H_    0.590490 0.752676 0.151757 0.228130
H40   H     H_    0.601188 0.533534 0.185077 0.233522
N9    N     N_3   0.303018 0.031744 0.885839 -0.654102
H41   H     H_    0.316284 0.905853 0.865616 0.200290
H42   H     H_    0.344715 0.083403 0.919345 0.230703
N10   N     N_3   0.694307 0.580939 0.111369 -0.647396
H43   H     H_    0.673186 0.457190 0.125640 0.200154
H44   H     H_    0.656633 0.652651 0.080307 0.236132
N11   N     N_3   0.150990 0.846198 0.717846 -0.665620
H45   H     H_    0.117493 0.822664 0.749221 0.227711
H46   H     H_    0.157067 0.714087 0.696635 0.226192
N12   N     N_3   0.832789 0.314913 0.268699 -0.667489
H47   H     H_    0.864301 0.283596 0.236041 0.229533
H48   H     H_    0.818842 0.184624 0.285686 0.220743

loop_
_geom_bond_atom_site_label_1
_geom_bond_atom_site_label_2
_ccdc_geom_bond_type
O15   C51   A    
C45   C47   T    
O11   V4    S    
O4    V2    S    
N1    H17   S    
C25   N9    S    
C15   C17   A    
C27   C29   S    
C35   C37   S    
C25   C33   S    
O1    C3    A    
O2    C4    A    
N10   H43   S    
C2    O7    A    
N4    H26   S    
O17   V3    S    
C40   H16   S    
O5    C3    A    
N3    H23   S    
C5    C21   A    
C26   C34   S    
C29   H21   S    
C39   C41   S    
C40   C42   S    
C26   N10   S    
C6    C49   S    
C5    C50   S    
C28   H4    S    
N6    H29   S    
C34   C42   S    
C41   H7    S    
C36   H14   S    
O18   V4    S    
C8    C12   A    
C21   N5    S    
C12   H2    S    
N5    H27   S    
C23   H33   S    
O19   V3    S    
O13   V3    S    
C49   O18   A    
C32   C44   T    
O6    V2    S    
O5    V1    S    
C36   N8    S    
N3    H24   S    
N5    H28   S    
C28   C30   S    
N4    H25   S    
C25   N3    S    
N7    H38   S    
C36   C38   S    
C3    C8    S    
C31   C43   T    
O16   C52   A    
C16   C24   A    
C33   C45   S    
O14   C50   A    
C34   C46   S    
C48   C51   S    
C27   N11   S    
N12   H48   S    
C15   C23   A    
C11   H1    S    
C9    C17   A    
N2    H20   S    
C46   C48   T    
O14   V4    S    
C7    C11   A    
C26   N4    S    
C30   C38   S    
O20   V4    S    
C42   H10   S    
O6    C4    A    
N2    H19   S    
O1    V2    S    
C39   H11   S    
O19   V4    S    
O2    V1    S    
C6    C22   A    
C42   H8    S    
C41   H9    S    
C9    H31   S    
C20   N2    S    
C26   C36   S    
C37   C39   S    
N9    H41   S    
C5    C19   A    
C10   C12   A    
C1    C32   S    
O4    C2    A    
C6    C20   A    
N8    H40   S    
N11   H45   S    
C24   H34   S    
O3    C1    A    
O3    V1    S    
C47   C52   S    
O13   C49   A    
C29   C37   S    
O12   C52   A    
C10   C18   A    
C35   H13   S    
C14   H36   S    
N11   H46   S    
N10   H44   S    
N7    H37   S    
C35   N7    S    
N12   H47   S    
O12   V3    S    
C13   C15   A    
C50   O17   A    
O15   V3    S    
C14   C16   A    
C28   N12   S    
C39   H15   S    
C9    C11   A    
O7    V1    S    
C1    O8    A    
C17   C19   A    
C19   N1    S    
C18   C20   A    
C30   H22   S    
C40   H12   S    
O20   V3    S    
C25   C35   S    
C8    C14   A    
C22   N6    S    
C37   C43   S    
C4    C7    S    
C16   C18   A    
C21   C23   A    
C22   C24   A    
C38   C40   S    
C38   C44   S    
C2    C31   S    
C7    C13   A    
N6    H30   S    
C10   H32   S    
C33   C41   S    
O11   C51   A    
N1    H18   S    
O9    V2    S    
C13   H35   S    
N9    H42   S    
C27   H3    S    
O10   V1    S    
O8    V2    S    
O16   V4    S    
N8    H39   S    
C29   H5    S    
C27   C33   S    
C30   H6    S    
C28   C34   S    
