data_mof_unit_34857.cif
_audit_creation_date              2013-03-05T16:38:12-0500
_audit_creation_method            fapswitch 2.2
_symmetry_space_group_name_H-M    P1
_symmetry_Int_Tables_number       1
_space_group_crystal_system       triclinic
_cell_length_a                    15.998389
_cell_length_b                    14.683103
_cell_length_c                    10.940003
_cell_angle_alpha                 89.481312
_cell_angle_beta                  91.033784
_cell_angle_gamma                 89.833107
_cell_volume                      2569.33652887

loop_
_atom_site_label
_atom_site_type_symbol
_atom_site_description
_atom_site_fract_x
_atom_site_fract_y
_atom_site_fract_z
_atom_type_partial_charge
O1    O     O_R   0.380310 0.575320 0.500060 -0.541243
O2    O     O_R   0.380310 0.424680 0.500060 -0.519857
C1    C     C_R   0.341087 0.500104 0.506833 0.874535
O3    O     O_R   0.499990 0.575340 0.317720 -0.511241
O4    O     O_R   0.499990 0.424660 0.317720 -0.511325
C2    C     C_R   0.498369 0.501018 0.258497 0.998759
Cu1   Cu    Cu3+1 0.500000 0.589220 0.500040 1.185520
Cu2   Cu    Cu3+1 0.500000 0.410780 0.500040 1.175805
O5    O     O_R   0.619690 0.575360 0.500000 -0.570676
O6    O     O_R   0.619690 0.424640 0.500000 -0.560790
O7    O     O_R   0.500010 0.575340 0.682340 -0.519666
O8    O     O_R   0.500010 0.424660 0.682340 -0.588351
C3    C     C_R   0.659179 0.499867 0.500710 0.845680
C4    C     C_R   0.484084 0.499977 0.737679 0.873305
C5    C     C_3   0.436900 0.595979 0.068615 0.427236
C6    C     C_3   0.455852 0.401868 0.072505 0.460597
C7    C     C_3   0.427189 0.587669 0.923381 0.104372
C8    C     C_3   0.431601 0.414776 0.933251 0.012743
H1    H     H_    0.361430 0.568843 0.904399 0.154378
H2    H     H_    0.365263 0.434157 0.935897 0.175097
H3    H     H_    0.600136 0.566426 0.872542 0.252878
H4    H     H_    0.605007 0.448035 0.884554 0.222974
C9    C     C_3   0.586182 0.515236 0.063920 0.435296
C10   C     C_3   0.493257 0.503521 0.119934 -0.515177
C11   C     C_3   0.478510 0.501720 0.875569 -0.342576
C12   C     C_3   0.571742 0.507949 0.921075 -0.446099
C13   C     C_R   0.955641 0.582253 0.514703 0.221034
C14   C     C_R   0.956610 0.415724 0.507170 0.213234
C15   C     C_R   0.912880 0.498919 0.508661 -0.199901
C16   C     C_R   0.044625 0.415477 0.515914 0.286016
C17   C     C_R   0.043652 0.583223 0.514235 0.279309
C18   C     C_R   0.087570 0.499505 0.515693 -0.196406
C19   C     C_1   0.823073 0.499051 0.504726 0.195924
C20   C     C_1   0.177391 0.499843 0.514308 0.212918
C21   C     C_1   0.252289 0.500169 0.511560 -0.036488
C22   C     C_1   0.748111 0.499466 0.502379 -0.022973
C23   C     C_R   0.576076 0.951405 0.499901 0.249936
C24   C     C_R   0.575063 0.047927 0.516115 0.267322
C25   C     C_R   0.499681 0.903116 0.489589 -0.328830
C26   C     C_R   0.498573 0.096777 0.503504 -0.311031
C27   C     C_R   0.423009 0.951583 0.476578 0.283646
C28   C     C_R   0.421933 0.048641 0.489257 0.282660
C29   C     C_1   0.499925 0.802795 0.496126 0.492271
C30   C     C_1   0.499423 0.197163 0.501047 0.543905
N1    N     N_1   0.499980 0.276710 0.500040 -0.101004
N2    N     N_1   0.499980 0.723290 0.500040 -0.090109
S1    S     S_3+6 0.480007 0.712986 0.108991 0.167408
O9    O     O_2   0.523034 0.721076 0.230758 -0.208025
O10   O     O_2   0.540949 0.745504 0.015952 -0.185657
O11   O     O_3   0.405080 0.793399 0.114934 -0.370783
H5    H     H_    0.435137 0.851675 0.126591 0.387644
S2    S     S_3+6 0.528400 0.301433 0.085221 0.131449
O12   O     O_2   0.596889 0.303312 0.993622 -0.262427
O13   O     O_2   0.566914 0.291281 0.210729 -0.210111
O14   O     O_3   0.476626 0.203468 0.060594 -0.389685
H6    H     H_    0.519156 0.154696 0.070920 0.394217
S3    S     S_3+6 0.329853 0.888864 0.440084 0.118569
O15   O     O_2   0.270505 0.944013 0.361094 -0.152654
O16   O     O_2   0.349699 0.803304 0.372036 -0.233716
O17   O     O_3   0.283425 0.860052 0.571577 -0.432614
H7    H     H_    0.222905 0.857718 0.551268 0.422725
S4    S     S_3+6 0.325025 0.110385 0.493405 0.133695
O18   O     O_2   0.334709 0.199725 0.557608 -0.241904
O19   O     O_2   0.295014 0.128685 0.364529 -0.155781
O20   O     O_3   0.252199 0.050559 0.568252 -0.428851
H8    H     H_    0.199343 0.084701 0.554035 0.408596
S5    S     S_3+6 0.329061 0.603005 0.124756 0.094578
O21   O     O_2   0.329272 0.608336 0.261528 -0.239905
O22   O     O_2   0.286122 0.687094 0.075745 -0.119242
O23   O     O_3   0.267819 0.517885 0.075713 -0.521322
H9    H     H_    0.212724 0.529214 0.112716 0.407754
S6    S     S_3+6 0.363547 0.359949 0.159560 0.136091
O24   O     O_2   0.290129 0.339438 0.076792 -0.180380
O25   O     O_2   0.384167 0.274036 0.229754 -0.164473
O26   O     O_3   0.330135 0.432108 0.264720 -0.529913
H10   H     H_    0.274791 0.408383 0.288601 0.387708
S7    S     S_3+6 0.417024 0.692352 0.828878 0.120657
O27   O     O_2   0.366339 0.670729 0.715877 -0.261351
O28   O     O_2   0.370095 0.766272 0.891888 -0.140742
O29   O     O_3   0.510573 0.733042 0.786271 -0.460406
H11   H     H_    0.500222 0.797580 0.763424 0.371108
S8    S     S_3+6 0.411316 0.312154 0.840815 0.146377
O30   O     O_2   0.356293 0.246693 0.907714 -0.094164
O31   O     O_2   0.362904 0.340445 0.727889 -0.246121
O32   O     O_3   0.496655 0.252994 0.799732 -0.414814
H12   H     H_    0.542504 0.297041 0.790587 0.381107
N3    N     N_R   0.628085 0.601705 0.096215 0.182269
O33   O     O_R   0.675634 0.641937 0.016843 -0.227115
O34   O     O_R   0.647713 0.615348 0.210617 -0.261787
N4    N     N_R   0.648016 0.446420 0.106764 0.189322
O35   O     O_R   0.660204 0.434182 0.223707 -0.297304
O36   O     O_R   0.711873 0.429677 0.037984 -0.236039
S9    S     S_3+6 0.099997 0.687988 0.511123 0.115601
O37   O     O_2   0.044592 0.769101 0.486335 -0.120961
O38   O     O_2   0.143361 0.699664 0.633080 -0.238417
O39   O     O_3   0.171688 0.683802 0.400524 -0.458813
H13   H     H_    0.226236 0.693611 0.442388 0.400249
S10   S     S_3+6 0.101810 0.311215 0.531519 0.110253
O40   O     O_2   0.046381 0.232910 0.565918 -0.172439
O41   O     O_2   0.143125 0.290821 0.412523 -0.204096
O42   O     O_3   0.175988 0.322731 0.641235 -0.480707
H14   H     H_    0.192737 0.259744 0.663987 0.419780
N5    N     N_R   0.908983 0.665405 0.522178 0.177951
O43   O     O_R   0.861779 0.692183 0.430616 -0.265994
O44   O     O_R   0.906659 0.709005 0.625058 -0.211388
N6    N     N_R   0.911261 0.332163 0.493651 0.192368
O45   O     O_R   0.856400 0.308160 0.574075 -0.289008
O46   O     O_R   0.919616 0.283986 0.395369 -0.189613
S11   S     S_3+6 0.667931 0.108694 0.559150 0.140844
O47   O     O_2   0.726140 0.049834 0.635017 -0.123606
O48   O     O_2   0.711263 0.139143 0.445105 -0.173357
O49   O     O_3   0.645242 0.200835 0.642699 -0.533485
H15   H     H_    0.697030 0.237698 0.643901 0.404119
S12   S     S_3+6 0.671944 0.889510 0.484117 0.142448
O50   O     O_2   0.738468 0.947566 0.427922 -0.107155
O51   O     O_2   0.701175 0.857297 0.608595 -0.204954
O52   O     O_3   0.658014 0.798735 0.393201 -0.466606
H16   H     H_    0.699038 0.752685 0.423058 0.409389

loop_
_geom_bond_atom_site_label_1
_geom_bond_atom_site_label_2
_geom_bond_distance
_ccdc_geom_bond_type
C24   C26   1.420553 A    
H3    C12   1.108250 S    
S9    O37   1.502333 D    
C13   C15   1.405084 A    
C27   C28   1.433174 A    
C6    S6    1.874048 S    
C5    S1    1.905782 S    
O14   H6    0.990690 S    
S12   O50   1.502232 D    
N4    O35   1.301419 A    
Cu1   Cu2   2.620051 S    
C25   C27   1.420609 A    
O32   H12   0.985169 S    
S2    O12   1.498280 D    
Cu1   O7    2.002909 S    
C23   C24   1.429978 A    
C14   C15   1.406314 A    
S11   O48   1.503325 D    
O4    C2    1.289787 A    
O7    C4    1.284909 A    
S3    O16   1.502127 D    
N6    O45   1.301054 A    
C15   C19   1.436627 S    
C19   C22   1.199084 T    
C5    C7    1.599437 S    
C20   C21   1.199194 T    
C9    C12   1.580214 S    
O5    C3    1.274152 A    
Cu2   N1    1.968566 S    
S4    O19   1.502835 D    
C8    S8    1.848512 S    
S1    O9    1.494244 D    
C14   N6    1.434649 S    
C9    C10   1.627185 S    
O23   H9    0.990822 S    
C28   S4    1.795192 S    
S2    O14   1.683345 S    
S7    O27   1.503019 D    
C26   C28   1.423854 A    
C2    C10   1.516716 S    
C6    C10   1.692083 S    
C9    N3    1.480111 S    
C8    C11   1.612215 S    
S6    O26   1.665176 S    
O49   H15   0.990929 S    
O42   H14   0.990499 S    
S2    O13   1.500799 D    
S1    O11   1.682614 S    
S7    O28   1.498122 D    
C13   C17   1.408263 A    
S5    O21   1.498984 D    
Cu1   N2    1.968564 S    
C3    C22   1.422554 S    
S6    O25   1.503566 D    
S11   O49   1.681987 S    
S6    O24   1.502939 D    
S3    O17   1.682097 S    
C25   C29   1.474100 S    
C23   S12   1.792309 S    
O3    Cu1   2.006798 S    
C11   C12   1.567094 S    
C17   S9    1.785570 S    
S8    O30   1.499938 D    
O17   H7    0.990241 S    
O1    C1    1.274044 A    
C18   C20   1.437364 S    
O26   H10   0.990982 S    
S4    O18   1.500693 D    
N4    O36   1.303823 A    
C17   C18   1.413916 A    
C1    C21   1.422493 S    
Cu2   O8    2.006580 S    
C5    S5    1.844638 S    
O39   H13   0.989736 S    
C7    S7    1.849757 S    
O11   H5    0.990863 S    
C9    N4    1.479231 S    
N5    O44   1.300921 A    
C6    C8    1.574906 S    
C24   S11   1.793128 S    
Cu2   O6    1.926228 S    
C5    C10   1.712281 S    
O8    C4    1.292471 A    
S10   O40   1.503364 D    
S9    O39   1.683520 S    
S10   O41   1.502731 D    
N3    O34   1.302247 A    
O3    C2    1.274242 A    
S10   O42   1.682581 S    
C30   N1    1.168006 T    
S7    O29   1.685073 S    
Cu1   O5    1.925050 S    
S4    O20   1.681353 S    
O1    Cu1   1.926288 S    
O2    Cu2   1.925106 S    
C6    S2    1.876617 S    
O29   H11   0.990549 S    
O6    C3    1.274085 A    
O4    Cu2   2.003127 S    
S12   O51   1.503643 D    
S1    O10   1.498089 D    
S8    O32   1.686085 S    
C16   S10   1.786390 S    
S8    O31   1.500999 D    
S5    O23   1.676362 S    
C7    C11   1.600548 S    
C14   C16   1.409617 A    
O2    C1    1.274693 A    
C27   S3    1.794932 S    
C23   C25   1.418006 A    
O52   H16   0.990101 S    
C16   C18   1.413940 A    
S3    O15   1.502407 D    
N6    O46   1.301046 A    
C13   N5    1.432917 S    
C7    H1    1.105074 S    
C8    H2    1.098935 S    
C4    C11   1.513200 S    
C29   N2    1.167773 T    
S12   O52   1.683211 S    
C26   C30   1.474082 S    
N3    O33   1.303384 A    
S9    O38   1.504075 D    
O20   H8    0.990926 S    
H4    C12   1.108192 S    
N5    O43   1.300825 A    
S5    O22   1.501206 D    
S11   O47   1.502492 D    
