data_mof_unit_10809.cif
_audit_creation_date              2013-03-05T16:54:29-0500
_audit_creation_method            fapswitch 2.2
_symmetry_space_group_name_H-M    P1
_symmetry_Int_Tables_number       1
_space_group_crystal_system       triclinic
_cell_length_a                    17.606871
_cell_length_b                    16.820536
_cell_length_c                    10.634361
_cell_angle_alpha                 89.859517
_cell_angle_beta                  89.638711
_cell_angle_gamma                 89.882591
_cell_volume                      3149.36193739

loop_
_atom_site_label
_atom_site_type_symbol
_atom_site_description
_atom_site_fract_x
_atom_site_fract_y
_atom_site_fract_z
_atom_type_partial_charge
O1    O     O_R   0.389110 0.566570 0.499990 -0.619830
O2    O     O_R   0.610890 0.566570 0.500010 -0.608844
O3    O     O_R   0.389090 0.433480 0.499980 -0.596712
O4    O     O_R   0.610910 0.433480 0.500020 -0.597257
C1    C     C_R   0.353599 0.499577 0.502712 1.007603
C2    C     C_R   0.646382 0.499495 0.497139 1.021838
O5    O     O_R   0.500000 0.566560 0.316760 -0.619363
O6    O     O_R   0.500000 0.566560 0.683240 -0.608178
O7    O     O_R   0.499970 0.433470 0.316760 -0.611037
O8    O     O_R   0.500030 0.433470 0.683240 -0.610262
C3    C     C_R   0.490258 0.500529 0.260313 0.984773
C4    C     C_R   0.508660 0.500248 0.740147 0.992947
Zn1   Zn    Zn3+2 0.500000 0.588860 0.500000 1.046881
Zn2   Zn    Zn3+2 0.500000 0.411140 0.500000 1.007101
H1    H     H_    0.483934 0.373136 0.112203 0.163120
H2    H     H_    0.504316 0.372666 0.888994 0.166157
C5    C     C_R   0.452885 0.648976 0.105284 0.023799
C6    C     C_R   0.550400 0.646023 0.895082 -0.063767
C7    C     C_R   0.477909 0.719977 0.049612 -0.140790
C8    C     C_R   0.528910 0.718407 0.949496 -0.121140
H3    H     H_    0.458368 0.777040 0.084196 0.166723
H4    H     H_    0.551580 0.774045 0.914180 0.157981
C9    C     C_R   0.517821 0.574093 0.941522 -0.034116
C10   C     C_R   0.481543 0.575129 0.058963 0.033247
C11   C     C_R   0.479970 0.502087 0.126083 -0.048009
C12   C     C_R   0.516366 0.501126 0.874809 -0.110465
C13   C     C_R   0.488061 0.429664 0.063502 -0.175898
C14   C     C_R   0.503374 0.429293 0.937406 -0.184912
C15   C     C_R   0.845282 0.536259 0.381763 -0.105161
C16   C     C_R   0.151725 0.540191 0.599809 -0.113518
C17   C     C_R   0.765765 0.527064 0.380345 -0.163593
C18   C     C_R   0.231074 0.530210 0.609401 -0.155050
C19   C     C_R   0.728770 0.497061 0.489398 -0.212876
C20   C     C_R   0.271109 0.497190 0.505890 -0.241035
C21   C     C_R   0.770782 0.460857 0.587295 -0.124386
C22   C     C_R   0.231932 0.458169 0.408202 -0.161006
C23   C     C_R   0.849913 0.467695 0.585164 0.450571
C24   C     C_R   0.152990 0.465269 0.402502 0.455914
C25   C     C_R   0.885923 0.507254 0.485445 -0.085165
C26   C     C_R   0.114171 0.508269 0.495047 -0.084211
C27   C     C_1   0.966408 0.510267 0.485829 0.094256
C28   C     C_1   0.033802 0.510643 0.488811 0.099073
C29   C     C_R   0.436748 0.834892 0.540862 0.325703
C30   C     C_R   0.564054 0.834109 0.459034 0.280425
C31   C     C_R   0.439490 0.750218 0.548030 -0.033891
C32   C     C_R   0.560499 0.749760 0.451148 -0.008168
N1    N     N_R   0.500000 0.707230 0.500000 -0.191313
C33   C     C_R   0.500718 0.877415 0.500753 -0.097410
C34   C     C_1   0.501070 0.965088 0.501055 0.100131
C35   C     C_1   0.501116 0.037861 0.501024 0.116043
C36   C     C_R   0.461225 0.167968 0.407087 0.356574
C37   C     C_R   0.539874 0.168113 0.594072 0.358787
C38   C     C_R   0.460204 0.252402 0.411350 -0.133363
C39   C     C_R   0.540139 0.252599 0.589001 -0.141347
H5    H     H_    0.427464 0.286164 0.344110 0.154713
H6    H     H_    0.572579 0.286627 0.655860 0.157543
N2    N     N_R   0.500000 0.292770 0.500000 -0.122371
C40   C     C_R   0.500769 0.125465 0.500696 -0.058065
O9    O     O_3   0.419912 0.125472 0.319036 -0.604943
C41   C     C_3   0.432820 0.154616 0.195951 0.093685
H7    H     H_    0.493442 0.171248 0.179832 0.128377
H8    H     H_    0.395744 0.206887 0.177615 0.144315
C42   C     C_3   0.412611 0.090109 0.102020 -0.792767
H9    H     H_    0.352338 0.072245 0.114652 0.269124
H10   H     H_    0.420840 0.112707 0.004695 0.207599
H11   H     H_    0.449646 0.037342 0.116242 0.255393
O10   O     O_3   0.581273 0.125583 0.682688 -0.599882
C43   C     C_3   0.570662 0.156585 0.805049 0.094003
H12   H     H_    0.510736 0.175535 0.822462 0.126436
H13   H     H_    0.609462 0.207693 0.820160 0.149102
C44   C     C_3   0.590125 0.092532 0.900839 -0.789479
H14   H     H_    0.649798 0.072595 0.887404 0.268308
H15   H     H_    0.583404 0.116498 0.997479 0.205062
H16   H     H_    0.551620 0.040839 0.889575 0.255707
C45   C     C_2   0.389777 0.653752 0.198354 0.947881
O11   O     O_2   0.381581 0.713321 0.262796 -0.656951
O12   O     O_R   0.337888 0.591427 0.209025 -0.783235
H17   H     H_    0.296339 0.602738 0.272988 0.345718
C46   C     C_2   0.614357 0.647161 0.803171 0.971120
O13   O     O_2   0.617677 0.699601 0.723783 -0.600769
O14   O     O_R   0.673087 0.591386 0.809177 -0.760781
H18   H     H_    0.669677 0.555979 0.886195 0.324294
C47   C     C_2   0.887042 0.572633 0.274168 0.961023
O15   O     O_2   0.928576 0.629639 0.292026 -0.611018
O16   O     O_R   0.879821 0.541120 0.153415 -0.787547
H19   H     H_    0.908826 0.573252 0.088316 0.338557
C48   C     C_2   0.106713 0.580335 0.700003 0.960389
O17   O     O_2   0.067415 0.637985 0.673745 -0.608695
O18   O     O_R   0.107837 0.551195 0.823056 -0.807906
H20   H     H_    0.074732 0.583555 0.882246 0.341656
C49   C     C_2   0.722212 0.540460 0.262063 0.988935
O19   O     O_2   0.736901 0.596624 0.192902 -0.587449
O20   O     O_R   0.666079 0.486358 0.227318 -0.805300
H21   H     H_    0.643229 0.499541 0.142518 0.335943
C50   C     C_2   0.271290 0.545835 0.730348 0.994572
O21   O     O_2   0.252689 0.601450 0.797749 -0.576547
O22   O     O_R   0.329390 0.494785 0.769080 -0.802251
H22   H     H_    0.350689 0.510010 0.854016 0.356599
C51   C     C_2   0.734352 0.412402 0.689065 0.947185
O23   O     O_2   0.673310 0.431962 0.734549 -0.673226
O24   O     O_R   0.770419 0.343666 0.733039 -0.738855
H23   H     H_    0.740337 0.315829 0.801758 0.333300
C52   C     C_2   0.271160 0.406229 0.314886 0.958302
O25   O     O_2   0.327528 0.429573 0.258544 -0.648815
O26   O     O_R   0.242533 0.330331 0.290694 -0.746346
H24   H     H_    0.273653 0.300602 0.225412 0.326914
O27   O     O_3   0.893228 0.430004 0.675718 -0.573296
C53   C     C_3   0.904551 0.482615 0.776856 0.112206
H25   H     H_    0.849508 0.500558 0.820719 0.171327
H26   H     H_    0.935729 0.536762 0.745506 0.155913
C54   C     C_3   0.951924 0.440450 0.875501 -0.721834
H27   H     H_    0.005349 0.417930 0.832268 0.268527
H28   H     H_    0.966416 0.482350 0.951789 0.206881
H29   H     H_    0.919704 0.389653 0.915889 0.272796
O28   O     O_3   0.112593 0.424755 0.311609 -0.575397
C55   C     C_3   0.112793 0.469124 0.198653 0.098165
H30   H     H_    0.167277 0.501206 0.180801 0.152007
H31   H     H_    0.065710 0.513296 0.200918 0.164283
C56   C     C_3   0.100509 0.412405 0.089708 -0.726122
H32   H     H_    0.044240 0.383186 0.099034 0.258219
H33   H     H_    0.103146 0.445497 0.999714 0.240416
H34   H     H_    0.145590 0.366148 0.088659 0.275848
O29   O     O_3   0.373949 0.876419 0.585038 -0.609163
C57   C     C_3   0.318301 0.882263 0.489505 0.132313
H35   H     H_    0.261856 0.872873 0.534259 0.202527
H36   H     H_    0.323841 0.836832 0.413606 0.195595
C58   C     C_3   0.318482 0.964805 0.430128 -0.781600
H37   H     H_    0.368252 0.971352 0.366543 0.266339
H38   H     H_    0.266317 0.973069 0.373391 0.226731
H39   H     H_    0.320112 0.011275 0.504078 0.278977
O30   O     O_3   0.627261 0.873970 0.413405 -0.597833
C59   C     C_3   0.673872 0.894885 0.515862 0.134074
H40   H     H_    0.687029 0.842444 0.576290 0.200629
H41   H     H_    0.646255 0.941357 0.574794 0.152869
C60   C     C_3   0.748385 0.928148 0.465738 -0.712081
H42   H     H_    0.737365 0.981625 0.407093 0.253323
H43   H     H_    0.785481 0.945035 0.545362 0.211894
H44   H     H_    0.778014 0.882645 0.407827 0.274674
C61   C     C_2   0.376239 0.710636 0.611856 1.043600
O31   O     O_2   0.386024 0.680041 0.714703 -0.597499
O32   O     O_R   0.304166 0.712940 0.557639 -0.819535
H45   H     H_    0.262401 0.694633 0.616356 0.354523
C62   C     C_2   0.622937 0.710178 0.384895 1.061060
O33   O     O_2   0.610831 0.676535 0.285543 -0.613789
O34   O     O_R   0.696743 0.716715 0.431417 -0.779055
H46   H     H_    0.736706 0.694717 0.372311 0.355353

loop_
_geom_bond_atom_site_label_1
_geom_bond_atom_site_label_2
_geom_bond_distance
_ccdc_geom_bond_type
H2    C14   1.083881 S    
C60   H44   1.110787 S    
C24   C26   1.397076 A    
C48   O17   1.222868 D    
C42   H10   1.110445 S    
O24   H23   1.014042 S    
C27   C28   1.187246 T    
C50   O21   1.222781 D    
O7    Zn2   1.983608 S    
O22   H22   1.013840 S    
O29   C57   1.418967 S    
C25   C27   1.418134 S    
O16   H19   1.013415 S    
C53   H25   1.114310 S    
C30   O30   1.384960 S    
O5    C3    1.276207 A    
O20   H21   1.013642 S    
C22   C52   1.489382 S    
O1    C1    1.289981 A    
C57   H36   1.116548 S    
C21   C23   1.398260 A    
C15   C47   1.487255 S    
C59   C60   1.520225 S    
C9    C12   1.419503 A    
C3    C11   1.440194 S    
C62   O33   1.219925 D    
C31   C61   1.461327 S    
C55   H30   1.116603 S    
C41   H8    1.111576 S    
C31   N1    1.382244 A    
O2    Zn1   1.987343 S    
C5    C7    1.402257 A    
C43   H12   1.116079 S    
Zn1   N1    1.991047 S    
C51   O23   1.220688 D    
C37   C39   1.422005 A    
C59   H40   1.114870 S    
C48   O18   1.396489 S    
O27   C53   1.409884 S    
C17   C19   1.418739 A    
C53   C54   1.517944 S    
C29   C33   1.399238 A    
C20   C22   1.414238 A    
C56   H33   1.106720 S    
C42   H11   1.110893 S    
O9    C41   1.413791 S    
C2    C19   1.452911 S    
C60   H43   1.110483 S    
O2    C2    1.288956 A    
C21   C51   1.495342 S    
C30   C32   1.423005 A    
O34   H46   1.010735 S    
C38   H5    1.080732 S    
C37   C40   1.410260 A    
C39   H6    1.080660 S    
C5    C10   1.427404 A    
C6    C9    1.425873 A    
C35   C40   1.473545 S    
C60   H42   1.110749 S    
C10   C11   1.419617 A    
C54   H28   1.107306 S    
O8    Zn2   1.985416 S    
C49   O19   1.222900 D    
C46   O14   1.396455 S    
C38   N2    1.361679 A    
C6    C46   1.486561 S    
O12   H17   1.013824 S    
O14   H18   1.013039 S    
O10   C43   1.414170 S    
C4    C12   1.439423 S    
C41   H7    1.116063 S    
C36   C38   1.421136 A    
C18   C20   1.417273 A    
C45   O11   1.223089 D    
C58   H38   1.110394 S    
C49   O20   1.396925 S    
O7    C3    1.288051 A    
H1    C13   1.083975 S    
C47   O15   1.223015 D    
O5    Zn1   1.985316 S    
O6    C4    1.277019 A    
C1    C20   1.453199 S    
C15   C25   1.404152 A    
C16   C26   1.407253 A    
C52   O26   1.398554 S    
C36   C40   1.410693 A    
C56   H32   1.110598 S    
C29   C31   1.426848 A    
C45   O12   1.395911 S    
O3    Zn2   1.987851 S    
O8    C4    1.286923 A    
C55   H31   1.112269 S    
C57   C58   1.523838 S    
O4    C2    1.275313 A    
C33   C34   1.474757 S    
C51   O24   1.398837 S    
C8    H4    1.083557 S    
C17   C49   1.493682 S    
C41   C42   1.520895 S    
C36   O9    1.389543 S    
C58   H37   1.108965 S    
C29   O29   1.386733 S    
C52   O25   1.221110 D    
C44   H15   1.110399 S    
C56   H34   1.110365 S    
C62   O34   1.398032 S    
Zn2   N2    1.991047 S    
C32   N1    1.382254 A    
C54   H27   1.110683 S    
C47   O16   1.397073 S    
C37   O10   1.390810 S    
C42   H9    1.110782 S    
O3    C1    1.274558 A    
C44   H16   1.110846 S    
C61   O31   1.220645 D    
C50   O22   1.397663 S    
C23   O27   1.383898 S    
C32   C62   1.462105 S    
C11   C13   1.396157 A    
O26   H24   1.013909 S    
C12   C14   1.396651 A    
C55   C56   1.519442 S    
C7    C8    1.388724 A    
C22   C24   1.396479 A    
C16   C48   1.486602 S    
C58   H39   1.110685 S    
C44   H14   1.110689 S    
C15   C17   1.409063 A    
O32   H45   1.009790 S    
C16   C18   1.411099 A    
C24   O28   1.385078 S    
C61   O32   1.397549 S    
O28   C55   1.412607 S    
C43   C44   1.520988 S    
C26   C28   1.417504 S    
C19   C21   1.416546 A    
C53   H26   1.113677 S    
C54   H29   1.110607 S    
C6    C8    1.399732 A    
O4    Zn2   1.989361 S    
C9    C10   1.399313 A    
C46   O13   1.220711 D    
O6    Zn1   1.983509 S    
C30   C33   1.401072 A    
C23   C25   1.399681 A    
C18   C50   1.496209 S    
O1    Zn1   1.988854 S    
C59   H41   1.112309 S    
C34   C35   1.224069 T    
C13   C14   1.366149 A    
C5    C45   1.485533 S    
C43   H13   1.111758 S    
O18   H20   1.013894 S    
O30   C59   1.413784 S    
C57   H35   1.110596 S    
C7    H3    1.083373 S    
C39   N2    1.362043 A    
