data_mof_unit_5771.cif
_audit_creation_date              2012-10-26T20:44:06-0400
_audit_creation_method            fapswitch 2.2
_symmetry_space_group_name_H-M    P1
_symmetry_Int_Tables_number       1
_space_group_crystal_system       triclinic
_cell_length_a                    10.837959
_cell_length_b                    9.689408
_cell_length_c                    19.402264
_cell_angle_alpha                 89.864358
_cell_angle_beta                  101.089383
_cell_angle_gamma                 89.989767
_cell_volume                      1999.44831484

loop_
_atom_site_label
_atom_site_type_symbol
_atom_type_description
_atom_site_fract_x
_atom_site_fract_y
_atom_site_fract_z
_atom_type_partial_charge
C1    C     C_R   0.871190 0.499035 0.498636 0.000459
C2    C     C_R   0.737175 0.499814 0.498780 0.569294
C3    C     C_R   0.501955 0.500016 0.368182 0.567490
C4    C     C_R   0.498566 0.499744 0.631671 0.569430
C5    C     C_R   0.063961 0.373532 0.499993 -0.111680
C6    C     C_R   0.935986 0.623968 0.499073 -0.115521
C7    C     C_R   0.935804 0.373532 0.499135 -0.113511
C8    C     C_R   0.064518 0.623910 0.502481 -0.112944
C9    C     C_R   0.609747 0.528611 0.754517 -0.078804
C10   C     C_R   0.428197 0.591411 0.247614 -0.121561
C11   C     C_R   0.579381 0.404382 0.265771 -0.108911
C12   C     C_R   0.128911 0.499007 0.501613 0.002002
C13   C     C_R   0.389222 0.464837 0.731043 -0.124009
C14   C     C_R   0.610671 0.526402 0.826295 -0.128488
C15   C     C_R   0.425995 0.586935 0.175754 -0.101140
C16   C     C_R   0.581289 0.403801 0.194072 -0.086050
C17   C     C_R   0.389709 0.464234 0.803024 -0.080181
C18   C     C_R   0.500296 0.496356 0.850817 0.057821
C19   C     C_R   0.503670 0.494422 0.148390 0.062979
C20   C     C_R   0.413813 0.075988 0.450116 0.284693
C21   C     C_R   0.587423 0.924508 0.548953 0.288060
C22   C     C_R   0.586037 0.075447 0.549980 0.284714
C23   C     C_R   0.514011 0.621233 0.964567 0.115661
C24   C     C_R   0.412381 0.925004 0.451121 0.289314
C25   C     C_R   0.498970 0.498626 0.706716 0.047592
C26   C     C_R   0.503620 0.499195 0.292953 0.016167
C27   C     C_3   0.397982 0.809909 0.901572 -0.305659
C28   C     C_3   0.336760 0.221129 0.075926 -0.288770
C29   C     C_3   0.676276 0.763890 0.108206 -0.285692
C30   C     C_3   0.593230 0.181672 0.914331 -0.280745
C31   C     C_R   0.485656 0.369375 0.033625 0.113922
C32   C     C_R   0.520068 0.619484 0.037521 0.135319
C33   C     C_R   0.488799 0.369974 0.961199 0.123005
C34   C     C_R   0.503823 0.494039 0.072039 0.013767
C35   C     C_R   0.501709 0.495990 0.926822 0.002555
C36   C     C_R   0.262855 0.499812 0.501288 0.571882
Cu1   Cu    Cu3+1 0.500000 0.640660 0.500000 1.142437
Cu2   Cu    Cu3+1 0.500000 0.359340 0.500000 1.143405
H1    H     H_    0.111836 0.275493 0.499515 0.178146
H2    H     H_    0.363772 0.656157 0.141422 0.137435
H3    H     H_    0.643409 0.332950 0.174279 0.136763
H4    H     H_    0.304205 0.439521 0.821554 0.122895
H5    H     H_    0.235285 0.357699 0.328699 0.341886
H6    H     H_    0.808201 0.646802 0.647621 0.336798
H7    H     H_    0.772729 0.353806 0.669488 0.335483
H8    H     H_    0.195228 0.649200 0.347392 0.340376
H9    H     H_    0.580287 0.753794 0.895155 0.263493
H10   H     H_    0.346638 0.744813 0.858352 0.158218
H11   H     H_    0.410553 0.914325 0.880398 0.151684
H12   H     H_    0.887730 0.721841 0.496797 0.196361
H13   H     H_    0.341113 0.819793 0.943241 0.146592
H14   H     H_    0.506529 0.157449 0.051693 0.252816
H15   H     H_    0.331407 0.125577 0.106922 0.170928
H16   H     H_    0.274960 0.209271 0.023517 0.128690
H17   H     H_    0.302597 0.308585 0.104086 0.172792
H18   H     H_    0.504821 0.831517 0.051934 0.270973
H19   H     H_    0.686439 0.858511 0.140983 0.155080
H20   H     H_    0.733066 0.775978 0.066586 0.150340
H21   H     H_    0.712403 0.674945 0.142432 0.161128
H22   H     H_    0.412129 0.175342 0.935086 0.250636
H23   H     H_    0.887635 0.275486 0.498640 0.175497
H24   H     H_    0.574258 0.091937 0.878422 0.171398
H25   H     H_    0.645471 0.145467 0.966159 0.130356
H26   H     H_    0.652466 0.255906 0.891565 0.174629
H27   H     H_    0.113092 0.721664 0.505784 0.196110
H28   H     H_    0.695917 0.551722 0.736698 0.139053
H29   H     H_    0.368767 0.664918 0.267204 0.193284
H30   H     H_    0.638837 0.332886 0.300219 0.132449
H31   H     H_    0.303414 0.440317 0.694361 0.105985
H32   H     H_    0.697246 0.548347 0.862866 0.105189
N1    N     N_R   0.500000 0.852070 0.500000 -0.323631
N2    N     N_R   0.500000 0.147930 0.500000 -0.326893
N3    N     N_2   0.519626 0.750392 0.929941 -0.527698
N4    N     N_2   0.465411 0.243875 0.068411 -0.527076
N5    N     N_2   0.545291 0.743968 0.076877 -0.514230
N6    N     N_2   0.475571 0.244948 0.921780 -0.518382
O1    O     O_R   0.319640 0.618740 0.500000 -0.454947
O2    O     O_2   0.180250 0.106797 0.363135 -0.212146
O3    O     O_3   0.278875 0.335142 0.377138 -0.494051
O4    O     O_2   0.833577 0.873705 0.589174 -0.296411
O5    O     O_2   0.712920 0.889340 0.683733 -0.219112
O6    O     O_3   0.720866 0.665417 0.622978 -0.507775
O7    O     O_2   0.628915 0.142666 0.686834 -0.270506
O8    O     O_2   0.818283 0.104620 0.638974 -0.215135
O9    O     O_3   0.721040 0.333437 0.622707 -0.499675
O10   O     O_2   0.165988 0.873250 0.412526 -0.289259
O11   O     O_2   0.283382 0.892397 0.316868 -0.239847
O12   O     O_R   0.680360 0.381260 0.500000 -0.464112
O13   O     O_3   0.278942 0.666575 0.377047 -0.512569
O14   O     O_R   0.680360 0.618740 0.500000 -0.457848
O15   O     O_R   0.319640 0.381260 0.500000 -0.462516
O16   O     O_R   0.500020 0.618830 0.400190 -0.451327
O17   O     O_R   0.499980 0.381170 0.599810 -0.436403
O18   O     O_R   0.499980 0.618830 0.599810 -0.446615
O19   O     O_R   0.500020 0.381170 0.400190 -0.442644
O20   O     O_2   0.367904 0.142717 0.313113 -0.275363
S1    S     S_3+6 0.310314 0.166082 0.376742 0.093250
S2    S     S_3+6 0.712087 0.836261 0.611001 0.084153
S3    S     S_3+6 0.688525 0.164783 0.623797 0.093321
S4    S     S_3+6 0.286781 0.837337 0.389593 0.073682

loop_
_geom_bond_atom_site_label_1
_geom_bond_atom_site_label_2
_ccdc_geom_bond_type
C27   H10   S    
C30   H26   S    
O6    S2    S    
C14   C18   A    
C28   N4    S    
C32   N5    S    
C4    C25   S    
C9    C25   A    
H8    O13   S    
C10   H29   S    
C15   C19   A    
Cu1   O14   S    
C21   N1    A    
H6    O6    S    
C36   O1    A    
O5    S2    D    
H5    O3    S    
C1    C2    S    
C2    O14   A    
C17   H4    S    
C7    H23   S    
C9    H28   S    
C20   S1    S    
C29   H21   S    
Cu2   O19   S    
C31   C33   A    
C2    O12   A    
C12   C36   S    
O10   S4    D    
C18   C35   S    
C10   C26   A    
C8    H27   S    
H18   N5    S    
C1    C7    A    
C30   H25   S    
C14   H32   S    
C13   C25   A    
C23   N3    S    
C22   N2    A    
C28   H17   S    
C27   H13   S    
Cu2   N2    S    
Cu1   N1    S    
O13   S4    S    
C1    C6    A    
C20   C24   A    
H9    N3    S    
C5    C12   A    
C5    C7    A    
C28   H16   S    
C31   N4    S    
C6    C8    A    
C11   C26   A    
Cu1   O1    S    
Cu2   O15   S    
H22   N6    S    
Cu2   O12   S    
C3    O16   A    
C32   C34   A    
H7    O9    S    
C9    C14   A    
Cu1   Cu2   S    
O9    S3    S    
C30   N6    S    
C11   C16   A    
C33   N6    S    
C8    C12   A    
O20   S1    D    
O2    S1    D    
C17   C18   A    
C31   C34   A    
C6    H12   S    
C4    O18   A    
C36   O15   A    
C29   H19   S    
C23   C35   A    
C5    H1    S    
C11   H30   S    
O11   S4    D    
C22   S3    S    
Cu1   O16   S    
O4    S2    D    
C24   S4    S    
O8    S3    D    
O3    S1    S    
C3    C26   S    
C19   C34   S    
C3    O19   A    
C28   H15   S    
C29   N5    S    
H14   N4    S    
C13   C17   A    
C10   C15   A    
C23   C32   A    
C30   H24   S    
C27   N3    S    
C21   S2    S    
C13   H31   S    
C16   C19   A    
Cu2   O17   S    
C33   C35   A    
Cu1   O18   S    
C15   H2    S    
C4    O17   A    
C29   H20   S    
C20   N2    A    
O7    S3    D    
C21   C22   A    
C16   H3    S    
C27   H11   S    
C24   N1    A    
