data_mof_unit_50570.cif
_audit_creation_date              2012-10-26T19:46:27-0400
_audit_creation_method            fapswitch 2.2
_symmetry_space_group_name_H-M    P1
_symmetry_Int_Tables_number       1
_space_group_crystal_system       triclinic
_cell_length_a                    10.758111
_cell_length_b                    9.592984
_cell_length_c                    15.132622
_cell_angle_alpha                 89.682585
_cell_angle_beta                  91.269822
_cell_angle_gamma                 89.905947
_cell_volume                      1561.3127891

loop_
_atom_site_label
_atom_site_type_symbol
_atom_type_description
_atom_site_fract_x
_atom_site_fract_y
_atom_site_fract_z
_atom_type_partial_charge
C1    C     C_R   0.262686 0.500104 0.499352 0.627507
C2    C     C_R   0.937572 0.552121 0.573961 0.050182
C3    C     C_R   0.932172 0.446864 0.426805 0.046417
C4    C     C_R   0.067851 0.552935 0.573296 0.049773
C5    C     C_R   0.537009 0.620023 0.095480 -0.124458
C6    C     C_R   0.535728 0.380882 0.906011 -0.121025
C7    C     C_R   0.462144 0.620082 0.903466 -0.125230
C8    C     C_R   0.459950 0.382490 0.095076 -0.125183
C9    C     C_R   0.536327 0.620261 0.187360 -0.133128
C10   C     C_R   0.534962 0.379999 0.814154 -0.131453
C11   C     C_R   0.463157 0.619848 0.811641 -0.124199
C12   C     C_R   0.737317 0.499885 0.500676 0.619410
C13   C     C_R   0.461051 0.382074 0.186895 -0.123226
C14   C     C_R   0.498969 0.500983 0.233570 0.024807
C15   C     C_R   0.499279 0.499689 0.766443 0.025299
C16   C     C_R   0.498573 0.501179 0.048590 0.034103
C17   C     C_R   0.498896 0.500771 0.951423 0.033532
C18   C     C_R   0.871280 0.499609 0.500537 0.059357
C19   C     C_R   0.128733 0.500304 0.499527 0.063732
C20   C     C_R   0.499618 0.500334 0.330095 0.560672
C21   C     C_R   0.499932 0.499758 0.669913 0.552420
C22   C     C_R   0.417181 0.075400 0.447769 0.194530
C23   C     C_R   0.581538 0.923405 0.552570 0.224879
C24   C     C_R   0.584805 0.071320 0.550820 0.179381
C25   C     C_R   0.418178 0.925774 0.447003 0.183689
C26   C     C_R   0.062449 0.447627 0.426150 0.052605
Cu1   Cu    Cu3+1 0.500000 0.640660 0.500000 1.024987
Cu2   Cu    Cu3+1 0.500000 0.359340 0.500000 0.992475
H1    H     H_    0.569171 0.712103 0.061233 0.102738
H2    H     H_    0.343078 0.123283 0.327283 0.190698
H3    H     H_    0.757102 0.873367 0.590718 0.226494
H4    H     H_    0.653917 0.878239 0.673749 0.218754
H5    H     H_    0.653823 0.216046 0.638895 0.269625
H6    H     H_    0.752766 0.168262 0.555964 0.253801
H7    H     H_    0.242921 0.877714 0.406048 0.205460
H8    H     H_    0.349744 0.879334 0.324920 0.198418
H9    H     H_    0.102335 0.296660 0.337661 0.226532
H10   H     H_    0.102865 0.461205 0.296130 0.226288
H11   H     H_    0.897139 0.537974 0.703936 0.225276
H12   H     H_    0.566534 0.288285 0.941459 0.103376
H13   H     H_    0.897795 0.702704 0.662722 0.230064
H14   H     H_    0.882735 0.453061 0.296534 0.226540
H15   H     H_    0.884058 0.291049 0.342615 0.229620
H16   H     H_    0.116002 0.708646 0.657577 0.230899
H17   H     H_    0.117326 0.546582 0.703571 0.227096
H18   H     H_    0.431172 0.713019 0.936845 0.102272
H19   H     H_    0.427613 0.290445 0.060499 0.101269
H20   H     H_    0.566808 0.712893 0.222194 0.125046
H21   H     H_    0.563873 0.286348 0.780672 0.117292
H22   H     H_    0.434113 0.713068 0.776056 0.131497
H23   H     H_    0.430773 0.289335 0.221230 0.127794
H24   H     H_    0.240581 0.122845 0.410892 0.206142
N1    N     N_R   0.500000 0.852070 0.500000 -0.201712
N2    N     N_3   0.139548 0.604336 0.647353 -0.632570
N3    N     N_R   0.500000 0.147930 0.500000 -0.210208
N4    N     N_3   0.330365 0.151268 0.393072 -0.547584
N5    N     N_3   0.666695 0.847164 0.608454 -0.533880
N6    N     N_3   0.684676 0.135644 0.599463 -0.664464
N7    N     N_3   0.333926 0.850650 0.390425 -0.561021
N8    N     N_3   0.128436 0.399477 0.350694 -0.620203
N9    N     N_3   0.871602 0.599980 0.649491 -0.623040
N10   N     N_3   0.860493 0.395372 0.352774 -0.628982
O1    O     O_R   0.319640 0.618740 0.499990 -0.464308
O2    O     O_R   0.680360 0.381260 0.500010 -0.509675
O3    O     O_R   0.680360 0.618740 0.500010 -0.466041
O4    O     O_R   0.319640 0.381260 0.499990 -0.462400
O5    O     O_R   0.499990 0.618780 0.371460 -0.490540
O6    O     O_R   0.500010 0.381220 0.628540 -0.531497
O7    O     O_R   0.500010 0.618780 0.628540 -0.474543
O8    O     O_R   0.499990 0.381220 0.371460 -0.472180

loop_
_geom_bond_atom_site_label_1
_geom_bond_atom_site_label_2
_ccdc_geom_bond_type
C6    C10   A    
C2    C4    A    
C23   C24   A    
Cu1   N1    S    
C5    C9    A    
C8    C13   A    
Cu1   O3    S    
C14   C20   S    
C2    C18   A    
C12   O3    A    
H14   N10   S    
C20   O5    A    
Cu2   O4    S    
Cu1   O7    S    
C2    N9    S    
H13   N9    S    
C9    C14   A    
H8    N7    S    
H3    N5    S    
C11   C15   A    
C1    O4    A    
C8    H19   S    
C8    C16   A    
C11   H22   S    
C13   C14   A    
C24   N3    A    
C7    C11   A    
C10   H21   S    
C20   O8    A    
H5    N6    S    
C26   N8    S    
Cu1   O1    S    
H4    N5    S    
C9    H20   S    
H10   N8    S    
C1    O1    A    
H7    N7    S    
Cu2   O6    S    
Cu2   N3    S    
C25   N1    A    
H17   N2    S    
C23   N1    A    
C5    H1    S    
C10   C15   A    
C21   O6    A    
C12   O2    A    
H6    N6    S    
C6    H12   S    
C1    C19   S    
H9    N8    S    
Cu1   O5    S    
C7    H18   S    
H16   N2    S    
C15   C21   S    
H11   N9    S    
Cu2   O2    S    
C3    C18   A    
C24   N6    S    
C3    N10   S    
C12   C18   S    
Cu1   Cu2   S    
C23   N5    S    
C6    C17   A    
C5    C16   A    
C22   N4    S    
C22   N3    A    
C25   N7    S    
C4    N2    S    
C13   H23   S    
C4    C19   A    
H2    N4    S    
C3    C26   A    
Cu2   O8    S    
H24   N4    S    
H15   N10   S    
C21   O7    A    
C16   C17   S    
C7    C17   A    
C22   C25   A    
C19   C26   A    
