data_mof_unit_16586.cif
_audit_creation_date              2012-12-10T16:51:29-0500
_audit_creation_method            fapswitch 2.2
_symmetry_space_group_name_H-M    P1
_symmetry_Int_Tables_number       1
_space_group_crystal_system       triclinic
_cell_length_a                    7.822057
_cell_length_b                    8.59449
_cell_length_c                    12.02405
_cell_angle_alpha                 92.332851
_cell_angle_beta                  101.054951
_cell_angle_gamma                 94.185961
_cell_volume                      789.983389548

loop_
_atom_site_label
_atom_site_type_symbol
_atom_type_description
_atom_site_fract_x
_atom_site_fract_y
_atom_site_fract_z
_atom_type_partial_charge
C1    C     C_R   0.042223 0.793874 0.491395 0.813794
C2    C     C_R   0.160525 0.516680 0.834654 -0.233811
C3    C     C_2   0.057614 0.955061 0.471276 0.261642
C4    C     C_R   0.106758 0.509174 0.711179 0.846690
C5    C     C_2   0.933498 0.041157 0.499673 -0.433092
C6    C     C_R   0.954229 0.205068 0.499028 0.980164
C7    C     C_R   0.892858 0.488707 0.289346 0.858094
C8    C     C_R   0.796054 0.274058 0.008032 -0.174273
C9    C     C_R   0.832449 0.459851 0.168515 -0.195353
C10   C     C_R   0.080796 0.614210 0.905030 0.450379
C11   C     C_R   0.147392 0.628943 0.021154 -0.153531
C12   C     C_R   0.394443 0.486287 0.993379 0.098399
C13   C     C_R   0.305025 0.569224 0.065029 -0.203539
C14   C     C_R   0.306219 0.438008 0.883245 0.017454
C15   C     C_R   0.567201 0.446166 0.028485 0.066847
C16   C     C_R   0.630692 0.325246 0.967470 0.102583
C17   C     C_R   0.527383 0.257052 0.867501 -0.196273
C18   C     C_R   0.368275 0.314972 0.824332 -0.160588
C19   C     C_R   0.681528 0.527877 0.119253 0.394019
C20   C     C_R   0.893582 0.336744 0.111291 -0.233579
H1    H     H_    0.011558 0.284595 0.148880 0.186238
H2    H     H_    0.753607 0.727963 0.204580 0.330993
H3    H     H_    0.960891 0.743068 0.792565 0.332671
H4    H     H_    0.259127 0.933306 0.397949 0.341471
H5    H     H_    0.822271 0.992255 0.532637 0.147169
H6    H     H_    0.469769 0.374904 0.416236 0.205741
H7    H     H_    0.530219 0.625076 0.583771 0.199760
H8    H     H_    0.572056 0.162707 0.820767 0.153617
H9    H     H_    0.844855 0.179962 0.963504 0.159736
H10   H     H_    0.354134 0.586518 0.155408 0.209207
H11   H     H_    0.083077 0.696387 0.076607 0.168374
H12   H     H_    0.293019 0.260632 0.745617 0.165386
N1    N     N_2   0.434800 0.456690 0.470850 -0.160317
N2    N     N_2   0.565200 0.543310 0.529150 -0.161187
O1    O     O_R   0.893060 0.738880 0.507150 -0.630404
O2    O     O_3   0.941296 0.698777 0.864225 -0.754858
O3    O     O_3   0.189930 0.017434 0.419799 -0.745296
O4    O     O_R   0.172250 0.711130 0.488470 -0.629405
O5    O     O_R   0.944700 0.520730 0.667600 -0.589709
O6    O     O_R   0.223890 0.492980 0.648920 -0.611912
O7    O     O_R   0.827750 0.288870 0.511530 -0.631277
O8    O     O_R   0.106940 0.261120 0.492850 -0.537082
O9    O     O_R   0.776110 0.507020 0.351080 -0.598288
O10   O     O_R   0.055300 0.479270 0.332400 -0.614732
O11   O     O_3   0.645916 0.673929 0.157593 -0.774815
Zn1   Zn    Zn3+2 0.813580 0.518530 0.512470 0.963015
Zn2   Zn    Zn3+2 0.186420 0.481470 0.487530 0.969878

loop_
_geom_bond_atom_site_label_1
_geom_bond_atom_site_label_2
_ccdc_geom_bond_type
O6    Zn2   S    
C2    C4    S    
O7    Zn1   S    
C19   O11   S    
N2    Zn1   S    
C7    O9    A    
C14   C18   A    
C4    O5    A    
O10   Zn2   S    
H4    O3    S    
C2    C14   A    
C11   H11   S    
C8    C16   A    
C7    O10   A    
C12   C13   A    
C15   C19   A    
C11   C13   A    
C1    O1    A    
O4    Zn2   S    
C8    C20   A    
C1    O4    A    
O5    Zn1   S    
C5    H5    S    
C8    H9    S    
C12   C14   A    
N1    N2    D    
C12   C15   A    
O8    Zn2   S    
H7    N2    S    
C5    C6    S    
N1    Zn2   S    
O9    Zn1   S    
C18   H12   S    
C10   C11   A    
C15   C16   A    
C2    C10   A    
C13   H10   S    
H2    O11   S    
C20   H1    S    
C3    O3    S    
C17   C18   A    
H3    O2    S    
C6    O8    A    
C7    C9    S    
C10   O2    S    
C9    C20   A    
C3    C5    D    
C17   H8    S    
C9    C19   A    
C4    O6    A    
H6    N1    S    
C16   C17   A    
C1    C3    S    
C6    O7    A    
O1    Zn1   S    
