data_mof_unit_53113.cif
_audit_creation_date              2013-03-05T16:48:17-0500
_audit_creation_method            fapswitch 2.2
_symmetry_space_group_name_H-M    P1
_symmetry_Int_Tables_number       1
_space_group_crystal_system       monoclinic
_cell_length_a                    23.494539
_cell_length_b                    8.926631
_cell_length_c                    8.089993
_cell_angle_alpha                 89.997729
_cell_angle_beta                  90.0
_cell_angle_gamma                 90.0
_cell_volume                      1696.69060914

loop_
_atom_site_label
_atom_site_type_symbol
_atom_site_description
_atom_site_fract_x
_atom_site_fract_y
_atom_site_fract_z
_atom_type_partial_charge
O1    O     O_R   0.500000 0.285350 0.636850 -0.615662
O2    O     O_R   0.500000 0.714650 0.363150 -0.615662
O3    O     O_R   0.500000 0.714650 0.636850 -0.622060
O4    O     O_R   0.500000 0.285350 0.363150 -0.622060
C1    C     C_R   0.500000 0.217942 0.500003 0.916185
C2    C     C_R   0.500000 0.782058 0.499997 0.916184
O5    O     O_R   0.416160 0.500000 0.636910 -0.564883
O6    O     O_R   0.583840 0.500000 0.363090 -0.564884
O7    O     O_R   0.583840 0.500000 0.636910 -0.564884
O8    O     O_R   0.416160 0.500000 0.363090 -0.564883
C3    C     C_R   0.207887 0.500000 0.500000 -0.238991
C4    C     C_R   0.792113 0.500000 0.500000 -0.238986
C5    C     C_R   0.388884 0.500000 0.500000 1.035268
C6    C     C_R   0.611116 0.500000 0.500000 1.035273
Zn1   Zn    Zn3+2 0.500000 0.500000 0.682780 1.110321
Zn2   Zn    Zn3+2 0.500000 0.500000 0.317220 1.110321
C7    C     C_R   0.296335 0.523023 0.351460 0.515553
C8    C     C_R   0.703665 0.476958 0.648536 0.515554
C9    C     C_R   0.296335 0.476977 0.648540 0.515553
C10   C     C_R   0.703665 0.523042 0.351463 0.515554
C11   C     C_R   0.326528 0.500000 0.500000 -0.568286
C12   C     C_R   0.673472 0.500000 0.500000 -0.568281
C13   C     C_R   0.880559 0.627480 0.545427 0.750498
C14   C     C_R   0.119440 0.372520 0.454574 0.750499
C15   C     C_R   0.880559 0.372520 0.454573 0.750499
C16   C     C_R   0.119440 0.627480 0.545426 0.750499
N1    N     N_R   0.852616 0.500000 0.500000 -0.313948
N2    N     N_R   0.147383 0.500000 0.500000 -0.313949
C17   C     C_R   0.940126 0.369380 0.453121 -0.245294
C18   C     C_R   0.059874 0.630620 0.546878 -0.245294
C19   C     C_R   0.940126 0.630620 0.546879 -0.245294
C20   C     C_R   0.059874 0.369379 0.453122 -0.245294
C21   C     C_R   0.970035 0.500000 0.500000 -0.150778
C22   C     C_R   0.029965 0.500000 0.500000 -0.150778
C23   C     C_R   0.970408 0.240068 0.406380 0.646696
C24   C     C_R   0.029591 0.759932 0.593619 0.646695
C25   C     C_R   0.970408 0.759932 0.593619 0.646696
C26   C     C_R   0.029591 0.240068 0.406381 0.646696
C27   C     C_1   0.500000 0.065191 0.500003 -0.125847
C28   C     C_1   0.500000 0.934809 0.499997 -0.125847
C29   C     C_R   0.237238 0.522853 0.352135 0.609728
C30   C     C_R   0.762762 0.477129 0.647861 0.609729
C31   C     C_R   0.237237 0.477147 0.647864 0.609728
C32   C     C_R   0.762762 0.522871 0.352139 0.609729
N3    N     N_1   0.500000 0.500000 0.073640 0.029072
N4    N     N_1   0.500000 0.500000 0.926360 0.029072
O9    O     O_2   0.850435 0.750197 0.588374 -0.393757
O10   O     O_2   0.149565 0.249802 0.411628 -0.393758
O11   O     O_2   0.850435 0.249803 0.411626 -0.393757
O12   O     O_2   0.149565 0.750198 0.588372 -0.393758
F1    F     F_    0.943163 0.112692 0.359718 -0.512827
F2    F     F_    0.056837 0.887308 0.640281 -0.512828
F3    F     F_    0.943163 0.887308 0.640282 -0.512827
F4    F     F_    0.056837 0.112692 0.359718 -0.512828
F5    F     F_    0.208258 0.545596 0.209149 -0.511772
F6    F     F_    0.791742 0.454368 0.790844 -0.511778
F7    F     F_    0.208258 0.454404 0.790851 -0.511772
F8    F     F_    0.791742 0.545632 0.209156 -0.511778
F9    F     F_    0.323636 0.547183 0.205902 -0.521575
F10   F     F_    0.676364 0.452780 0.794091 -0.521584
F11   F     F_    0.323636 0.452817 0.794098 -0.521575
F12   F     F_    0.676364 0.547220 0.205909 -0.521584

loop_
_geom_bond_atom_site_label_1
_geom_bond_atom_site_label_2
_geom_bond_distance
_ccdc_geom_bond_type
Zn2   N3    1.970560 S    
O4    Zn2   1.951783 S    
C32   F8    1.357517 S    
C4    C30   1.395730 A    
O7    C6    1.279623 A    
C19   C21   1.413222 A    
C3    C31   1.395729 A    
O1    Zn1   1.951812 S    
C13   N1    1.364206 A    
C15   N1    1.364206 A    
O2    Zn2   1.951811 S    
C17   C23   1.407713 A    
C16   N2    1.364206 A    
C24   F2    1.358366 S    
C18   C24   1.407713 A    
O3    C2    1.260069 A    
C25   F3    1.358365 S    
C6    C12   1.465044 S    
C16   O12   1.349695 S    
C14   C20   1.399820 A    
C21   C22   1.408042 A    
O7    Zn1   2.004432 S    
C5    C11   1.465047 S    
C4    C32   1.395731 A    
O8    Zn2   2.004435 S    
N3    N4    1.191493 T    
C23   F1    1.358365 S    
O2    C2    1.260075 A    
C3    N2    1.421507 S    
C7    F9    1.358155 S    
O1    C1    1.260075 A    
O5    Zn1   2.004435 S    
C24   C25   1.390477 A    
C10   C32   1.388471 A    
C9    F11   1.358156 S    
C16   C18   1.399820 A    
C7    C29   1.388471 A    
C20   C26   1.407713 A    
C8    C30   1.388471 A    
C10   F12   1.358158 S    
C14   N2    1.364206 A    
C15   O11   1.349695 S    
C13   O9    1.349696 S    
C18   C22   1.413222 A    
C4    N1    1.421507 S    
C13   C19   1.399820 A    
C14   O10   1.349695 S    
C17   C21   1.413221 A    
O5    C5    1.279623 A    
C2    C28   1.363552 S    
O3    Zn1   1.951782 S    
C15   C17   1.399820 A    
O6    Zn2   2.004432 S    
C3    C29   1.395731 A    
C8    F10   1.358158 S    
C27   C28   1.163868 T    
C1    C27   1.363552 S    
C31   F7    1.357516 S    
C23   C26   1.390477 A    
C29   F5    1.357516 S    
O6    C6    1.279624 A    
C9    C31   1.388473 A    
Zn1   N4    1.970560 S    
C30   F6    1.357517 S    
C20   C22   1.413222 A    
C8    C12   1.410487 A    
C7    C11   1.410488 A    
C19   C25   1.407713 A    
C10   C12   1.410487 A    
O4    C1    1.260069 A    
C9    C11   1.410486 A    
O8    C5    1.279624 A    
C26   F4    1.358364 S    
