data_mof_unit_67993.cif
_audit_creation_date              2012-12-11T14:04:08-0500
_audit_creation_method            fapswitch 2.2
_symmetry_space_group_name_H-M    P1
_symmetry_Int_Tables_number       1
_space_group_crystal_system       triclinic
_cell_length_a                    19.27124
_cell_length_b                    11.173727
_cell_length_c                    18.704725
_cell_angle_alpha                 89.142387
_cell_angle_beta                  88.525336
_cell_angle_gamma                 90.228516
_cell_volume                      4025.89434166

loop_
_atom_site_label
_atom_site_type_symbol
_atom_type_description
_atom_site_fract_x
_atom_site_fract_y
_atom_site_fract_z
_atom_type_partial_charge
C1    C     C_R   0.239110 0.470216 0.645277 0.546127
C2    C     C_R   0.760993 0.473133 0.355127 0.544280
C3    C     C_R   0.739301 0.972952 0.644976 0.546463
C4    C     C_R   0.262224 0.974675 0.355986 0.553098
C5    C     C_2   0.289678 0.839388 0.538899 -0.034039
C6    C     C_2   0.724464 0.822742 0.466971 -0.051867
C7    C     C_2   0.771259 0.318580 0.533291 -0.085084
C8    C     C_2   0.207579 0.337662 0.463079 -0.009508
C9    C     C_R   0.996853 0.657332 0.429276 -0.007634
C10   C     C_R   0.989737 0.671618 0.579291 0.012958
C11   C     C_R   0.507712 0.159756 0.422209 0.002636
C12   C     C_R   0.497768 0.173264 0.572704 0.005912
C13   C     C_R   0.027869 0.872090 0.420837 0.310002
C14   C     C_R   0.994900 0.892113 0.568689 0.318979
C15   C     C_R   0.531377 0.373705 0.410367 0.326371
C16   C     C_R   0.498648 0.399131 0.557456 0.321386
C17   C     C_R   0.022482 0.984120 0.452336 0.315304
C18   C     C_R   0.008922 0.993046 0.526228 0.307703
C19   C     C_R   0.512799 0.484576 0.437010 0.325636
C20   C     C_R   0.493030 0.495431 0.508865 0.292010
C21   C     C_R   0.997878 0.777538 0.537348 -0.081113
C22   C     C_R   0.007421 0.768835 0.461696 -0.094350
C23   C     C_R   0.506999 0.281183 0.530103 -0.044720
C24   C     C_R   0.516352 0.271007 0.454013 -0.093012
C25   C     C_R   0.969786 0.567255 0.545736 -0.015647
C26   C     C_R   0.989678 0.553807 0.473613 -0.025505
C27   C     C_R   0.484165 0.066191 0.536527 -0.021586
C28   C     C_R   0.508431 0.056959 0.465490 -0.019887
C29   C     C_R   0.936520 0.471630 0.583381 0.230226
C30   C     C_R   0.998631 0.436441 0.448773 0.283042
C31   C     C_R   0.465325 0.960215 0.573467 0.257508
C32   C     C_R   0.536672 0.946865 0.442406 0.261217
C33   C     C_R   0.932080 0.361221 0.551234 -0.040094
C34   C     C_R   0.965886 0.342783 0.485760 0.028241
C35   C     C_R   0.502533 0.858744 0.556711 0.000443
C36   C     C_R   0.537574 0.850783 0.490744 0.008249
C37   C     C_2   0.238626 0.903216 0.926531 -0.063924
C38   C     C_2   0.777242 0.860525 0.065885 -0.068014
C39   C     C_2   0.738392 0.402549 0.926865 -0.058903
C40   C     C_2   0.277219 0.360710 0.066053 -0.073296
C41   C     C_2   0.249259 0.894916 0.086648 0.240502
C42   C     C_2   0.756591 0.879320 0.907888 0.248296
C43   C     C_2   0.748043 0.393658 0.087156 0.232955
C44   C     C_2   0.257791 0.379769 0.907732 0.250832
C45   C     C_R   0.229598 0.876411 0.649953 0.554536
C46   C     C_R   0.770837 0.874750 0.350654 0.551817
C47   C     C_R   0.728732 0.374692 0.648928 0.565375
C48   C     C_R   0.270654 0.375019 0.350974 0.553989
C49   C     C_2   0.190356 0.910831 0.050938 0.263440
C50   C     C_2   0.817297 0.889467 0.942519 0.245928
C51   C     C_2   0.689282 0.411118 0.051036 0.259410
C52   C     C_2   0.317803 0.394344 0.943408 0.242505
C53   C     C_2   0.186429 0.883186 0.974583 -0.065312
C54   C     C_2   0.824510 0.836483 0.014702 -0.142663
C55   C     C_2   0.686075 0.381903 0.974694 -0.068193
C56   C     C_2   0.325822 0.341871 0.015416 -0.143179
C57   C     C_2   0.012291 0.650961 0.926963 -0.091689
C58   C     C_2   0.011009 0.673204 0.084510 -0.105961
C59   C     C_2   0.512274 0.150823 0.926980 -0.096512
C60   C     C_2   0.511267 0.172786 0.084646 -0.109901
C61   C     C_2   0.040696 0.586580 0.047039 0.252730
C62   C     C_2   0.060395 0.614388 0.973655 0.232323
C63   C     C_2   0.540103 0.085576 0.046936 0.254044
C64   C     C_2   0.560111 0.113637 0.973748 0.232253
C65   C     C_R   0.028949 0.656353 0.646055 0.581222
C66   C     C_R   0.968695 0.653165 0.355818 0.577550
C67   C     C_R   0.529723 0.157308 0.644814 0.574729
C68   C     C_R   0.470103 0.153474 0.354481 0.580276
C69   C     C_R   0.240559 0.459506 0.847387 0.624314
C70   C     C_R   0.760943 0.463757 0.150844 0.553318
C71   C     C_R   0.739986 0.960615 0.848179 0.622594
C72   C     C_R   0.261155 0.963995 0.150765 0.554193
C73   C     C_R   0.225879 0.871458 0.853317 0.564632
C74   C     C_R   0.791056 0.829834 0.139329 0.548961
C75   C     C_R   0.725845 0.371310 0.853430 0.571258
C76   C     C_R   0.291017 0.329939 0.139380 0.549476
C77   C     C_R   0.030797 0.650777 0.851760 0.569704
C78   C     C_R   0.971617 0.653815 0.150198 0.542696
C79   C     C_R   0.530999 0.150718 0.851840 0.571426
C80   C     C_R   0.471385 0.153731 0.150014 0.537255
C81   C     C_2   0.261959 0.920687 0.584264 -0.036074
C82   C     C_2   0.742209 0.909903 0.419275 -0.039793
C83   C     C_2   0.755734 0.407898 0.578988 -0.055413
C84   C     C_2   0.239766 0.417711 0.417893 -0.069909
C85   C     C_2   0.250512 0.927885 0.427683 0.155975
C86   C     C_2   0.756771 0.922358 0.575700 0.170024
C87   C     C_2   0.742357 0.419132 0.423460 0.170716
C88   C     C_2   0.251828 0.414074 0.575497 0.169974
C89   C     C_2   0.298626 0.863287 0.462238 0.242129
C90   C     C_2   0.713113 0.848168 0.542702 0.230665
C91   C     C_2   0.783419 0.341279 0.457002 0.225023
C92   C     C_2   0.200824 0.357061 0.540950 0.262998
Cr1   Cr    Cr6+3 0.113970 0.508630 0.747920 1.090648
Cr2   Cr    Cr6+3 0.886030 0.508630 0.252080 1.061021
Cr3   Cr    Cr6+3 0.613970 0.008630 0.747920 1.069496
Cr4   Cr    Cr6+3 0.386030 0.008630 0.252080 1.086506
Cr5   Cr    Cr6+3 0.269200 0.666740 0.749850 1.065766
Cr6   Cr    Cr6+3 0.730800 0.666740 0.250150 1.127069
Cr7   Cr    Cr6+3 0.769200 0.166740 0.749850 1.082417
Cr8   Cr    Cr6+3 0.230800 0.166740 0.250150 1.096995
Cr9   Cr    Cr6+3 0.112300 0.820070 0.749800 1.043280
Cr10  Cr    Cr6+3 0.887700 0.820070 0.250200 1.009095
Cr11  Cr    Cr6+3 0.612300 0.320070 0.749800 1.020437
Cr12  Cr    Cr6+3 0.387700 0.320070 0.250200 1.018598
H1    H     H_    0.136050 0.853509 0.956689 0.157446
H2    H     H_    0.873539 0.795385 0.028408 0.101417
H3    H     H_    0.636199 0.350663 0.956417 0.157991
H4    H     H_    0.376051 0.305882 0.029590 0.102705
H5    H     H_    0.289152 0.936753 0.941016 0.139534
H6    H     H_    0.729643 0.907957 0.054096 0.213966
H7    H     H_    0.788690 0.436717 0.941702 0.140488
H8    H     H_    0.228303 0.403652 0.053951 0.215497
H9    H     H_    0.008649 0.762909 0.061032 0.063112
H10   H     H_    0.958187 0.661775 0.943320 0.049462
H11   H     H_    0.509899 0.262824 0.061504 0.061564
H12   H     H_    0.458151 0.161849 0.943210 0.042141
H13   H     H_    0.298054 0.747193 0.555828 0.193210
H14   H     H_    0.723557 0.729304 0.451743 0.177134
H15   H     H_    0.770994 0.225547 0.551050 0.175065
H16   H     H_    0.192328 0.249885 0.444666 0.227488
H17   H     H_    0.257723 0.014273 0.569461 0.124427
H18   H     H_    0.738616 0.003215 0.433280 0.109436
H19   H     H_    0.759363 0.501367 0.563021 0.120470
H20   H     H_    0.252431 0.506520 0.435721 0.106080
H21   H     H_    0.905220 0.287884 0.578545 0.207955
H22   H     H_    0.964414 0.255635 0.462832 0.244779
H23   H     H_    0.505919 0.788381 0.596509 0.196873
H24   H     H_    0.566347 0.770838 0.478021 0.239773
O1    O     O_R   0.043230 0.549300 0.667990 -0.460648
O2    O     O_R   0.956770 0.549300 0.332010 -0.479342
O3    O     O_R   0.543230 0.049300 0.667990 -0.481863
O4    O     O_R   0.456770 0.049300 0.332010 -0.457721
O5    O     O_R   0.262920 0.788600 0.824420 -0.473588
O6    O     O_R   0.737080 0.788600 0.175580 -0.460255
O7    O     O_R   0.762920 0.288600 0.824420 -0.458998
O8    O     O_R   0.237080 0.288600 0.175580 -0.474964
O9    O     O_R   0.167530 0.905110 0.830340 -0.533963
O10   O     O_R   0.832470 0.905110 0.169660 -0.532210
O11   O     O_R   0.667530 0.405110 0.830340 -0.541168
O12   O     O_R   0.332470 0.405110 0.169660 -0.530225
O13   O     O_R   0.054010 0.748440 0.822860 -0.511301
O14   O     O_R   0.945990 0.748440 0.177140 -0.542642
O15   O     O_R   0.554010 0.248440 0.822860 -0.517911
O16   O     O_R   0.445990 0.248440 0.177140 -0.546708
O17   O     O_3   0.165160 0.665150 0.749190 -0.272296
O18   O     O_3   0.834840 0.665150 0.250810 -0.312300
O19   O     O_3   0.665160 0.165150 0.749190 -0.270913
O20   O     O_3   0.334840 0.165150 0.250810 -0.309811
O21   O     O_R   0.178620 0.457600 0.674100 -0.497584
O22   O     O_R   0.821380 0.457600 0.325900 -0.496200
O23   O     O_R   0.678620 0.957600 0.674100 -0.491685
O24   O     O_R   0.321380 0.957600 0.325900 -0.495488
O25   O     O_R   0.284680 0.542100 0.669460 -0.520800
O26   O     O_R   0.715320 0.542100 0.330540 -0.454593
O27   O     O_R   0.784680 0.042100 0.669460 -0.525932
O28   O     O_R   0.215320 0.042100 0.330540 -0.446579
O29   O     O_R   0.262860 0.790390 0.676650 -0.472353
O30   O     O_R   0.737140 0.790390 0.323350 -0.447275
O31   O     O_R   0.762860 0.290390 0.676650 -0.473793
O32   O     O_R   0.237140 0.290390 0.323350 -0.459916
O33   O     O_R   0.167460 0.907030 0.670940 -0.505119
O34   O     O_R   0.832540 0.907030 0.329060 -0.521869
O35   O     O_R   0.667460 0.407030 0.670940 -0.505150
O36   O     O_R   0.332540 0.407030 0.329060 -0.509705
O37   O     O_R   0.053950 0.750220 0.675100 -0.459663
O38   O     O_R   0.946050 0.750220 0.324900 -0.452710
O39   O     O_R   0.553950 0.250220 0.675100 -0.457403
O40   O     O_R   0.446050 0.250220 0.324900 -0.457451
O41   O     O_R   0.043300 0.547370 0.827390 -0.454198
O42   O     O_R   0.956700 0.547370 0.172610 -0.430577
O43   O     O_R   0.543300 0.047370 0.827390 -0.455844
O44   O     O_R   0.456700 0.047370 0.172610 -0.423971
O45   O     O_R   0.178690 0.455820 0.821860 -0.449105
O46   O     O_R   0.821310 0.455820 0.178140 -0.492365
O47   O     O_R   0.678690 0.955820 0.821860 -0.453374
O48   O     O_R   0.321310 0.955820 0.178140 -0.484157
O49   O     O_R   0.284750 0.540170 0.828860 -0.491780
O50   O     O_R   0.715250 0.540170 0.171140 -0.483848
O51   O     O_R   0.784750 0.040170 0.828860 -0.477887
O52   O     O_R   0.215250 0.040170 0.171140 -0.509221
O53   O     O_3   0.354572 0.811836 0.425940 -0.508540
C93   C     C_3   0.332590 0.707050 0.390596 0.052313
H25   H     H_    0.275097 0.700026 0.384939 0.061695
H26   H     H_    0.348262 0.628684 0.423319 0.226268
C94   C     C_3   0.369012 0.698287 0.316466 -0.210564
H27   H     H_    0.405042 0.775110 0.306793 0.241630
H28   H     H_    0.400320 0.615440 0.314174 0.193645
C95   C     C_3   0.318086 0.692238 0.255465 -0.427754
H29   H     H_    0.290585 0.604955 0.257295 0.165302
H30   H     H_    0.346872 0.700084 0.203455 0.197816
H31   H     H_    0.279550 0.765353 0.259032 0.153145
O54   O     O_3   0.654576 0.801391 0.577601 -0.587210
C96   C     C_3   0.672477 0.701191 0.620109 0.017326
H32   H     H_    0.726922 0.705104 0.639082 0.104397
H33   H     H_    0.667502 0.620299 0.587279 0.200510
C97   C     C_3   0.621191 0.689018 0.684257 -0.249201
H34   H     H_    0.590920 0.772648 0.691351 0.199474
H35   H     H_    0.583434 0.615995 0.674373 0.187820
C98   C     C_3   0.658201 0.662380 0.753842 -0.411668
H36   H     H_    0.695811 0.588431 0.747013 0.182821
H37   H     H_    0.619812 0.637337 0.796651 0.169019
H38   H     H_    0.686844 0.742788 0.770538 0.175185
O55   O     O_3   0.842562 0.295505 0.424087 -0.582069
C99   C     C_3   0.825604 0.204888 0.375708 0.015758
H39   H     H_    0.774458 0.219301 0.350334 0.089136
H40   H     H_    0.823680 0.119344 0.405601 0.194623
C100  C     C_3   0.883638 0.194793 0.318175 -0.234600
H41   H     H_    0.915006 0.278500 0.314538 0.235270
H42   H     H_    0.918886 0.120616 0.332824 0.199329
C101  C     C_3   0.854875 0.169794 0.244725 -0.419242
H43   H     H_    0.818479 0.092884 0.247454 0.187238
H44   H     H_    0.897329 0.150144 0.205834 0.163746
H45   H     H_    0.827301 0.249458 0.225072 0.187982
O56   O     O_3   0.145305 0.304465 0.578662 -0.500263
C102  C     C_3   0.169149 0.203649 0.618453 0.065279
H46   H     H_    0.226523 0.202029 0.625803 0.088681
H47   H     H_    0.157251 0.122196 0.588180 0.228333
C103  C     C_3   0.131357 0.194308 0.691985 -0.221033
H48   H     H_    0.100054 0.275733 0.702526 0.220831
H49   H     H_    0.094834 0.117119 0.693037 0.199722
C104  C     C_3   0.181944 0.176021 0.752614 -0.429566
H50   H     H_    0.214213 0.095427 0.743400 0.170061
H51   H     H_    0.152561 0.163994 0.803945 0.193194
H52   H     H_    0.216650 0.254840 0.756212 0.152730
Cl1   Cl    Cl    0.317453 0.802200 0.055623 -0.706184
Cl2   Cl    Cl    0.692159 0.773663 0.935506 -0.678173
Cl3   Cl    Cl    0.814934 0.297082 0.056735 -0.684646
Cl4   Cl    Cl    0.194688 0.271821 0.935515 -0.684096
Cl5   Cl    Cl    0.058456 0.442084 0.081255 -0.557719
Cl6   Cl    Cl    0.148982 0.602095 0.951639 -0.560614
Cl7   Cl    Cl    0.556073 0.939751 0.080305 -0.531056
Cl8   Cl    Cl    0.648736 0.101241 0.952241 -0.561259
Cl9   Cl    Cl    0.172879 0.973012 0.469592 -0.699640
Cl10  Cl    Cl    0.834352 0.977818 0.532731 -0.752869
Cl11  Cl    Cl    0.665949 0.475836 0.464658 -0.716528
Cl12  Cl    Cl    0.334446 0.421579 0.535036 -0.737994
Cl13  Cl    Cl    0.046510 0.109654 0.399155 -0.502396
Cl14  Cl    Cl    0.015738 0.128045 0.570376 -0.581093
Cl15  Cl    Cl    0.521309 0.611408 0.380465 -0.522193
Cl16  Cl    Cl    0.446024 0.620299 0.534852 -0.605439
O57   O     O_3   0.049968 0.869577 0.349102 -0.511637
C105  C     C_3   0.107575 0.793148 0.336612 0.034308
H53   H     H_    0.106552 0.708835 0.368340 0.126619
H54   H     H_    0.154946 0.838405 0.352010 0.169897
C106  C     C_3   0.114897 0.767037 0.256327 -0.273551
H55   H     H_    0.067014 0.793038 0.228555 0.218031
H56   H     H_    0.157855 0.821980 0.232282 0.156711
C107  C     C_3   0.129306 0.635109 0.241977 -0.421519
H57   H     H_    0.172170 0.602008 0.275245 0.143545
H58   H     H_    0.143763 0.623525 0.184649 0.196267
H59   H     H_    0.082252 0.580642 0.254723 0.226525
O58   O     O_3   0.982033 0.908901 0.641566 -0.517128
C108  C     C_3   0.914365 0.872057 0.662659 0.024528
H60   H     H_    0.888692 0.811279 0.624636 0.155750
H61   H     H_    0.885963 0.955063 0.666588 0.242050
C109  C     C_3   0.910884 0.814752 0.737734 -0.249447
H62   H     H_    0.946904 0.739331 0.742551 0.209275
H63   H     H_    0.924205 0.882110 0.778049 0.189367
C110  C     C_3   0.838810 0.764208 0.755032 -0.460699
H64   H     H_    0.799374 0.834331 0.748152 0.141327
H65   H     H_    0.836276 0.729316 0.810914 0.168975
H66   H     H_    0.826663 0.690049 0.718704 0.185286
O59   O     O_3   0.552649 0.369332 0.338273 -0.512573
C111  C     C_3   0.611537 0.296247 0.325006 0.025597
H67   H     H_    0.623996 0.231676 0.368556 0.124934
H68   H     H_    0.656350 0.355494 0.317595 0.183607
C112  C     C_3   0.604256 0.231106 0.253939 -0.247873
H69   H     H_    0.564868 0.159512 0.259087 0.208343
H70   H     H_    0.588107 0.295651 0.211907 0.200320
C113  C     C_3   0.671853 0.173132 0.229441 -0.441611
H71   H     H_    0.690191 0.109480 0.270966 0.167211
H72   H     H_    0.711350 0.243527 0.218595 0.136022
H73   H     H_    0.663729 0.123608 0.179267 0.214442
O60   O     O_3   0.497694 0.425008 0.629874 -0.542777
C114  C     C_3   0.431104 0.406257 0.661028 0.036275
H74   H     H_    0.406025 0.323691 0.640953 0.175048
H75   H     H_    0.399886 0.485398 0.648316 0.251714
C115  C     C_3   0.434111 0.399937 0.742772 -0.258441
H76   H     H_    0.488667 0.401106 0.759689 0.213018
H77   H     H_    0.408895 0.480424 0.765795 0.170067
C116  C     C_3   0.396842 0.288750 0.773422 -0.410172
H78   H     H_    0.340814 0.292607 0.761375 0.131285
H79   H     H_    0.402428 0.283920 0.832172 0.173907
H80   H     H_    0.419365 0.206277 0.750181 0.181816
Cl17  Cl    Cl    0.059097 0.402242 0.379518 -0.574954
Cl18  Cl    Cl    0.896237 0.488103 0.668371 -0.677075
Cl19  Cl    Cl    0.583862 0.932534 0.360944 -0.589892
Cl20  Cl    Cl    0.410365 0.958924 0.650699 -0.646919
O61   O     O_3   0.130799 0.940921 0.090136 -0.582234
C117  C     C_3   0.089560 0.026072 0.054564 -0.006454
H81   H     H_    0.044450 0.978800 0.032831 0.111073
H82   H     H_    0.117246 0.074622 0.009751 0.174931
C118  C     C_3   0.064236 0.120588 0.107506 -0.207968
H83   H     H_    0.108333 0.180216 0.120401 0.231639
H84   H     H_    0.023826 0.176071 0.081893 0.169997
C119  C     C_3   0.034128 0.065869 0.177007 -0.342438
H85   H     H_    0.074144 0.014072 0.205545 0.224213
H86   H     H_    0.989495 0.006421 0.165799 0.148513
H87   H     H_    0.016739 0.138678 0.212854 0.156448
O62   O     O_3   0.872466 0.953729 0.910827 -0.575561
C120  C     C_3   0.900834 0.034580 0.959807 0.028497
H88   H     H_    0.936152 0.986306 0.995939 0.109163
H89   H     H_    0.859473 0.077863 0.993032 0.200846
C121  C     C_3   0.940634 0.135018 0.919899 -0.223049
H90   H     H_    0.904531 0.185367 0.885250 0.204933
H91   H     H_    0.961078 0.198121 0.959718 0.166761
C122  C     C_3   0.001296 0.088803 0.874144 -0.374229
H92   H     H_    0.035676 0.030776 0.906160 0.142363
H93   H     H_    0.032081 0.165962 0.852529 0.153415
H94   H     H_    0.982003 0.037623 0.828430 0.177858
O63   O     O_3   0.630081 0.448411 0.089059 -0.571008
C123  C     C_3   0.588161 0.525273 0.048154 -0.008157
H95   H     H_    0.552594 0.471143 0.015710 0.106960
H96   H     H_    0.619863 0.585107 0.012010 0.189888
C124  C     C_3   0.545590 0.606107 0.097797 -0.219252
H97   H     H_    0.581283 0.662118 0.129101 0.234274
H98   H     H_    0.513496 0.666887 0.064806 0.167959
C125  C     C_3   0.497836 0.534958 0.149248 -0.341907
H99   H     H_    0.528755 0.480570 0.186845 0.213727
H100  H     H_    0.463267 0.475309 0.119217 0.149843
H101  H     H_    0.465279 0.597599 0.180945 0.148506
O64   O     O_3   0.371993 0.462547 0.912989 -0.586100
C126  C     C_3   0.394438 0.550764 0.960877 0.029898
H102  H     H_    0.435156 0.513061 0.995279 0.115905
H103  H     H_    0.351085 0.583097 0.995992 0.202237
C127  C     C_3   0.422988 0.659835 0.918929 -0.222003
H104  H     H_    0.384809 0.688539 0.878704 0.213568
H105  H     H_    0.430238 0.735148 0.956156 0.189387
C128  C     C_3   0.492540 0.635138 0.881432 -0.411180
H106  H     H_    0.533840 0.625801 0.921168 0.158395
H107  H     H_    0.506312 0.711351 0.844935 0.157446
H108  H     H_    0.490254 0.552277 0.849916 0.160454

loop_
_geom_bond_atom_site_label_1
_geom_bond_atom_site_label_2
_ccdc_geom_bond_type
C29   Cl18  S    
C87   C91   D    
C117  C118  S    
C19   C20   A    
C32   Cl19  S    
C120  H88   S    
C116  H80   S    
C12   C23   A    
C95   H31   S    
C85   Cl9   S    
C14   C21   A    
C109  C110  S    
C29   C33   A    
C52   O64   S    
O60   C114  S    
Cr3   O47   S    
C93   H25   S    
C50   O62   S    
C121  C122  S    
C31   Cl20  S    
C100  C101  S    
C105  H54   S    
C127  H104  S    
C8    C92   S    
C47   C83   S    
C37   H5    S    
C58   C61   D    
C39   H7    S    
C98   H36   S    
C21   C22   A    
C69   O45   A    
C41   C49   D    
C107  H58   S    
C9    C26   A    
C10   C21   A    
C25   C29   A    
C105  C106  S    
C12   C27   A    
C27   C31   A    
C126  H102  S    
C7    H15   S    
C28   C32   A    
C86   C90   D    
Cr9   O9    S    
C40   C76   S    
C81   H17   S    
C93   C94   S    
C89   O53   S    
C102  H46   S    
C16   C20   A    
C127  C128  S    
C33   H21   S    
Cr3   O19   S    
C50   C54   S    
C35   H23   S    
C119  H85   S    
C113  H72   S    
Cr2   O22   S    
C80   O44   A    
O62   C120  S    
C120  C121  S    
C67   O39   A    
Cr7   O19   S    
C125  H101  S    
Cr5   O17   S    
C45   C81   S    
C97   H34   S    
C110  H65   S    
Cr11  O15   S    
Cr12  O36   S    
C48   O36   A    
C118  C119  S    
C20   Cl16  S    
Cr2   O42   S    
C73   O9    A    
C49   C53   S    
C74   O6    A    
Cr1   O45   S    
C51   C55   S    
C77   O13   A    
C15   O59   S    
C96   H32   S    
C106  C107  S    
C55   H3    S    
C82   H18   S    
C5    C89   S    
O58   C108  S    
C2    O22   A    
C7    C83   D    
Cr6   O26   S    
Cr11  O39   S    
Cr7   O31   S    
Cr5   O5    S    
C87   Cl11  S    
C40   H8    S    
C47   O31   A    
C48   O32   A    
Cr9   O17   S    
C104  H50   S    
C32   C36   A    
C108  H60   S    
C112  C113  S    
C94   H28   S    
Cr12  O40   S    
C46   O30   A    
C78   O42   A    
C123  H95   S    
C95   H30   S    
O57   C105  S    
C56   H4    S    
C45   O33   A    
C46   C82   S    
C119  H87   S    
C79   O15   A    
C71   O47   A    
C111  H67   S    
C80   O16   A    
C109  H63   S    
C30   Cl17  S    
C23   C24   A    
C39   C75   S    
Cr6   O50   S    
C37   C53   D    
C44   C52   D    
C121  H91   S    
Cr10  O38   S    
C128  H107  S    
C36   H24   S    
C97   C98   S    
O61   C117  S    
C42   Cl2   S    
C4    O24   A    
C30   C34   A    
C114  C115  S    
C45   O29   A    
C16   O60   S    
C102  C103  S    
C25   C26   A    
C6    C90   S    
C126  H103  S    
C118  H83   S    
C19   Cl15  S    
C58   H9    S    
C103  H49   S    
C96   C97   S    
C17   C18   A    
C2    C87   S    
C92   O56   S    
C70   O46   A    
C42   C50   D    
C68   O40   A    
C10   C25   A    
C15   C24   A    
C26   C30   A    
C16   C23   A    
C101  H44   S    
C72   O52   A    
Cr8   O52   S    
C11   C68   S    
C103  C104  S    
C63   Cl7   S    
C38   C74   S    
C60   C80   S    
C124  C125  S    
C73   O5    A    
C108  C109  S    
C112  H69   S    
C116  H79   S    
C101  H45   S    
C123  C124  S    
C13   C17   A    
C122  H94   S    
C75   O11   A    
C111  C112  S    
C61   C62   S    
C93   H26   S    
C63   C64   S    
C53   H1    S    
C99   H39   S    
C100  H42   S    
C115  H76   S    
C127  H105  S    
Cr10  O14   S    
C106  H55   S    
Cr8   O8    S    
Cr2   O18   S    
Cr12  O20   S    
Cr1   O21   S    
C114  H74   S    
O55   C99   S    
O59   C111  S    
O53   C93   S    
C15   C19   A    
C74   O10   A    
Cr1   O41   S    
C86   Cl10  S    
C104  H52   S    
C78   O14   A    
C75   O7    A    
C14   O58   S    
C65   O37   A    
C117  H81   S    
C79   O43   A    
C68   O4    A    
C69   O49   A    
C39   C55   D    
Cr6   O30   S    
C59   H12   S    
C40   C56   D    
C115  C116  S    
Cr7   O27   S    
C61   Cl5   S    
C1    O21   A    
Cr5   O25   S    
C38   H6    S    
C47   O35   A    
Cr8   O28   S    
C1    C88   S    
C119  H86   S    
O64   C126  S    
C124  H97   S    
C3    C86   S    
Cr3   O3    S    
C113  H73   S    
Cr1   O1    S    
C51   O63   S    
C120  H89   S    
Cr4   O20   S    
C41   Cl1   S    
C54   H2    S    
Cr11  O19   S    
C100  H41   S    
C57   C77   S    
C97   H35   S    
C59   C79   S    
C64   Cl8   S    
C85   C89   D    
C90   O54   S    
C122  H92   S    
Cr7   O51   S    
C5    C81   D    
Cr5   O49   S    
C38   C54   D    
C99   C100  S    
Cr10  O34   S    
C7    C91   S    
C3    O27   A    
C105  H53   S    
Cr7   O7    S    
C44   C69   S    
Cr2   O2    S    
Cr9   O37   S    
C44   Cl4   S    
C4    O28   A    
C106  H56   S    
C31   C35   A    
Cr3   O23   S    
C107  H57   S    
Cr4   O48   S    
C8    C84   D    
C3    O23   A    
C65   O1    A    
C104  H51   S    
C112  H70   S    
C43   C51   D    
C94   H27   S    
C2    O26   A    
C11   C28   A    
C42   C71   S    
C123  H96   S    
C13   C22   A    
C72   O48   A    
C58   C78   S    
Cr12  O12   S    
C111  H68   S    
C98   H37   S    
C113  H71   S    
C83   H19   S    
Cr3   O43   S    
C91   O55   S    
Cr4   O24   S    
O63   C123  S    
C6    C82   D    
C128  H106  S    
C14   C18   A    
C49   O61   S    
C110  H66   S    
C76   O8    A    
C57   C62   D    
C59   C64   D    
C60   C63   D    
C114  H75   S    
C102  H47   S    
C9    C22   A    
C11   C24   A    
Cr10  O10   S    
C71   O51   A    
C9    C66   S    
Cr9   O13   S    
C13   O57   S    
C88   C92   D    
C96   H33   S    
C125  H100  S    
Cr12  O16   S    
Cr1   O17   S    
C107  H59   S    
C34   H22   S    
Cr4   O4    S    
C43   Cl3   S    
C76   O12   A    
C88   Cl12  S    
C12   C67   S    
C124  H98   S    
C66   O38   A    
C108  H61   S    
O56   C102  S    
C70   O50   A    
C94   C95   S    
C4    C85   S    
Cr6   O18   S    
C62   Cl6   S    
C116  H78   S    
C48   C84   S    
C5    H13   S    
C95   H29   S    
C122  H93   S    
Cr5   O29   S    
C1    O25   A    
C125  H99   S    
Cr11  O11   S    
C98   H38   S    
Cr8   O32   S    
C109  H62   S    
C33   C34   A    
Cr2   O46   S    
C41   C72   S    
C121  H90   S    
C99   H40   S    
C43   C70   S    
Cr4   O44   S    
C128  H108  S    
C115  H77   S    
C110  H64   S    
C8    H16   S    
C10   C65   S    
C37   C73   S    
C67   O3    A    
C57   H10   S    
C84   H20   S    
Cr6   O6    S    
Cr11  O35   S    
C126  C127  S    
O54   C96   S    
Cr9   O33   S    
C118  H84   S    
Cr10  O18   S    
C103  H48   S    
Cr8   O20   S    
C117  H82   S    
C18   Cl14  S    
C77   O41   A    
C101  H43   S    
C46   O34   A    
C27   C28   A    
C60   H11   S    
C35   C36   A    
C6    H14   S    
C52   C56   S    
C66   O2    A    
C17   Cl13  S    
