data_mof_unit_49751.cif
_audit_creation_date              2012-12-11T15:46:56-0500
_audit_creation_method            fapswitch 2.2
_symmetry_space_group_name_H-M    P1
_symmetry_Int_Tables_number       1
_space_group_crystal_system       triclinic
_cell_length_a                    11.576481
_cell_length_b                    11.563325
_cell_length_c                    19.548331
_cell_angle_alpha                 90.302059
_cell_angle_beta                  90.031279
_cell_angle_gamma                 59.880846
_cell_volume                      2263.44318163

loop_
_atom_site_label
_atom_site_type_symbol
_atom_type_description
_atom_site_fract_x
_atom_site_fract_y
_atom_site_fract_z
_atom_type_partial_charge
C1    C     C_R   0.640405 0.117088 0.599281 0.546922
C2    C     C_1   0.653097 0.149283 0.668644 0.005247
C3    C     C_R   0.658803 0.683537 0.188268 0.032008
C4    C     C_R   0.612436 0.746032 0.598600 0.547489
C5    C     C_R   0.534045 0.739412 0.219564 -0.004608
C6    C     C_R   0.524330 0.752880 0.288813 0.023160
C7    C     C_R   0.758554 0.677773 0.298402 -0.157169
C8    C     C_R   0.769205 0.665477 0.227352 -0.156199
C9    C     C_3   0.419688 0.712663 0.215612 -0.252194
C10   C     C_3   0.407317 0.731544 0.292746 -0.044205
C11   C     C_R   0.636653 0.712429 0.329823 0.074316
C12   C     C_1   0.641250 0.703809 0.667973 0.006031
C13   C     C_R   0.108592 0.215172 0.199494 0.052690
C14   C     C_R   0.104336 0.317802 0.238823 -0.001943
C15   C     C_R   0.132497 0.300612 0.307385 -0.007784
C16   C     C_R   0.241254 0.145124 0.598198 0.544674
C17   C     C_R   0.135119 0.091525 0.304663 -0.160943
C18   C     C_R   0.113672 0.105601 0.233773 -0.147162
C19   C     C_3   0.172042 0.397730 0.228665 -0.055592
C20   C     C_3   0.205627 0.377152 0.304309 -0.234085
C21   C     C_R   0.162033 0.180911 0.340031 0.030987
C22   C     C_R   0.666523 0.180470 0.190498 0.040886
C23   C     C_1   0.126541 0.199145 0.859315 0.005488
C24   C     C_R   0.735497 0.051017 0.217777 0.045150
C25   C     C_R   0.731843 0.031923 0.286802 0.039204
C26   C     C_R   0.567511 0.262757 0.302071 -0.139022
C27   C     C_R   0.574984 0.285221 0.232599 -0.098509
C28   C     C_R   0.643553 0.110573 0.401524 0.541789
C29   C     C_3   0.878725 0.941441 0.213317 -0.265777
C30   C     C_3   0.874673 0.924698 0.289902 -0.263389
C31   C     C_R   0.656506 0.138691 0.330901 0.009084
C32   C     C_R   0.081515 0.231389 0.928594 0.551550
C33   C     C_R   0.683917 0.604344 0.929534 0.545015
C34   C     C_1   0.171659 0.170165 0.727735 -0.029223
C35   C     C_R   0.708458 0.206851 0.930126 0.547532
C36   C     C_R   0.075907 0.239576 0.127449 0.562855
C37   C     C_R   0.682180 0.613951 0.124343 0.551908
C38   C     C_R   0.707704 0.210164 0.126214 0.541246
C39   C     C_R   0.614766 0.742999 0.401360 0.578914
C40   C     C_R   0.240117 0.143271 0.402763 0.547130
C41   C     C_1   0.670303 0.646494 0.860149 0.006773
C42   C     C_1   0.654767 0.683593 0.728426 -0.029991
C43   C     C_1   0.663377 0.666667 0.799692 -0.029634
C44   C     C_2   0.290882 0.332424 0.181177 0.584292
C45   C     C_1   0.150128 0.182478 0.798973 -0.029359
C46   C     C_2   0.427505 0.611157 0.332127 0.572034
C47   C     C_1   0.195544 0.160619 0.667396 0.005732
C48   C     C_1   0.678536 0.191590 0.860771 0.006676
C49   C     C_1   0.658646 0.167005 0.729018 -0.029374
C50   C     C_1   0.665672 0.181031 0.800333 -0.028891
Cr1   Cr    Cr6+3 0.404720 0.198220 0.499960 1.037684
Cr2   Cr    Cr6+3 0.698290 0.897110 0.500380 1.035809
Cr3   Cr    Cr6+3 0.396970 0.904720 0.499610 1.046566
Cr4   Cr    Cr6+3 0.926290 0.152010 0.028150 1.031308
Cr5   Cr    Cr6+3 0.921440 0.451830 0.027490 1.052105
Cr6   Cr    Cr6+3 0.626370 0.446880 0.028730 1.038499
H1    H     H_    0.845967 0.654221 0.328649 0.118903
H2    H     H_    0.866639 0.627569 0.204354 0.129746
H3    H     H_    0.449196 0.609604 0.198991 0.169122
H4    H     H_    0.332754 0.792841 0.187834 0.126608
H5    H     H_    0.316657 0.823248 0.308890 0.107727
H6    H     H_    0.139605 0.007360 0.330685 0.115768
H7    H     H_    0.106880 0.028752 0.205654 0.117726
H8    H     H_    0.100939 0.503795 0.215922 0.112554
H9    H     H_    0.385784 0.354418 0.100253 0.340425
H10   H     H_    0.541340 0.467710 0.400391 0.328055
H11   H     H_    0.313487 0.313073 0.315088 0.181256
H12   H     H_    0.154434 0.471529 0.334537 0.148853
H13   H     H_    0.494264 0.342198 0.333455 0.169297
H14   H     H_    0.514866 0.385339 0.213019 0.155074
H15   H     H_    0.948409 0.976067 0.198631 0.155122
H16   H     H_    0.890410 0.853828 0.183696 0.143524
H17   H     H_    0.887891 0.826457 0.304522 0.148296
H18   H     H_    0.937126 0.955984 0.319008 0.143215
O1    O     O_R   0.267750 0.231960 0.575440 -0.503112
O2    O     O_R   0.596230 0.579400 0.952760 -0.501990
O3    O     O_R   0.639160 0.321170 0.958690 -0.493337
O4    O     O_R   0.527290 0.186640 0.570530 -0.493133
O5    O     O_R   0.821370 0.124220 0.104400 -0.525104
O6    O     O_R   0.037020 0.167050 0.097880 -0.514508
O7    O     O_R   0.056310 0.349620 0.102920 -0.496609
O8    O     O_R   0.797790 0.564880 0.097980 -0.512205
O9    O     O_R   0.596000 0.584270 0.104310 -0.520085
O10   O     O_R   0.638950 0.325690 0.099180 -0.511276
O11   O     O_3   0.824700 0.350240 0.028120 -0.263546
O12   O     O_R   0.685950 0.784660 0.430010 -0.517212
O13   O     O_R   0.728110 0.003450 0.576380 -0.503149
O14   O     O_R   0.682980 0.789190 0.570500 -0.494200
O15   O     O_R   0.499300 0.771880 0.575540 -0.501062
O16   O     O_R   0.285350 0.030870 0.569740 -0.495151
O17   O     O_R   0.270960 0.227070 0.423890 -0.519293
O18   O     O_R   0.530270 0.182120 0.430040 -0.510524
O19   O     O_R   0.731320 0.998570 0.424830 -0.512051
O20   O     O_2   0.372519 0.213076 0.185892 -0.531543
O21   O     O_R   0.304690 0.409067 0.130312 -0.699263
O22   O     O_2   0.334201 0.590543 0.337506 -0.566109
O23   O     O_R   0.502510 0.767000 0.423980 -0.490935
O24   O     O_R   0.548283 0.528336 0.365463 -0.699602
O25   O     O_R   0.288320 0.026340 0.429250 -0.508590
O26   O     O_3   0.499990 0.000020 0.499980 -0.263776
O27   O     O_R   0.821590 0.119350 0.952850 -0.503060
O28   O     O_R   0.037230 0.162540 0.957390 -0.493327
O29   O     O_R   0.056530 0.344750 0.951370 -0.496329
O30   O     O_R   0.798000 0.560370 0.957490 -0.494889

loop_
_geom_bond_atom_site_label_1
_geom_bond_atom_site_label_2
_ccdc_geom_bond_type
C25   C31   A    
C1    O13   A    
Cr6   O2    S    
C16   O1    A    
C20   H11   S    
C19   C20   S    
C40   O25   A    
C7    C8    A    
Cr3   O25   S    
C7    C11   A    
C26   C27   A    
C13   C18   A    
C23   C45   T    
C16   O16   A    
Cr1   O1    S    
C4    O15   A    
C5    C6    A    
Cr1   O18   S    
C18   H7    S    
C39   O23   A    
C38   O5    A    
C22   C38   S    
Cr5   O29   S    
C25   C30   S    
C1    C2    S    
C24   C29   S    
C12   C42   T    
Cr4   O27   S    
C8    H2    S    
C10   C46   S    
C4    C12   S    
C9    C10   S    
C36   O7    A    
C29   H16   S    
Cr1   O17   S    
C48   C50   T    
C46   O24   S    
C26   C31   A    
C13   C14   A    
C1    O4    A    
C41   C43   T    
C35   C48   S    
C16   C47   S    
Cr4   O28   S    
Cr6   O10   S    
Cr4   O6    S    
C28   C31   S    
Cr3   O26   S    
C15   C20   S    
Cr2   O14   S    
C24   C25   A    
C13   C36   S    
C3    C8    A    
C36   O6    A    
C6    C11   A    
C30   H17   S    
Cr3   O23   S    
Cr5   O30   S    
C35   O3    A    
C17   C21   A    
Cr6   O3    S    
C28   O19   A    
C9    H3    S    
Cr5   O11   S    
C5    C9    S    
C29   C30   S    
C2    C49   T    
C17   H6    S    
C33   O2    A    
H9    O21   S    
C19   H8    S    
C17   C18   A    
C32   O29   A    
Cr2   O19   S    
C28   O18   A    
C34   C45   S    
Cr5   O8    S    
C11   C39   S    
C27   H14   S    
C22   C27   A    
Cr3   O15   S    
C32   O28   A    
C37   O8    A    
C10   H5    S    
Cr5   O7    S    
C42   C43   S    
C3    C5    A    
C19   C44   S    
Cr6   O9    S    
Cr4   O5    S    
Cr1   O26   S    
C38   O10   A    
C14   C19   S    
C20   H12   S    
Cr2   O13   S    
C35   O27   A    
C6    C10   S    
Cr4   O11   S    
C4    O14   A    
C9    H4    S    
C33   C41   S    
C23   C32   S    
H10   O24   S    
Cr2   O12   S    
Cr1   O4    S    
C44   O21   S    
Cr6   O11   S    
C21   C40   S    
C30   H18   S    
C33   O30   A    
Cr2   O26   S    
C22   C24   A    
C40   O17   A    
C44   O20   D    
C15   C21   A    
C46   O22   D    
C3    C37   S    
C49   C50   S    
Cr3   O16   S    
C26   H13   S    
C14   C15   A    
C37   O9    A    
C34   C47   T    
C39   O12   A    
C7    H1    S    
C29   H15   S    
