data_mof_unit_7411.cif
_audit_creation_date              2012-12-10T19:45:39-0500
_audit_creation_method            fapswitch 2.2
_symmetry_space_group_name_H-M    P1
_symmetry_Int_Tables_number       1
_space_group_crystal_system       triclinic
_cell_length_a                    10.744244
_cell_length_b                    14.698897
_cell_length_c                    14.651948
_cell_angle_alpha                 65.089427
_cell_angle_beta                  103.171044
_cell_angle_gamma                 102.859082
_cell_volume                      2022.3766925

loop_
_atom_site_label
_atom_site_type_symbol
_atom_type_description
_atom_site_fract_x
_atom_site_fract_y
_atom_site_fract_z
_atom_type_partial_charge
C1    C     C_R   0.477792 0.119629 0.312074 0.804885
C2    C     C_R   0.523163 0.880352 0.687908 0.805245
C3    C     C_R   0.870371 0.000918 0.496336 -0.076621
C4    C     C_R   0.129046 0.999176 0.502019 -0.077405
C5    C     C_R   0.910912 0.001411 0.411213 0.003458
C6    C     C_R   0.088118 0.997396 0.587419 0.008364
C7    C     C_R   0.466994 0.186867 0.203896 -0.052750
C8    C     C_R   0.545954 0.812738 0.795678 -0.059573
C9    C     C_R   0.417302 0.214525 0.025899 -0.103879
C10   C     C_R   0.630535 0.782818 0.971701 -0.111698
C11   C     C_R   0.425533 0.148725 0.127771 -0.206788
C12   C     C_R   0.604213 0.849840 0.871009 -0.223433
C13   C     C_R   0.500573 0.291035 0.177217 -0.212585
C14   C     C_R   0.512354 0.708639 0.822192 -0.230822
C15   C     C_R   0.499542 0.359061 0.075197 0.062098
C16   C     C_R   0.546182 0.638779 0.921558 0.067188
C17   C     C_R   0.451377 0.320214 0.997794 0.040967
C18   C     C_R   0.604998 0.676907 0.998434 0.035658
C19   C     C_R   0.540586 0.464828 0.049083 0.012463
C20   C     C_R   0.519605 0.532342 0.946126 0.017136
C21   C     C_R   0.474359 0.491491 0.870616 -0.293237
C22   C     C_R   0.605148 0.504555 0.122872 -0.285799
C23   C     C_R   0.262828 0.999371 0.501520 0.801528
C24   C     C_R   0.736930 0.001161 0.497345 0.804890
C25   C     C_R   0.438210 0.387818 0.894870 0.391265
C26   C     C_R   0.637082 0.608326 0.099351 0.386092
C27   C     C_R   0.709211 0.278985 0.676193 0.296048
C28   C     C_R   0.306768 0.727587 0.314811 0.317616
C29   C     C_R   0.675187 0.199173 0.643187 -0.008796
C30   C     C_R   0.331241 0.803368 0.352964 -0.004673
C31   C     C_R   0.524151 0.287928 0.506487 0.008200
C32   C     C_R   0.479076 0.713562 0.492024 -0.015974
C33   C     C_R   0.555387 0.373704 0.533124 -0.057272
C34   C     C_R   0.458934 0.632430 0.459163 -0.048303
C35   C     C_R   0.649162 0.367628 0.620595 0.069168
C36   C     C_R   0.370228 0.640567 0.368669 0.026865
C37   C     C_R   0.495160 0.463809 0.477153 0.111909
C38   C     C_R   0.524364 0.544648 0.512266 0.171582
C39   C     C_R   0.618426 0.535123 0.599092 -0.185734
C40   C     C_R   0.408323 0.476420 0.386171 -0.246680
C41   C     C_R   0.679723 0.449599 0.650954 -0.050383
C42   C     C_R   0.348282 0.562419 0.333407 -0.046906
C43   C     C_R   0.289334 0.870537 0.841269 -0.082515
C44   C     C_R   0.739636 0.112142 0.140975 -0.071398
C45   C     C_R   0.215573 0.887660 0.745201 -0.168473
C46   C     C_R   0.822670 0.103479 0.231980 -0.162977
C47   C     C_R   0.175006 0.982544 0.685074 0.072236
C48   C     C_R   0.821828 0.009933 0.315535 0.064252
C49   C     C_R   0.209973 0.060221 0.721786 -0.066861
C50   C     C_R   0.737467 0.925068 0.306704 -0.035632
C51   C     C_R   0.285716 0.043171 0.817221 -0.086300
C52   C     C_R   0.653165 0.934495 0.216028 -0.090983
C53   C     C_R   0.325290 0.948473 0.876961 -0.109590
C54   C     C_R   0.655138 0.027650 0.132939 -0.138783
C55   C     C_R   0.958493 0.000099 0.582959 -0.206567
C56   C     C_R   0.041165 0.001082 0.414854 -0.201330
Cu1   Cu    Cu3+1 0.466270 0.918260 0.475690 0.946793
Cu2   Cu    Cu3+1 0.533730 0.081740 0.524310 0.960727
H1    H     H_    0.383115 0.935317 0.951102 0.157168
H2    H     H_    0.590245 0.034631 0.062677 0.136786
H3    H     H_    0.384861 0.181006 0.970231 0.189720
H4    H     H_    0.671776 0.815548 0.027384 0.203931
H5    H     H_    0.469355 0.538614 0.790895 0.173555
H6    H     H_    0.636414 0.455760 0.199895 0.176057
H7    H     H_    0.751076 0.448829 0.716327 0.202723
H8    H     H_    0.283717 0.566055 0.264087 0.209568
H9    H     H_    0.546588 0.714854 0.558135 0.140621
H10   H     H_    0.450093 0.284138 0.444477 0.136354
H11   H     H_    0.286005 0.871160 0.312178 0.187496
H12   H     H_    0.719599 0.130996 0.684139 0.160067
H13   H     H_    0.648321 0.593139 0.629310 0.120202
H14   H     H_    0.386084 0.421668 0.351818 0.130914
H15   H     H_    0.318494 0.796778 0.888134 0.171052
H16   H     H_    0.740115 0.184510 0.076940 0.188858
H17   H     H_    0.187865 0.826532 0.718525 0.137684
H18   H     H_    0.887352 0.169562 0.237508 0.151042
H19   H     H_    0.178208 0.133465 0.676838 0.176140
H20   H     H_    0.736214 0.852122 0.370131 0.150718
H21   H     H_    0.312489 0.102872 0.845520 0.195259
H22   H     H_    0.585920 0.869805 0.210147 0.184061
H23   H     H_    0.925134 0.997661 0.648640 0.155570
H24   H     H_    0.074548 0.003378 0.349260 0.161942
H25   H     H_    0.457196 0.684180 0.763444 0.154704
H26   H     H_    0.523364 0.317690 0.237913 0.148433
H27   H     H_    0.628802 0.930599 0.852318 0.156553
H28   H     H_    0.398781 0.068023 0.146803 0.173887
N1    N     N_R   0.584450 0.204570 0.560790 -0.202328
N2    N     N_R   0.415550 0.795430 0.439210 -0.214250
O1    O     O_R   0.455540 0.022090 0.338120 -0.587541
O2    O     O_R   0.544460 0.977910 0.661880 -0.582942
O3    O     O_R   0.512510 0.160150 0.379180 -0.591809
O4    O     O_R   0.487490 0.839850 0.620820 -0.589921
O5    O     O_R   0.291160 0.930970 0.479480 -0.573609
O6    O     O_R   0.708840 0.069030 0.520520 -0.571671
O7    O     O_R   0.348130 0.069020 0.520540 -0.569812
O8    O     O_R   0.651870 0.930980 0.479460 -0.588699
S1    S     S_3+6 0.824242 0.263274 0.787981 0.012807
O9    O     O_2   0.940478 0.342584 0.762092 -0.226909
O10   O     O_2   0.766486 0.275752 0.865613 -0.310042
O11   O     O_3   0.871639 0.148048 0.838184 -0.503810
H29   H     H_    0.799384 0.100819 0.872590 0.335306
S2    S     S_3+6 0.201017 0.747059 0.198040 -0.001995
O12   O     O_2   0.273566 0.748803 0.120731 -0.329320
O13   O     O_2   0.090282 0.661733 0.213923 -0.217911
O14   O     O_3   0.142921 0.857551 0.154434 -0.536250
H30   H     H_    0.089943 0.863742 0.087751 0.394775
S3    S     S_3+6 0.370332 0.346926 0.793556 -0.012658
O15   O     O_2   0.459257 0.284871 0.787121 -0.301276
O16   O     O_2   0.241627 0.282606 0.813382 -0.265982
O17   O     O_3   0.349198 0.445822 0.681453 -0.527086
H31   H     H_    0.274810 0.473663 0.684118 0.362673
S4    S     S_3+6 0.714732 0.648146 0.199999 0.013086
O18   O     O_2   0.832202 0.724417 0.169079 -0.210541
O19   O     O_2   0.622614 0.696616 0.222520 -0.351141
O20   O     O_3   0.761284 0.549872 0.306266 -0.487259
H32   H     H_    0.683489 0.518384 0.339953 0.339139

loop_
_geom_bond_atom_site_label_1
_geom_bond_atom_site_label_2
_ccdc_geom_bond_type
C43   H15   S    
C1    O1    A    
Cu1   O4    S    
C27   C29   A    
C5    C56   A    
C36   C42   A    
C19   C20   A    
C18   C26   A    
C6    C55   A    
Cu2   N1    S    
C30   H11   S    
C46   H18   S    
S1    O9    D    
C53   H1    S    
C39   C41   A    
C54   H2    S    
C29   N1    A    
C15   C19   A    
C13   H26   S    
Cu1   O1    S    
C12   H27   S    
C23   O7    A    
C9    H3    S    
C37   C40   A    
C24   O8    A    
C38   C39   A    
S2    O13   D    
C11   H28   S    
O20   H32   S    
C32   N2    A    
S2    O14   S    
C2    O2    A    
O17   H31   S    
C3    C55   A    
C43   C53   A    
C44   C46   A    
C49   C51   A    
Cu1   O8    S    
C50   C52   A    
S3    O15   D    
C31   C33   A    
C55   H23   S    
Cu2   O3    S    
C44   C54   A    
C8    C12   A    
C40   C42   A    
C1    O3    A    
C1    C7    S    
C4    C56   A    
S3    O16   D    
C3    C24   S    
C10   H4    S    
C14   H25   S    
C50   H20   S    
S4    O19   D    
S4    O18   D    
S1    O10   D    
C52   C54   A    
C45   C47   A    
C31   H10   S    
C5    C48   S    
C46   C48   A    
C31   N1    A    
C6    C47   S    
C44   H16   S    
C19   C22   A    
C4    C6    A    
C4    C23   S    
C41   H7    S    
C27   C35   A    
C33   C37   A    
C23   O5    A    
C51   C53   A    
C32   C34   A    
C7    C11   A    
Cu2   O7    S    
C37   C38   A    
C24   O6    A    
C9    C11   A    
C16   C20   A    
C2    O4    A    
C43   C45   A    
C10   C12   A    
Cu2   O2    S    
C32   H9    S    
C9    C17   A    
C13   C15   A    
S3    O17   S    
C14   C16   A    
C30   N2    A    
C26   S4    S    
S1    O11   S    
C25   S3    S    
C29   H12   S    
C15   C17   A    
C21   C25   A    
C27   S1    S    
C8    C14   A    
C40   H14   S    
C34   C38   A    
C2    C8    S    
C3    C5    A    
C56   H24   S    
C47   C49   A    
O14   H30   S    
Cu1   N2    S    
C45   H17   S    
C17   C25   A    
C28   C30   A    
Cu2   O6    S    
Cu1   Cu2   S    
C10   C18   A    
C48   C50   A    
O11   H29   S    
C33   C35   A    
C49   H19   S    
C34   C36   A    
S2    O12   D    
C35   C41   A    
C51   H21   S    
C21   H5    S    
C22   H6    S    
C28   S2    S    
C7    C13   A    
C20   C21   A    
C28   C36   A    
C16   C18   A    
C22   C26   A    
C42   H8    S    
C39   H13   S    
Cu1   O5    S    
C52   H22   S    
S4    O20   S    
