data_mof_unit_66517.cif
_audit_creation_date              2012-12-10T19:17:40-0500
_audit_creation_method            fapswitch 2.2
_symmetry_space_group_name_H-M    P1
_symmetry_Int_Tables_number       1
_space_group_crystal_system       triclinic
_cell_length_a                    38.794353
_cell_length_b                    55.04813
_cell_length_c                    54.986281
_cell_angle_alpha                 90.000046
_cell_angle_beta                  89.995902
_cell_angle_gamma                 90.015673
_cell_volume                      117426.309902

loop_
_atom_site_label
_atom_site_type_symbol
_atom_type_description
_atom_site_fract_x
_atom_site_fract_y
_atom_site_fract_z
_atom_type_partial_charge
C1    C     C_R   0.999925 0.783635 0.216346 0.907848
C2    C     C_R   0.500075 0.216365 0.716346 0.907614
C3    C     C_R   0.022013 0.894686 0.873246 -0.264180
C4    C     C_R   0.477744 0.373592 0.105478 -0.274857
C5    C     C_R   0.522241 0.626408 0.105475 -0.278402
C6    C     C_R   0.477808 0.626407 0.894531 -0.278491
C7    C     C_R   0.522011 0.394687 0.873246 -0.264180
C8    C     C_R   0.477746 0.873593 0.605478 -0.278890
C9    C     C_R   0.522241 0.126408 0.605475 -0.278901
C10   C     C_R   0.477815 0.126408 0.394533 -0.278799
C11   C     C_R   0.522198 0.873593 0.394530 -0.278799
C12   C     C_R   0.977747 0.373592 0.605478 -0.278889
C13   C     C_R   0.499927 0.216365 0.283654 0.907554
C14   C     C_R   0.022242 0.626408 0.605475 -0.278902
C15   C     C_R   0.977815 0.626408 0.394533 -0.278799
C16   C     C_R   0.022198 0.373593 0.394530 -0.278799
C17   C     C_R   0.977744 0.855530 0.123101 -0.075454
C18   C     C_R   0.022241 0.144470 0.123098 -0.076161
C19   C     C_R   0.977808 0.144468 0.876908 -0.077359
C20   C     C_R   0.022222 0.876838 0.855401 -0.171392
C21   C     C_R   0.477744 0.355530 0.123101 -0.075454
C22   C     C_R   0.522241 0.644470 0.123098 -0.076162
C23   C     C_R   0.477808 0.644468 0.876908 -0.077359
C24   C     C_R   0.500073 0.783635 0.283654 0.907624
C25   C     C_R   0.522221 0.376839 0.855400 -0.171392
C26   C     C_R   0.477746 0.855530 0.623101 -0.076547
C27   C     C_R   0.522241 0.144470 0.623098 -0.076638
C28   C     C_R   0.477815 0.144470 0.376910 -0.076413
C29   C     C_R   0.522198 0.855531 0.376907 -0.076416
C30   C     C_R   0.977747 0.355530 0.623100 -0.076547
C31   C     C_R   0.022242 0.644470 0.623098 -0.076638
C32   C     C_R   0.977815 0.644470 0.376910 -0.076413
C33   C     C_R   0.022198 0.355531 0.376907 -0.076416
C34   C     C_R   0.999999 0.857260 0.143082 0.050540
C35   C     C_R   0.999925 0.283635 0.716346 0.907668
C36   C     C_R   0.999989 0.142740 0.143083 0.051216
C37   C     C_R   0.000060 0.142746 0.856924 0.051680
C38   C     C_R   0.000296 0.856724 0.857449 0.050005
C39   C     C_R   0.499999 0.357260 0.143082 0.050540
C40   C     C_R   0.499989 0.642740 0.143083 0.051216
C41   C     C_R   0.500060 0.642746 0.856924 0.051680
C42   C     C_R   0.500297 0.356724 0.857449 0.050004
C43   C     C_R   0.499997 0.857262 0.643084 0.051481
C44   C     C_R   0.499989 0.142740 0.643083 0.051426
C45   C     C_R   0.500062 0.142746 0.356923 0.051358
C46   C     C_R   0.000075 0.716365 0.716346 0.907614
C47   C     C_R   0.499951 0.857255 0.356922 0.051354
C48   C     C_R   0.999997 0.357261 0.643084 0.051482
C49   C     C_R   0.999989 0.642740 0.643083 0.051426
C50   C     C_R   0.000062 0.642746 0.356923 0.051358
C51   C     C_R   0.999951 0.357255 0.356922 0.051354
C52   C     C_R   0.021946 0.877335 0.145480 -0.254622
C53   C     C_R   0.978045 0.122663 0.145484 -0.255400
C54   C     C_R   0.022007 0.122679 0.854524 -0.255938
C55   C     C_R   0.977988 0.854659 0.877381 -0.159041
C56   C     C_R   0.521946 0.377335 0.145480 -0.254622
C57   C     C_R   0.999927 0.716365 0.283654 0.907554
C58   C     C_R   0.478045 0.622663 0.145484 -0.255399
C59   C     C_R   0.522007 0.622680 0.854524 -0.255938
C60   C     C_R   0.477989 0.354659 0.877382 -0.159040
C61   C     C_R   0.521939 0.877339 0.645485 -0.255891
C62   C     C_R   0.478045 0.122663 0.645484 -0.255734
C63   C     C_R   0.522005 0.122677 0.354521 -0.255553
C64   C     C_R   0.478010 0.877325 0.354520 -0.255554
C65   C     C_R   0.021938 0.377340 0.645485 -0.255892
C66   C     C_R   0.978045 0.622663 0.645484 -0.255734
C67   C     C_R   0.022005 0.622677 0.354521 -0.255553
C68   C     C_R   0.000073 0.283635 0.283654 0.907624
C69   C     C_R   0.978010 0.377325 0.354520 -0.255554
C70   C     C_R   0.021954 0.895460 0.127893 0.641838
C71   C     C_R   0.978037 0.104538 0.127898 0.642035
C72   C     C_R   0.022015 0.104555 0.872110 0.638689
C73   C     C_R   0.977770 0.872464 0.895285 0.625936
C74   C     C_R   0.521954 0.395460 0.127893 0.641838
C75   C     C_R   0.478037 0.604538 0.127898 0.642035
C76   C     C_R   0.522015 0.604555 0.872110 0.638691
C77   C     C_R   0.477771 0.372464 0.895286 0.625936
C78   C     C_R   0.521947 0.895464 0.627899 0.641663
C79   C     C_R   0.031125 0.919761 0.078389 -0.064275
C80   C     C_R   0.478037 0.104538 0.627898 0.641723
C81   C     C_R   0.522013 0.104552 0.372107 0.641963
C82   C     C_R   0.478003 0.895451 0.372107 0.641962
C83   C     C_R   0.021946 0.395465 0.627899 0.641663
C84   C     C_R   0.978037 0.604538 0.627898 0.641725
C85   C     C_R   0.022013 0.604552 0.372107 0.641963
C86   C     C_R   0.978003 0.395451 0.372107 0.641962
C87   C     C_R   0.932619 0.749999 0.249999 0.862077
C88   C     C_R   0.067381 0.250001 0.249998 0.862083
C89   C     C_R   0.932619 0.249999 0.749999 0.862119
C90   C     C_R   0.968866 0.080232 0.078397 -0.067136
C91   C     C_R   0.067381 0.750001 0.749998 0.862747
C92   C     C_R   0.432619 0.249999 0.249999 0.862077
C93   C     C_R   0.567381 0.750001 0.249998 0.862083
C94   C     C_R   0.432619 0.749999 0.749999 0.862119
C95   C     C_R   0.567381 0.250001 0.749998 0.862747
C96   C     C_R   0.999930 0.893568 0.107714 -0.051421
C97   C     C_R   0.000060 0.106430 0.107716 -0.050694
C98   C     C_R   0.999990 0.106438 0.892292 -0.050249
C99   C     C_R   0.999796 0.892611 0.893243 -0.051693
C100  C     C_R   0.499930 0.393568 0.107714 -0.051421
C101  C     C_R   0.031169 0.080243 0.921612 -0.068056
C102  C     C_R   0.500059 0.606430 0.107716 -0.050694
C103  C     C_R   0.499990 0.606438 0.892292 -0.050250
C104  C     C_R   0.499796 0.392611 0.893243 -0.051692
C105  C     C_R   0.499927 0.893571 0.607717 -0.050425
C106  C     C_R   0.500060 0.106430 0.607716 -0.050492
C107  C     C_R   0.499992 0.106437 0.392290 -0.050578
C108  C     C_R   0.500022 0.893565 0.392289 -0.050577
C109  C     C_R   0.999927 0.393571 0.607717 -0.050425
C110  C     C_R   0.000059 0.606430 0.607716 -0.050492
C111  C     C_R   0.999992 0.606437 0.392290 -0.050578
C112  C     C_R   0.000075 0.216365 0.216346 0.907726
C113  C     C_R   0.968731 0.922008 0.919418 -0.075865
C114  C     C_R   0.000022 0.393565 0.392289 -0.050577
C115  C     C_R   0.997258 0.844786 0.186221 -0.250225
C116  C     C_R   0.002737 0.155214 0.186221 -0.250321
C117  C     C_R   0.997301 0.155215 0.813784 -0.251800
C118  C     C_R   0.997792 0.844631 0.814167 -0.251462
C119  C     C_R   0.497258 0.344786 0.186221 -0.250225
C120  C     C_R   0.502737 0.655214 0.186221 -0.250320
C121  C     C_R   0.497301 0.655214 0.813784 -0.251800
C122  C     C_R   0.497790 0.344631 0.814167 -0.251461
C123  C     C_R   0.497252 0.844786 0.686222 -0.250684
C124  C     C_R   0.531125 0.419761 0.078389 -0.064276
C125  C     C_R   0.502737 0.155214 0.686221 -0.250640
C126  C     C_R   0.497298 0.155215 0.313784 -0.250350
C127  C     C_R   0.502714 0.844785 0.313783 -0.250360
C128  C     C_R   0.997251 0.344786 0.686222 -0.250685
C129  C     C_R   0.002736 0.655214 0.686221 -0.250642
C130  C     C_R   0.997298 0.655215 0.313784 -0.250350
C131  C     C_R   0.002714 0.344786 0.313783 -0.250360
C132  C     C_R   0.997228 0.826954 0.204074 -0.178978
C133  C     C_R   0.002770 0.173046 0.204074 -0.179100
C134  C     C_R   0.997253 0.173045 0.795929 -0.179615
C135  C     C_R   0.468866 0.580232 0.078397 -0.067136
C136  C     C_R   0.997689 0.826923 0.796172 -0.181813
C137  C     C_R   0.497228 0.326954 0.204074 -0.178978
C138  C     C_R   0.502770 0.673046 0.204074 -0.179100
C139  C     C_R   0.497253 0.673045 0.795929 -0.179615
C140  C     C_R   0.497687 0.326923 0.796172 -0.181812
C141  C     C_R   0.497222 0.826954 0.704075 -0.179382
C142  C     C_R   0.502770 0.173046 0.704074 -0.179260
C143  C     C_R   0.497248 0.173045 0.295929 -0.179067
C144  C     C_R   0.502759 0.826955 0.295928 -0.179083
C145  C     C_R   0.997221 0.326954 0.704075 -0.179381
C146  C     C_R   0.531169 0.580243 0.921612 -0.068056
C147  C     C_R   0.002770 0.673046 0.704074 -0.179259
C148  C     C_R   0.997249 0.673045 0.295929 -0.179067
C149  C     C_R   0.002759 0.326955 0.295928 -0.179083
C150  C     C_R   0.999937 0.802397 0.197558 -0.131789
C151  C     C_R   0.000060 0.197603 0.197558 -0.131592
C152  C     C_R   0.999953 0.197604 0.802443 -0.131255
C153  C     C_R   0.000343 0.802320 0.802519 -0.131145
C154  C     C_R   0.499937 0.302397 0.197558 -0.131789
C155  C     C_R   0.500060 0.697603 0.197558 -0.131592
C156  C     C_R   0.499953 0.697604 0.802443 -0.131255
C157  C     C_R   0.468731 0.422007 0.919419 -0.075863
C158  C     C_R   0.500343 0.302320 0.802519 -0.131145
C159  C     C_R   0.499936 0.802397 0.697558 -0.131423
C160  C     C_R   0.500060 0.197603 0.697558 -0.131427
C161  C     C_R   0.499954 0.197604 0.302443 -0.131517
C162  C     C_R   0.500050 0.802396 0.302443 -0.131522
C163  C     C_R   0.999936 0.302397 0.697558 -0.131424
C164  C     C_R   0.000060 0.697603 0.697558 -0.131427
C165  C     C_R   0.999954 0.697604 0.302443 -0.131517
C166  C     C_R   0.000050 0.302396 0.302443 -0.131522
C167  C     C_R   0.002770 0.795905 0.172966 -0.261627
C168  C     C_R   0.531124 0.919768 0.578396 -0.067573
C169  C     C_R   0.997222 0.204095 0.172967 -0.261848
C170  C     C_R   0.002797 0.204100 0.827033 -0.262082
C171  C     C_R   0.003318 0.795662 0.827059 -0.260217
C172  C     C_R   0.502770 0.295905 0.172966 -0.261627
C173  C     C_R   0.497222 0.704095 0.172967 -0.261848
C174  C     C_R   0.502797 0.704100 0.827033 -0.262082
C175  C     C_R   0.503320 0.295662 0.827059 -0.260216
C176  C     C_R   0.502773 0.795906 0.672967 -0.262276
C177  C     C_R   0.497222 0.204095 0.672967 -0.262299
C178  C     C_R   0.502803 0.204100 0.327033 -0.262104
C179  C     C_R   0.468866 0.080232 0.578397 -0.067485
C180  C     C_R   0.497201 0.795901 0.327033 -0.262105
C181  C     C_R   0.002775 0.295906 0.672967 -0.262275
C182  C     C_R   0.997223 0.704095 0.672967 -0.262298
C183  C     C_R   0.002803 0.704100 0.327033 -0.262104
C184  C     C_R   0.997201 0.295901 0.327033 -0.262105
C185  C     C_R   0.002891 0.813738 0.155079 0.655093
C186  C     C_R   0.997097 0.186262 0.155079 0.654067
C187  C     C_R   0.002937 0.186268 0.844922 0.654066
C188  C     C_R   0.003515 0.813353 0.845069 0.654976
C189  C     C_R   0.502891 0.313738 0.155079 0.655093
C190  C     C_R   0.531171 0.080238 0.421606 -0.067419
C191  C     C_R   0.497097 0.686262 0.155079 0.654067
C192  C     C_R   0.502937 0.686268 0.844922 0.654066
C193  C     C_R   0.503517 0.313353 0.845069 0.654975
C194  C     C_R   0.502895 0.813739 0.655079 0.653612
C195  C     C_R   0.497097 0.186262 0.655079 0.653648
C196  C     C_R   0.502944 0.186268 0.344922 0.653748
C197  C     C_R   0.497064 0.813734 0.344921 0.653756
C198  C     C_R   0.002896 0.313740 0.655080 0.653609
C199  C     C_R   0.997098 0.686262 0.655079 0.653646
C200  C     C_R   0.002944 0.686268 0.344922 0.653748
C201  C     C_R   0.468838 0.919763 0.421607 -0.067409
C202  C     C_R   0.997064 0.313734 0.344921 0.653756
C203  C     C_R   0.000019 0.838289 0.161667 -0.001440
C204  C     C_R   0.999971 0.161711 0.161667 -0.001133
C205  C     C_R   0.000072 0.161715 0.838337 -0.000771
C206  C     C_R   0.000559 0.837944 0.838674 -0.001209
C207  C     C_R   0.500019 0.338289 0.161667 -0.001440
C208  C     C_R   0.499971 0.661711 0.161667 -0.001133
C209  C     C_R   0.500072 0.661715 0.838337 -0.000771
C210  C     C_R   0.500559 0.337944 0.838674 -0.001209
C211  C     C_R   0.500018 0.838290 0.661668 -0.000948
C212  C     C_R   0.031124 0.419769 0.578397 -0.067572
C213  C     C_R   0.499971 0.161711 0.661667 -0.000951
C214  C     C_R   0.500074 0.161715 0.338336 -0.001063
C215  C     C_R   0.499937 0.838286 0.338335 -0.001057
C216  C     C_R   0.000018 0.338290 0.661668 -0.000947
C217  C     C_R   0.999971 0.661711 0.661667 -0.000950
C218  C     C_R   0.000074 0.661715 0.338336 -0.001063
C219  C     C_R   0.999937 0.338286 0.338335 -0.001057
C220  C     C_R   0.377162 0.732067 0.262896 -0.208165
C221  C     C_R   0.622839 0.267926 0.262895 -0.208123
C222  C     C_R   0.377169 0.267930 0.737133 -0.209856
C223  C     C_R   0.999927 0.216365 0.783654 0.907641
C224  C     C_R   0.968866 0.580233 0.578396 -0.067484
C225  C     C_R   0.622831 0.732070 0.737124 -0.208493
C226  C     C_R   0.877162 0.232067 0.262896 -0.208165
C227  C     C_R   0.122839 0.767926 0.262895 -0.208123
C228  C     C_R   0.877169 0.767930 0.737133 -0.209855
C229  C     C_R   0.122831 0.232070 0.737124 -0.208493
C230  C     C_R   0.877162 0.732063 0.762889 -0.208528
C231  C     C_R   0.122840 0.267924 0.762898 -0.208305
C232  C     C_R   0.877168 0.267927 0.237129 -0.207968
C233  C     C_R   0.122830 0.732066 0.237128 -0.207819
C234  C     C_R   0.377162 0.232063 0.762889 -0.208528
C235  C     C_R   0.031171 0.580237 0.421606 -0.067419
C236  C     C_R   0.622840 0.767924 0.762898 -0.208305
C237  C     C_R   0.377168 0.767927 0.237129 -0.207970
C238  C     C_R   0.622831 0.232066 0.237128 -0.207818
C239  C     C_R   0.341393 0.732038 0.262835 -0.064935
C240  C     C_R   0.658609 0.267951 0.262835 -0.064874
C241  C     C_R   0.341400 0.267958 0.737205 -0.066356
C242  C     C_R   0.658599 0.732038 0.737196 -0.065150
C243  C     C_R   0.841393 0.232037 0.262835 -0.064935
C244  C     C_R   0.158609 0.767951 0.262835 -0.064874
C245  C     C_R   0.841400 0.767958 0.737205 -0.066357
C246  C     C_R   0.968839 0.419762 0.421607 -0.067409
C247  C     C_R   0.158599 0.232038 0.737196 -0.065152
C248  C     C_R   0.841392 0.732033 0.762827 -0.065216
C249  C     C_R   0.158609 0.267949 0.762837 -0.065531
C250  C     C_R   0.841399 0.267954 0.237201 -0.064834
C251  C     C_R   0.158599 0.732034 0.237201 -0.064779
C252  C     C_R   0.341392 0.232033 0.762827 -0.065217
C253  C     C_R   0.658609 0.767949 0.762837 -0.065531
C254  C     C_R   0.341399 0.767954 0.237201 -0.064833
C255  C     C_R   0.658599 0.232034 0.237201 -0.064781
C256  C     C_R   0.323452 0.749995 0.250020 0.277379
C257  C     C_R   0.999977 0.912279 0.088867 0.158081
C258  C     C_R   0.676548 0.249992 0.250020 0.277349
C259  C     C_R   0.323452 0.249995 0.750018 0.277873
C260  C     C_R   0.676548 0.749992 0.750019 0.277709
C261  C     C_R   0.823452 0.249995 0.250020 0.277379
C262  C     C_R   0.176548 0.749991 0.250020 0.277348
C263  C     C_R   0.823452 0.749995 0.750018 0.277874
C264  C     C_R   0.176548 0.249992 0.750019 0.277709
C265  C     C_R   0.067191 0.750000 0.250002 0.888041
C266  C     C_R   0.932809 0.249999 0.250002 0.888054
C267  C     C_R   0.067191 0.250000 0.750002 0.888025
C268  C     C_R   0.000013 0.087718 0.088870 0.158724
C269  C     C_R   0.932809 0.749998 0.750002 0.887331
C270  C     C_R   0.567191 0.250000 0.250002 0.888041
C271  C     C_R   0.432809 0.749999 0.250002 0.888054
C272  C     C_R   0.567191 0.750000 0.750002 0.888025
C273  C     C_R   0.432809 0.249999 0.750002 0.887331
C274  C     C_R   0.395243 0.749997 0.250009 -0.049125
C275  C     C_R   0.604757 0.249998 0.250008 -0.049142
C276  C     C_R   0.395243 0.249997 0.750008 -0.048712
C277  C     C_R   0.604757 0.749998 0.750008 -0.048887
C278  C     C_R   0.895243 0.249997 0.250009 -0.049126
C279  C     C_R   0.000027 0.087722 0.911134 0.159518
C280  C     C_R   0.104757 0.749998 0.250008 -0.049142
C281  C     C_R   0.895243 0.749997 0.750008 -0.048713
C282  C     C_R   0.104757 0.249998 0.750008 -0.048888
C283  C     C_R   0.267897 0.749963 0.227893 0.512925
C284  C     C_R   0.732107 0.250019 0.227893 0.513023
C285  C     C_R   0.267893 0.250014 0.772148 0.511845
C286  C     C_R   0.732103 0.749958 0.772148 0.512668
C287  C     C_R   0.767897 0.249963 0.227893 0.512925
C288  C     C_R   0.232107 0.750019 0.227893 0.513023
C289  C     C_R   0.767893 0.750014 0.772148 0.511846
C290  C     C_R   0.999834 0.911510 0.911899 0.157937
C291  C     C_R   0.232103 0.249958 0.772148 0.512669
C292  C     C_R   0.767897 0.749969 0.727891 0.512563
C293  C     C_R   0.232107 0.250026 0.727891 0.512204
C294  C     C_R   0.767893 0.250019 0.272149 0.512774
C295  C     C_R   0.232102 0.749963 0.272149 0.512760
C296  C     C_R   0.267897 0.249969 0.727891 0.512563
C297  C     C_R   0.732107 0.750025 0.727891 0.512204
C298  C     C_R   0.267893 0.750019 0.272149 0.512774
C299  C     C_R   0.732102 0.249963 0.272149 0.512760
C300  C     C_R   0.214109 0.749991 0.250021 -0.417218
C301  C     C_R   0.499977 0.412279 0.088868 0.158082
C302  C     C_R   0.785891 0.249992 0.250021 -0.417200
C303  C     C_R   0.214109 0.249992 0.750019 -0.417061
C304  C     C_R   0.785891 0.749992 0.750019 -0.417078
C305  C     C_R   0.714109 0.249991 0.250021 -0.417218
C306  C     C_R   0.285891 0.749992 0.250021 -0.417200
C307  C     C_R   0.714109 0.749992 0.750019 -0.417060
C308  C     C_R   0.285891 0.249992 0.750019 -0.417078
C309  C     C_R   0.000017 0.533666 0.533634 0.879010
C310  C     C_R   0.999981 0.466334 0.533634 0.879007
C311  C     C_R   0.000012 0.466334 0.466366 0.879073
C312  C     C_R   0.500014 0.587718 0.088870 0.158724
C313  C     C_R   0.999989 0.533666 0.466366 0.879075
C314  C     C_R   0.500017 0.033666 0.533634 0.879010
C315  C     C_R   0.499981 0.966334 0.533634 0.879007
C316  C     C_R   0.500012 0.966334 0.466366 0.879073
C317  C     C_R   0.499989 0.033666 0.466366 0.879075
C318  C     C_R   0.500017 0.533666 0.033634 0.879040
C319  C     C_R   0.499982 0.466334 0.033633 0.882420
C320  C     C_R   0.500008 0.466340 0.966360 0.878865
C321  C     C_R   0.499989 0.533666 0.966366 0.875613
C322  C     C_R   0.000017 0.033666 0.033634 0.879040
C323  C     C_R   0.500027 0.587722 0.911134 0.159517
C324  C     C_R   0.999981 0.966334 0.033633 0.882419
C325  C     C_R   0.000008 0.966340 0.966360 0.878865
C326  C     C_R   0.999989 0.033666 0.966366 0.875613
C327  C     C_R   0.876731 0.770097 0.259024 -0.182886
C328  C     C_R   0.123269 0.229905 0.259022 -0.182950
C329  C     C_R   0.876721 0.229902 0.740957 -0.183311
C330  C     C_R   0.123280 0.770096 0.740947 -0.182243
C331  C     C_R   0.376731 0.270097 0.259024 -0.182886
C332  C     C_R   0.623269 0.729905 0.259022 -0.182950
C333  C     C_R   0.376721 0.729902 0.740957 -0.183311
C334  C     C_R   0.000129 0.783627 0.783661 0.907669
C335  C     C_R   0.499834 0.411510 0.911899 0.157936
C336  C     C_R   0.623280 0.270096 0.740947 -0.182242
C337  C     C_R   0.376731 0.770098 0.759022 -0.182938
C338  C     C_R   0.623269 0.229908 0.759029 -0.182131
C339  C     C_R   0.376721 0.229903 0.240954 -0.182723
C340  C     C_R   0.623279 0.770099 0.240952 -0.182857
C341  C     C_R   0.876731 0.270098 0.759022 -0.182938
C342  C     C_R   0.123269 0.729908 0.759029 -0.182131
C343  C     C_R   0.876721 0.729903 0.240954 -0.182723
C344  C     C_R   0.123279 0.270099 0.240952 -0.182857
C345  C     C_R   0.840847 0.770189 0.258816 -0.152018
C346  C     C_R   0.499975 0.912282 0.588871 0.158966
C347  C     C_R   0.159153 0.229815 0.258814 -0.152083
C348  C     C_R   0.840837 0.229813 0.741151 -0.152491
C349  C     C_R   0.159164 0.770186 0.741141 -0.151906
C350  C     C_R   0.340847 0.270189 0.258816 -0.152018
C351  C     C_R   0.659153 0.729815 0.258814 -0.152083
C352  C     C_R   0.340837 0.729813 0.741151 -0.152491
C353  C     C_R   0.659164 0.270186 0.741141 -0.151906
C354  C     C_R   0.340847 0.770189 0.758815 -0.151840
C355  C     C_R   0.659153 0.229818 0.758823 -0.151306
C356  C     C_R   0.340837 0.229815 0.241147 -0.151815
C357  C     C_R   0.500013 0.087718 0.588870 0.158957
C358  C     C_R   0.659164 0.770190 0.241146 -0.151884
C359  C     C_R   0.840847 0.270190 0.758815 -0.151840
C360  C     C_R   0.159153 0.729818 0.758823 -0.151306
C361  C     C_R   0.840837 0.729815 0.241147 -0.151815
C362  C     C_R   0.159164 0.270190 0.241146 -0.151884
C363  C     C_R   0.822658 0.750002 0.249978 0.082031
C364  C     C_R   0.177342 0.250002 0.249977 0.082044
C365  C     C_R   0.822658 0.250002 0.749980 0.082194
C366  C     C_R   0.177342 0.750002 0.749979 0.082150
C367  C     C_R   0.322658 0.250002 0.249978 0.082031
C368  C     C_R   0.500028 0.087721 0.411132 0.158875
C369  C     C_R   0.677342 0.750002 0.249977 0.082044
C370  C     C_R   0.322658 0.750002 0.749980 0.082194
C371  C     C_R   0.677342 0.250002 0.749979 0.082150
C372  C     C_R   0.894883 0.750000 0.249993 -0.035291
C373  C     C_R   0.105117 0.250002 0.249991 -0.035285
C374  C     C_R   0.894884 0.249999 0.749993 -0.035142
C375  C     C_R   0.105117 0.750002 0.749991 -0.035198
C376  C     C_R   0.394883 0.250000 0.249993 -0.035291
C377  C     C_R   0.605116 0.750002 0.249991 -0.035285
C378  C     C_R   0.394884 0.749999 0.749993 -0.035142
C379  C     C_R   0.499983 0.912280 0.411132 0.158876
C380  C     C_R   0.605117 0.250002 0.749991 -0.035198
C381  C     C_R   0.715126 0.750003 0.249973 0.286921
C382  C     C_R   0.284874 0.250003 0.249974 0.286962
C383  C     C_R   0.715126 0.250002 0.749975 0.287308
C384  C     C_R   0.284874 0.750002 0.749976 0.286988
C385  C     C_R   0.215126 0.250003 0.249973 0.286921
C386  C     C_R   0.784874 0.750003 0.249974 0.286962
C387  C     C_R   0.215126 0.750002 0.749975 0.287308
C388  C     C_R   0.784874 0.250002 0.749976 0.286988
C389  C     C_R   0.031136 0.937419 0.060353 -0.198945
C390  C     C_R   0.999975 0.412282 0.588871 0.158966
C391  C     C_R   0.968857 0.062574 0.060360 -0.201139
C392  C     C_R   0.031167 0.062583 0.939647 -0.202992
C393  C     C_R   0.968785 0.939903 0.937216 -0.197572
C394  C     C_R   0.531136 0.437420 0.060353 -0.198944
C395  C     C_R   0.468857 0.562574 0.060360 -0.201139
C396  C     C_R   0.531167 0.562583 0.939647 -0.202993
C397  C     C_R   0.468785 0.439902 0.937217 -0.197573
C398  C     C_R   0.531136 0.937425 0.560359 -0.201515
C399  C     C_R   0.468857 0.062574 0.560360 -0.201453
C400  C     C_R   0.531169 0.062578 0.439642 -0.201382
C401  C     C_R   0.000014 0.587718 0.588870 0.158957
C402  C     C_R   0.468838 0.937422 0.439643 -0.201366
C403  C     C_R   0.031136 0.437426 0.560360 -0.201516
C404  C     C_R   0.968857 0.562575 0.560360 -0.201453
C405  C     C_R   0.031168 0.562578 0.439642 -0.201382
C406  C     C_R   0.968838 0.437422 0.439643 -0.201366
C407  C     C_R   0.000028 0.587721 0.411132 0.158875
C408  C     C_R   0.999983 0.412280 0.411132 0.158876
C409  C     C_R   0.968791 0.922417 0.081022 -0.167661
C410  C     C_R   0.499925 0.283635 0.216346 0.907848
C411  C     C_R   0.031201 0.077584 0.081020 -0.169446
C412  C     C_R   0.968834 0.077578 0.918977 -0.173360
C413  C     C_R   0.031050 0.919236 0.922100 -0.161640
C414  C     C_R   0.468791 0.422417 0.081022 -0.167661
C415  C     C_R   0.531201 0.577584 0.081020 -0.169446
C416  C     C_R   0.468834 0.577578 0.918977 -0.173360
C417  C     C_R   0.531050 0.419237 0.922099 -0.161641
C418  C     C_R   0.468789 0.922417 0.581021 -0.169784
C419  C     C_R   0.531201 0.077584 0.581020 -0.169849
C420  C     C_R   0.468835 0.077581 0.418980 -0.169627
C421  C     C_R   0.500075 0.716365 0.216346 0.907726
C422  C     C_R   0.531175 0.922419 0.418978 -0.169638
C423  C     C_R   0.968789 0.422416 0.581020 -0.169783
C424  C     C_R   0.031201 0.577584 0.581020 -0.169847
C425  C     C_R   0.968835 0.577581 0.418980 -0.169627
C426  C     C_R   0.031175 0.422420 0.418978 -0.169638
C427  C     C_R   0.968759 0.940034 0.062937 -0.175119
C428  C     C_R   0.031236 0.059967 0.062935 -0.179301
C429  C     C_R   0.968789 0.059959 0.937060 -0.184210
C430  C     C_R   0.031149 0.937183 0.939859 -0.182565
C431  C     C_R   0.468759 0.440034 0.062937 -0.175120
C432  C     C_R   0.499927 0.716365 0.783654 0.907641
C433  C     C_R   0.531236 0.559967 0.062935 -0.179301
C434  C     C_R   0.468789 0.559960 0.937060 -0.184211
C435  C     C_R   0.531149 0.437184 0.939859 -0.182566
C436  C     C_R   0.468757 0.940033 0.562936 -0.179593
C437  C     C_R   0.531236 0.059967 0.562935 -0.179642
C438  C     C_R   0.468789 0.059963 0.437063 -0.179509
C439  C     C_R   0.531218 0.940037 0.437062 -0.179527
C440  C     C_R   0.968757 0.440032 0.562935 -0.179593
C441  C     C_R   0.031236 0.559966 0.562936 -0.179642
C442  C     C_R   0.968789 0.559963 0.437063 -0.179509
C443  C     C_R   0.500129 0.283627 0.783661 0.907669
C444  C     C_R   0.031218 0.440038 0.437062 -0.179527
C445  C     C_R   0.999948 0.947679 0.052523 -0.045805
C446  C     C_R   0.000047 0.052319 0.052525 -0.045404
C447  C     C_R   0.999972 0.052319 0.947476 -0.044612
C448  C     C_R   0.999995 0.947576 0.947580 -0.044908
C449  C     C_R   0.499948 0.447679 0.052523 -0.045805
C450  C     C_R   0.500047 0.552319 0.052525 -0.045404
C451  C     C_R   0.499972 0.552319 0.947476 -0.044612
C452  C     C_R   0.499995 0.447576 0.947580 -0.044908
C453  C     C_R   0.499948 0.947681 0.552524 -0.045186
C454  C     C_R   0.499925 0.783635 0.716346 0.907667
C455  C     C_R   0.500047 0.052319 0.552525 -0.045192
C456  C     C_R   0.499972 0.052319 0.447475 -0.045269
C457  C     C_R   0.500033 0.947681 0.447475 -0.045269
C458  C     C_R   0.999948 0.447681 0.552524 -0.045185
C459  C     C_R   0.000047 0.552319 0.552525 -0.045192
C460  C     C_R   0.999973 0.552319 0.447475 -0.045269
C461  C     C_R   0.000032 0.447681 0.447475 -0.045269
C462  C     C_R   0.977745 0.873591 0.105478 -0.274857
C463  C     C_R   0.022241 0.126408 0.105475 -0.278402
C464  C     C_R   0.977808 0.126407 0.894531 -0.278492
F1    F     F_    0.042892 0.915011 0.130817 -0.662945
F2    F     F_    0.457102 0.084985 0.630826 -0.663278
F3    F     F_    0.542943 0.085005 0.369177 -0.663023
F4    F     F_    0.457073 0.914998 0.369179 -0.663020
F5    F     F_    0.042878 0.415019 0.630826 -0.663471
F6    F     F_    0.957101 0.584986 0.630826 -0.663278
F7    F     F_    0.042943 0.585005 0.369177 -0.663023
F8    F     F_    0.957073 0.414998 0.369179 -0.663020
F9    F     F_    0.006667 0.807071 0.131454 -0.659397
F10   F     F_    0.993316 0.192928 0.131455 -0.661157
F11   F     F_    0.006722 0.192939 0.868545 -0.661192
F12   F     F_    0.957102 0.084985 0.130826 -0.662928
F13   F     F_    0.007376 0.806503 0.868635 -0.655527
F14   F     F_    0.506668 0.307071 0.131454 -0.659397
F15   F     F_    0.493316 0.692928 0.131455 -0.661158
F16   F     F_    0.506722 0.692939 0.868545 -0.661192
F17   F     F_    0.507380 0.306503 0.868635 -0.655526
F18   F     F_    0.506675 0.807074 0.631455 -0.661745
F19   F     F_    0.493316 0.192928 0.631455 -0.661755
F20   F     F_    0.506735 0.192938 0.368544 -0.661602
F21   F     F_    0.493273 0.807064 0.368545 -0.661597
F22   F     F_    0.006679 0.307074 0.631455 -0.661744
F23   F     F_    0.042951 0.085011 0.869184 -0.666440
F24   F     F_    0.993317 0.692928 0.631455 -0.661754
F25   F     F_    0.006735 0.692938 0.368544 -0.661602
F26   F     F_    0.993273 0.307064 0.368545 -0.661597
F27   F     F_    0.285008 0.749503 0.206346 -0.596315
F28   F     F_    0.715001 0.250479 0.206346 -0.596190
F29   F     F_    0.285001 0.250468 0.793694 -0.597382
F30   F     F_    0.714991 0.749493 0.793694 -0.596824
F31   F     F_    0.785008 0.249503 0.206346 -0.596315
F32   F     F_    0.215001 0.750479 0.206346 -0.596190
F33   F     F_    0.785001 0.750468 0.793694 -0.597383
F34   F     F_    0.956672 0.869756 0.914801 -0.655591
F35   F     F_    0.214991 0.249493 0.793694 -0.596824
F36   F     F_    0.785008 0.749515 0.706344 -0.597007
F37   F     F_    0.215000 0.250491 0.706344 -0.597098
F38   F     F_    0.785000 0.250479 0.293696 -0.596737
F39   F     F_    0.214991 0.749503 0.293696 -0.596742
F40   F     F_    0.285008 0.249515 0.706344 -0.597007
F41   F     F_    0.715000 0.750491 0.706344 -0.597098
F42   F     F_    0.285001 0.750479 0.293696 -0.596737
F43   F     F_    0.714991 0.249503 0.293696 -0.596742
F44   F     F_    0.542892 0.415011 0.130817 -0.662945
F45   F     F_    0.457102 0.584985 0.130826 -0.662928
F46   F     F_    0.542951 0.585011 0.869184 -0.666441
F47   F     F_    0.456675 0.369755 0.914802 -0.655591
F48   F     F_    0.542881 0.915018 0.630825 -0.663471
H1    H     H_    0.890263 0.785838 0.265999 0.158371
H2    H     H_    0.609736 0.214169 0.766009 0.158493
H3    H     H_    0.172668 0.785917 0.734118 0.152313
H4    H     H_    0.327352 0.285922 0.265829 0.152557
H5    H     H_    0.672647 0.714083 0.265828 0.152548
H6    H     H_    0.327335 0.714080 0.734135 0.152214
H7    H     H_    0.672667 0.285917 0.734118 0.152313
H8    H     H_    0.327352 0.785923 0.765827 0.152726
H9    H     H_    0.672646 0.214088 0.765841 0.152613
H10   H     H_    0.327335 0.214082 0.234130 0.152695
H11   H     H_    0.672666 0.785922 0.234128 0.152692
H12   H     H_    0.827352 0.285923 0.765827 0.152726
H13   H     H_    0.390246 0.214162 0.233984 0.158493
H14   H     H_    0.172646 0.714088 0.765841 0.152613
H15   H     H_    0.827335 0.714082 0.234130 0.152695
H16   H     H_    0.172666 0.285922 0.234128 0.152692
H17   H     H_    0.055510 0.942928 0.052485 0.166458
H18   H     H_    0.944485 0.057063 0.052496 0.166066
H19   H     H_    0.055535 0.057078 0.947515 0.166021
H20   H     H_    0.944440 0.947774 0.942762 0.165185
H21   H     H_    0.555509 0.442928 0.052485 0.166458
H22   H     H_    0.444485 0.557063 0.052496 0.166066
H23   H     H_    0.555535 0.557078 0.947515 0.166021
H24   H     H_    0.609755 0.785840 0.233982 0.158452
H25   H     H_    0.444440 0.447773 0.942764 0.165186
H26   H     H_    0.555510 0.942937 0.552495 0.165853
H27   H     H_    0.444485 0.057063 0.552496 0.165905
H28   H     H_    0.555537 0.057069 0.447506 0.165925
H29   H     H_    0.444468 0.942930 0.447508 0.165938
H30   H     H_    0.055510 0.442938 0.552496 0.165854
H31   H     H_    0.944485 0.557064 0.552496 0.165905
H32   H     H_    0.055537 0.557069 0.447506 0.165925
H33   H     H_    0.944468 0.442930 0.447508 0.165938
H34   H     H_    0.055362 0.911750 0.083985 0.168708
H35   H     H_    0.890263 0.285839 0.765996 0.158407
H36   H     H_    0.944628 0.088240 0.083997 0.168155
H37   H     H_    0.055410 0.088259 0.916017 0.168241
H38   H     H_    0.944474 0.916498 0.911366 0.164203
H39   H     H_    0.555362 0.411750 0.083985 0.168708
H40   H     H_    0.444628 0.588240 0.083997 0.168155
H41   H     H_    0.555410 0.588259 0.916017 0.168241
H42   H     H_    0.444474 0.416496 0.911367 0.164204
H43   H     H_    0.555361 0.911760 0.583996 0.167871
H44   H     H_    0.444628 0.088240 0.583997 0.167947
H45   H     H_    0.555413 0.088249 0.416008 0.168000
H46   H     H_    0.109736 0.714169 0.766009 0.158493
H47   H     H_    0.444597 0.911751 0.416009 0.168006
H48   H     H_    0.055361 0.411761 0.583997 0.167870
H49   H     H_    0.944628 0.588241 0.583996 0.167947
H50   H     H_    0.055413 0.588249 0.416008 0.168000
H51   H     H_    0.944597 0.411751 0.416009 0.168007
H52   H     H_    0.944543 0.916834 0.089044 0.144629
H53   H     H_    0.055449 0.083169 0.089038 0.144313
H54   H     H_    0.944590 0.083158 0.910955 0.142964
H55   H     H_    0.055263 0.911190 0.916494 0.147966
H56   H     H_    0.444543 0.416834 0.089044 0.144629
H57   H     H_    0.890246 0.714162 0.233984 0.158493
H58   H     H_    0.555449 0.583169 0.089038 0.144313
H59   H     H_    0.444590 0.583158 0.910955 0.142964
H60   H     H_    0.555264 0.411192 0.916493 0.147967
H61   H     H_    0.444540 0.916831 0.589040 0.144058
H62   H     H_    0.555449 0.083169 0.589038 0.143992
H63   H     H_    0.444590 0.083164 0.410960 0.144160
H64   H     H_    0.555421 0.916837 0.410958 0.144149
H65   H     H_    0.944539 0.416830 0.589039 0.144058
H66   H     H_    0.055449 0.583169 0.589039 0.143992
H67   H     H_    0.944590 0.583164 0.410960 0.144160
H68   H     H_    0.109755 0.285840 0.233982 0.158452
H69   H     H_    0.055421 0.416837 0.410958 0.144149
H70   H     H_    0.944377 0.947724 0.057220 0.165304
H71   H     H_    0.055619 0.052281 0.057214 0.164700
H72   H     H_    0.944402 0.052266 0.942776 0.163230
H73   H     H_    0.055546 0.942799 0.947611 0.164847
H74   H     H_    0.444377 0.447723 0.057220 0.165304
H75   H     H_    0.555619 0.552281 0.057214 0.164700
H76   H     H_    0.444402 0.552266 0.942776 0.163230
H77   H     H_    0.555546 0.442800 0.947609 0.164848
H78   H     H_    0.444375 0.947719 0.557215 0.164485
H79   H     H_    0.994802 0.863657 0.191539 0.171361
H80   H     H_    0.555619 0.052281 0.557214 0.164441
H81   H     H_    0.444401 0.052273 0.442782 0.164546
H82   H     H_    0.555604 0.947727 0.442781 0.164528
H83   H     H_    0.944375 0.447718 0.557214 0.164485
H84   H     H_    0.055619 0.552280 0.557215 0.164441
H85   H     H_    0.944401 0.552273 0.442782 0.164546
H86   H     H_    0.055605 0.447727 0.442781 0.164528
H87   H     H_    0.960672 0.871887 0.089980 0.174159
H88   H     H_    0.039312 0.128113 0.089975 0.171878
H89   H     H_    0.960735 0.128105 0.910031 0.171945
H90   H     H_    0.005194 0.136343 0.191538 0.171343
H91   H     H_    0.038987 0.910206 0.871384 0.169930
H92   H     H_    0.460672 0.371887 0.089980 0.174159
H93   H     H_    0.539312 0.628113 0.089975 0.171878
H94   H     H_    0.460734 0.628105 0.910031 0.171945
H95   H     H_    0.538985 0.410207 0.871383 0.169930
H96   H     H_    0.460677 0.871887 0.589979 0.171631
H97   H     H_    0.539312 0.128113 0.589974 0.171618
H98   H     H_    0.460745 0.128108 0.410034 0.171660
H99   H     H_    0.539266 0.871893 0.410030 0.171653
H100  H     H_    0.960679 0.371886 0.589978 0.171631
H101  H     H_    0.994850 0.136341 0.808469 0.170130
H102  H     H_    0.039313 0.628113 0.589975 0.171619
H103  H     H_    0.960745 0.628108 0.410034 0.171660
H104  H     H_    0.039266 0.371893 0.410030 0.171653
H105  H     H_    0.960243 0.840306 0.121247 0.179177
H106  H     H_    0.039741 0.159695 0.121241 0.178410
H107  H     H_    0.960305 0.159685 0.878764 0.178318
H108  H     H_    0.039658 0.878596 0.840110 0.158969
H109  H     H_    0.460243 0.340307 0.121247 0.179177
H110  H     H_    0.539741 0.659695 0.121241 0.178410
H111  H     H_    0.460305 0.659685 0.878764 0.178318
H112  H     H_    0.109737 0.214164 0.265997 0.158361
H113  H     H_    0.995316 0.863544 0.809003 0.167156
H114  H     H_    0.539656 0.378597 0.840110 0.158970
H115  H     H_    0.460248 0.840305 0.621245 0.178183
H116  H     H_    0.539741 0.159695 0.621240 0.178154
H117  H     H_    0.460316 0.159688 0.378769 0.178230
H118  H     H_    0.539695 0.840312 0.378764 0.178229
H119  H     H_    0.960250 0.340304 0.621244 0.178183
H120  H     H_    0.039742 0.659694 0.621241 0.178154
H121  H     H_    0.960316 0.659688 0.378769 0.178230
H122  H     H_    0.039695 0.340312 0.378764 0.178229
H123  H     H_    0.039184 0.878871 0.160905 0.176412
H124  H     H_    0.494802 0.363657 0.191539 0.171361
H125  H     H_    0.960809 0.121126 0.160912 0.176336
H126  H     H_    0.039243 0.121150 0.839096 0.175752
H127  H     H_    0.960659 0.839309 0.879001 0.195302
H128  H     H_    0.539184 0.378871 0.160905 0.176412
H129  H     H_    0.460809 0.621126 0.160912 0.176336
H130  H     H_    0.539243 0.621150 0.839096 0.175752
H131  H     H_    0.460662 0.339308 0.879002 0.195301
H132  H     H_    0.539175 0.878876 0.660911 0.176062
H133  H     H_    0.460809 0.121126 0.660913 0.176213
H134  H     H_    0.539238 0.121145 0.339091 0.176314
H135  H     H_    0.505194 0.636342 0.191538 0.171343
H136  H     H_    0.460778 0.878857 0.339092 0.176313
H137  H     H_    0.039173 0.378878 0.660913 0.176061
H138  H     H_    0.960808 0.621127 0.660912 0.176214
H139  H     H_    0.039238 0.621145 0.339091 0.176314
H140  H     H_    0.960778 0.378857 0.339092 0.176313
H141  H     H_    0.494850 0.636341 0.808469 0.170130
H142  H     H_    0.495312 0.363544 0.809003 0.167156
H143  H     H_    0.494792 0.863657 0.691541 0.171202
H144  H     H_    0.505194 0.136343 0.691538 0.171225
H145  H     H_    0.494842 0.136341 0.308469 0.171389
H146  H     H_    0.505171 0.863659 0.308467 0.171378
H147  H     H_    0.994789 0.363657 0.691541 0.171201
H148  H     H_    0.890246 0.214160 0.733988 0.158033
H149  H     H_    0.005193 0.636343 0.691538 0.171226
H150  H     H_    0.994842 0.636341 0.308469 0.171389
H151  H     H_    0.005171 0.363659 0.308467 0.171378
H152  H     H_    0.994940 0.832403 0.222931 0.176727
H153  H     H_    0.005062 0.167598 0.222930 0.176706
H154  H     H_    0.994958 0.167594 0.777074 0.176183
H155  H     H_    0.995340 0.832489 0.777354 0.175579
H156  H     H_    0.494940 0.332403 0.222931 0.176727
H157  H     H_    0.505062 0.667597 0.222930 0.176706
H158  H     H_    0.494957 0.667594 0.777074 0.176183
H159  H     H_    0.109756 0.785835 0.733971 0.158352
H160  H     H_    0.495336 0.332489 0.777354 0.175578
H161  H     H_    0.494931 0.832402 0.722932 0.176625
H162  H     H_    0.505062 0.167598 0.722930 0.176700
H163  H     H_    0.494949 0.167594 0.277074 0.176791
H164  H     H_    0.505058 0.832405 0.277072 0.176769
H165  H     H_    0.994928 0.332402 0.722932 0.176624
H166  H     H_    0.005061 0.667597 0.722931 0.176700
H167  H     H_    0.994949 0.667594 0.277074 0.176791
H168  H     H_    0.005058 0.332405 0.277072 0.176769
H169  H     H_    0.005161 0.777062 0.167555 0.193148
H170  H     H_    0.390263 0.285838 0.265999 0.158371
H171  H     H_    0.994829 0.222938 0.167556 0.192857
H172  H     H_    0.005184 0.222944 0.832442 0.192799
H173  H     H_    0.005723 0.776785 0.832348 0.193259
H174  H     H_    0.505162 0.277062 0.167555 0.193148
H175  H     H_    0.494829 0.722938 0.167556 0.192857
H176  H     H_    0.505184 0.722944 0.832442 0.192799
H177  H     H_    0.505727 0.276785 0.832347 0.193258
H178  H     H_    0.505169 0.777063 0.667555 0.192619
H179  H     H_    0.494829 0.222938 0.667556 0.192584
H180  H     H_    0.505194 0.222944 0.332442 0.192705
H181  H     H_    0.609737 0.714164 0.265997 0.158361
H182  H     H_    0.494807 0.777057 0.332442 0.192705
H183  H     H_    0.005172 0.277063 0.667555 0.192619
H184  H     H_    0.994830 0.722938 0.667556 0.192583
H185  H     H_    0.005194 0.722944 0.332442 0.192705
H186  H     H_    0.994807 0.277057 0.332442 0.192705
H187  H     H_    0.390603 0.717988 0.272860 0.171254
H188  H     H_    0.609399 0.282006 0.272859 0.171264
H189  H     H_    0.390615 0.282014 0.727170 0.170414
H190  H     H_    0.609384 0.717993 0.727153 0.171058
H191  H     H_    0.890603 0.217988 0.272860 0.171254
H192  H     H_    0.390246 0.714160 0.733988 0.158033
H193  H     H_    0.109399 0.782006 0.272859 0.171264
H194  H     H_    0.890615 0.782013 0.727170 0.170414
H195  H     H_    0.109384 0.217993 0.727153 0.171059
H196  H     H_    0.890602 0.717981 0.772849 0.171333
H197  H     H_    0.109399 0.282002 0.772865 0.171107
H198  H     H_    0.890614 0.282007 0.227161 0.171378
H199  H     H_    0.109384 0.717988 0.227160 0.171433
H200  H     H_    0.390603 0.217981 0.772849 0.171333
H201  H     H_    0.609399 0.782002 0.772865 0.171107
H202  H     H_    0.390614 0.782007 0.227161 0.171378
H203  H     H_    0.609756 0.285835 0.733971 0.158352
H204  H     H_    0.609383 0.217988 0.227160 0.171433
H205  H     H_    0.327688 0.717939 0.272615 0.168877
H206  H     H_    0.672314 0.282048 0.272614 0.168888
H207  H     H_    0.327702 0.282058 0.727433 0.168195
H208  H     H_    0.672297 0.717942 0.727417 0.168701
H209  H     H_    0.827688 0.217940 0.272615 0.168877
H210  H     H_    0.172314 0.782048 0.272614 0.168888
H211  H     H_    0.827702 0.782058 0.727433 0.168194
H212  H     H_    0.172297 0.217942 0.727417 0.168701
H213  H     H_    0.827688 0.717932 0.772603 0.168915
H214  H     H_    0.390263 0.785840 0.765996 0.158407
H215  H     H_    0.172314 0.282044 0.772620 0.168467
H216  H     H_    0.827701 0.282051 0.227425 0.168994
H217  H     H_    0.172297 0.717936 0.227425 0.168999
H218  H     H_    0.327688 0.217932 0.772602 0.168915
H219  H     H_    0.672314 0.782044 0.772620 0.168467
H220  H     H_    0.327701 0.782051 0.227425 0.168994
H221  H     H_    0.672297 0.217936 0.227425 0.168999
H222  H     H_    0.827352 0.785922 0.265829 0.152557
H223  H     H_    0.172647 0.214083 0.265828 0.152548
H224  H     H_    0.827335 0.214080 0.734135 0.152214
N1    N     N_R   0.767124 0.728768 0.249927 -0.170458
N2    N     N_R   0.732876 0.271237 0.749924 -0.170107
N3    N     N_R   0.267140 0.271238 0.250019 -0.170349
N4    N     N_R   0.732860 0.728768 0.250019 -0.170411
N5    N     N_R   0.767124 0.228767 0.749933 -0.170700
N6    N     N_R   0.232876 0.771237 0.749924 -0.170107
N7    N     N_R   0.767140 0.771238 0.250019 -0.170349
N8    N     N_R   0.232860 0.228768 0.250019 -0.170411
N9    N     N_R   0.232876 0.271238 0.249926 -0.170422
N10   N     N_R   0.767141 0.271237 0.750017 -0.170421
N11   N     N_R   0.232860 0.728767 0.750026 -0.170801
N12   N     N_R   0.267124 0.228768 0.249927 -0.170458
N13   N     N_R   0.732876 0.771238 0.249926 -0.170422
N14   N     N_R   0.267141 0.771237 0.750017 -0.170421
N15   N     N_R   0.732860 0.228767 0.750026 -0.170801
N16   N     N_R   0.267124 0.728767 0.749933 -0.170700
O1    O     O_R   0.999940 0.761110 0.210140 -0.617730
O2    O     O_R   0.500060 0.238890 0.710140 -0.618125
O3    O     O_R   0.499940 0.238890 0.289860 -0.618058
O4    O     O_R   0.500060 0.761110 0.289860 -0.618036
O5    O     O_R   0.999940 0.261110 0.710140 -0.618064
O6    O     O_R   0.000060 0.738890 0.710140 -0.618125
O7    O     O_R   0.999940 0.738890 0.289860 -0.618058
O8    O     O_R   0.000060 0.261110 0.289860 -0.618036
O9    O     O_R   0.999930 0.789850 0.238890 -0.626346
O10   O     O_R   0.000070 0.210150 0.238890 -0.626323
O11   O     O_R   0.999930 0.210150 0.761110 -0.626541
O12   O     O_R   0.000060 0.238890 0.210140 -0.617888
O13   O     O_R   0.000070 0.789850 0.761110 -0.626911
O14   O     O_R   0.499930 0.289850 0.238890 -0.626346
O15   O     O_R   0.500070 0.710150 0.238890 -0.626323
O16   O     O_R   0.499930 0.710150 0.761110 -0.626541
O17   O     O_R   0.500070 0.289850 0.761110 -0.626911
O18   O     O_R   0.499930 0.789850 0.738890 -0.626323
O19   O     O_R   0.500070 0.210150 0.738890 -0.626255
O20   O     O_R   0.499930 0.210150 0.261110 -0.626247
O21   O     O_R   0.500070 0.789850 0.261110 -0.626253
O22   O     O_R   0.999930 0.289850 0.738890 -0.626323
O23   O     O_R   0.999940 0.238890 0.789860 -0.617875
O24   O     O_R   0.000070 0.710150 0.738890 -0.626255
O25   O     O_R   0.999930 0.710150 0.261110 -0.626247
O26   O     O_R   0.000070 0.289850 0.261110 -0.626253
O27   O     O_R   0.949030 0.735660 0.235600 -0.620956
O28   O     O_R   0.050970 0.264340 0.235600 -0.621038
O29   O     O_R   0.949030 0.264340 0.764400 -0.621008
O30   O     O_R   0.050970 0.735660 0.764400 -0.620844
O31   O     O_R   0.449030 0.235660 0.235600 -0.620956
O32   O     O_R   0.550970 0.764340 0.235600 -0.621038
O33   O     O_R   0.449030 0.764340 0.764400 -0.621008
O34   O     O_R   0.000060 0.761110 0.789860 -0.617362
O35   O     O_R   0.550970 0.235660 0.764400 -0.620844
O36   O     O_R   0.449030 0.735660 0.735600 -0.621302
O37   O     O_R   0.550970 0.264340 0.735600 -0.620975
O38   O     O_R   0.449030 0.264340 0.264400 -0.621201
O39   O     O_R   0.550970 0.735660 0.264400 -0.621170
O40   O     O_R   0.949030 0.235660 0.735600 -0.621302
O41   O     O_R   0.050970 0.764340 0.735600 -0.620976
O42   O     O_R   0.949030 0.764340 0.264400 -0.621200
O43   O     O_R   0.050970 0.235660 0.264400 -0.621170
O44   O     O_R   0.050870 0.735660 0.235590 -0.620775
O45   O     O_R   0.499940 0.261110 0.210140 -0.617730
O46   O     O_R   0.949130 0.264340 0.235590 -0.620838
O47   O     O_R   0.050870 0.264340 0.764410 -0.620922
O48   O     O_R   0.949130 0.735660 0.764410 -0.620477
O49   O     O_R   0.550870 0.235660 0.235590 -0.620775
O50   O     O_R   0.449130 0.764340 0.235590 -0.620838
O51   O     O_R   0.550870 0.764340 0.764410 -0.620922
O52   O     O_R   0.449130 0.235660 0.764410 -0.620477
O53   O     O_R   0.550870 0.735660 0.735590 -0.621045
O54   O     O_R   0.449130 0.264340 0.735590 -0.621846
O55   O     O_R   0.550870 0.264340 0.264410 -0.620974
O56   O     O_R   0.500060 0.738890 0.210140 -0.617888
O57   O     O_R   0.449130 0.735660 0.264410 -0.620956
O58   O     O_R   0.050870 0.235660 0.735590 -0.621045
O59   O     O_R   0.949130 0.764340 0.735590 -0.621846
O60   O     O_R   0.050870 0.764340 0.264410 -0.620974
O61   O     O_R   0.949130 0.235660 0.264410 -0.620956
O62   O     O_R   0.971250 0.525520 0.525470 -0.621785
O63   O     O_R   0.028750 0.474480 0.525470 -0.621820
O64   O     O_R   0.971250 0.474480 0.474530 -0.621765
O65   O     O_R   0.028750 0.525520 0.474530 -0.621780
O66   O     O_R   0.471250 0.025520 0.525470 -0.621785
O67   O     O_R   0.499940 0.738890 0.789860 -0.617875
O68   O     O_R   0.528750 0.974480 0.525470 -0.621819
O69   O     O_R   0.471250 0.974480 0.474530 -0.621765
O70   O     O_R   0.528750 0.025520 0.474530 -0.621780
O71   O     O_R   0.471250 0.525520 0.025470 -0.621739
O72   O     O_R   0.528750 0.474480 0.025470 -0.621729
O73   O     O_R   0.471250 0.474480 0.974530 -0.622154
O74   O     O_R   0.528750 0.525520 0.974530 -0.621662
O75   O     O_R   0.971250 0.025520 0.025470 -0.621738
O76   O     O_R   0.028750 0.974480 0.025470 -0.621729
O77   O     O_R   0.971250 0.974480 0.974530 -0.622153
O78   O     O_R   0.500060 0.261110 0.789860 -0.617361
O79   O     O_R   0.028750 0.025520 0.974530 -0.621662
O80   O     O_R   0.028740 0.525480 0.525430 -0.623541
O81   O     O_R   0.971260 0.474520 0.525430 -0.623511
O82   O     O_R   0.028740 0.474520 0.474570 -0.623501
O83   O     O_R   0.971260 0.525480 0.474570 -0.623485
O84   O     O_R   0.528740 0.025480 0.525430 -0.623541
O85   O     O_R   0.471260 0.974520 0.525430 -0.623511
O86   O     O_R   0.528740 0.974520 0.474570 -0.623501
O87   O     O_R   0.471260 0.025480 0.474570 -0.623485
O88   O     O_R   0.528740 0.525480 0.025430 -0.623406
O89   O     O_R   0.499940 0.761110 0.710140 -0.618062
O90   O     O_R   0.471260 0.474520 0.025430 -0.621520
O91   O     O_R   0.528740 0.474520 0.974570 -0.622984
O92   O     O_R   0.471260 0.525480 0.974570 -0.625393
O93   O     O_R   0.028740 0.025480 0.025430 -0.623406
O94   O     O_R   0.971260 0.974520 0.025430 -0.621520
O95   O     O_R   0.028740 0.974520 0.974570 -0.622984
O96   O     O_R   0.971260 0.025480 0.974570 -0.625393
Zn1   Zn    Zn3+2 0.999950 0.730840 0.230780 0.980788
Zn2   Zn    Zn3+2 0.500050 0.269160 0.730780 0.977851
Zn3   Zn    Zn3+2 0.499950 0.269160 0.269220 0.979754
Zn4   Zn    Zn3+2 0.500050 0.730840 0.269220 0.979732
Zn5   Zn    Zn3+2 0.999950 0.230840 0.730780 0.978809
Zn6   Zn    Zn3+2 0.000050 0.769160 0.730780 0.977851
Zn7   Zn    Zn3+2 0.999950 0.769160 0.269220 0.979754
Zn8   Zn    Zn3+2 0.000050 0.230840 0.269220 0.979732
Zn9   Zn    Zn3+2 0.961560 0.500000 0.500000 0.972978
Zn10  Zn    Zn3+2 0.038440 0.500000 0.500000 0.972853
Zn11  Zn    Zn3+2 0.461560 0.000000 0.500000 0.972978
Zn12  Zn    Zn3+2 0.000050 0.269160 0.230780 0.980303
Zn13  Zn    Zn3+2 0.538440 0.000000 0.500000 0.972853
Zn14  Zn    Zn3+2 0.461560 0.500000 0.000000 0.973005
Zn15  Zn    Zn3+2 0.538440 0.500000 0.000000 0.974080
Zn16  Zn    Zn3+2 0.961560 0.000000 0.000000 0.973005
Zn17  Zn    Zn3+2 0.038440 0.000000 0.000000 0.974079
Zn18  Zn    Zn3+2 0.999950 0.269160 0.769220 0.979843
Zn19  Zn    Zn3+2 0.000050 0.730840 0.769220 0.981377
Zn20  Zn    Zn3+2 0.499950 0.230840 0.230780 0.980788
Zn21  Zn    Zn3+2 0.500050 0.769160 0.230780 0.980303
Zn22  Zn    Zn3+2 0.499950 0.769160 0.769220 0.979843
Zn23  Zn    Zn3+2 0.500050 0.230840 0.769220 0.981377
Zn24  Zn    Zn3+2 0.499950 0.730840 0.730780 0.978809

loop_
_geom_bond_atom_site_label_1
_geom_bond_atom_site_label_2
_ccdc_geom_bond_type
O72   Zn15  S    
C146  C396  A    
C199  F24   S    
C40   C208  S    
C141  H161  S    
C50   C218  S    
O23   Zn18  S    
C228  H194  S    
C8    C26   A    
C227  H193  S    
C231  C282  A    
C237  C274  A    
C133  C151  A    
C118  H113  S    
C32   H121  S    
C235  C407  A    
C64   H136  S    
C247  H212  S    
O91   Zn15  S    
C15   C32   A    
C310  O81   A    
C119  H124  S    
C266  C278  S    
C330  C375  A    
C9    C27   A    
C118  C206  A    
C335  C417  A    
C419  H62   S    
C28   H117  S    
O71   Zn14  S    
C91   C375  S    
C128  C145  A    
C369  C381  S    
C10   C28   A    
C167  C185  A    
C126  C143  A    
N1    N4    A    
C200  C218  A    
C427  C445  A    
C11   H99   S    
C226  C278  A    
O47   Zn18  S    
C232  C278  A    
C10   H98   S    
C156  C432  S    
C254  C256  A    
C36   C53   A    
C19   C37   A    
C384  N16   A    
O56   Zn21  S    
C125  C213  A    
C411  C428  A    
O89   Zn24  S    
C350  H4    S    
C38   C55   A    
C139  H158  S    
C96   C257  S    
C177  H179  S    
C8    H96   S    
C328  C373  A    
C26   C43   A    
C319  C449  S    
C273  O52   A    
C48   C65   A    
O96   Zn16  S    
O60   Zn7   S    
C43   C211  S    
C324  C445  S    
C78   F48   S    
C76   C103  A    
C2    O19   A    
C267  O47   A    
C425  H67   S    
C101  H37   S    
C148  C165  A    
C396  H23   S    
C269  C281  S    
C292  C297  A    
C386  N7    A    
C415  C433  A    
C325  C448  S    
C285  F29   S    
C296  F40   S    
C172  H174  S    
C326  C447  S    
C418  H61   S    
C314  C455  S    
C67   C85   A    
C40   C58   A    
C422  C439  A    
C79   H34   S    
C120  C208  A    
C237  C254  A    
O30   Zn19  S    
O86   Zn13  S    
C166  C184  A    
C46   O6    A    
O76   Zn17  S    
O39   Zn4   S    
C104  C335  S    
C47   C64   A    
C136  H155  S    
C74   C100  A    
C116  C133  A    
C288  F32   S    
C184  H186  S    
C225  C242  A    
C310  C458  S    
C388  N10   A    
C173  C191  A    
C68   O8    A    
C137  H156  S    
C49   C217  S    
C18   H106  S    
C129  H149  S    
C17   H105  S    
C344  C362  A    
C320  O73   A    
C66   H138  S    
C102  C312  S    
C123  C141  A    
C367  C382  S    
C288  C300  A    
C112  C151  S    
C442  C460  A    
C1    C150  S    
O58   Zn5   S    
C424  H66   S    
C257  C409  A    
C2    O2    A    
C405  C460  A    
C364  C385  S    
C1    O1    A    
O8    Zn8   S    
C436  H78   S    
C124  C394  A    
C463  H88   S    
C55   H127  S    
O64   Zn9   S    
C394  H21   S    
C157  H42   S    
O63   Zn10  S    
C133  H153  S    
C311  O64   A    
C325  O95   A    
C125  C142  A    
C120  C138  A    
C17   C34   A    
C122  H142  S    
C268  C411  A    
C234  C252  A    
C238  C275  A    
C53   C71   A    
C88   O43   A    
C245  H211  S    
C311  O82   A    
C118  C136  A    
C43   C61   A    
O78   Zn23  S    
C328  C347  A    
C412  H54   S    
C265  O60   A    
C424  C441  A    
C177  C195  A    
C286  C289  A    
C283  C288  A    
C103  C323  S    
C414  H56   S    
C284  C287  A    
C88   O28   A    
C182  C199  A    
C406  C461  A    
C90   H36   S    
C407  C425  A    
C21   H109  S    
C435  H77   S    
C236  H201  S    
C319  O72   A    
C319  O90   A    
C434  H76   S    
C23   H111  S    
C434  C451  A    
C116  C204  A    
C23   C41   A    
O48   Zn19  S    
C359  C365  A    
O14   Zn3   S    
C44   C62   A    
O38   Zn3   S    
C183  H185  S    
C9    C106  A    
C87   O42   A    
C444  H86   S    
O79   Zn17  S    
C358  C369  A    
C140  H160  S    
C224  C401  A    
C253  C260  A    
C127  C215  A    
C13   O3    A    
C84   F6    S    
C91   O41   A    
C417  H60   S    
C273  O54   A    
C341  C374  A    
C129  C147  A    
C420  C438  A    
C353  H7    S    
C329  H148  S    
O81   Zn9   S    
C316  C457  S    
C348  H224  S    
C57   C165  S    
C298  F42   S    
O16   Zn24  S    
C152  C223  S    
C297  F41   S    
C289  C304  A    
C390  C423  A    
C188  F13   S    
C51   C69   A    
C344  C373  A    
C232  H198  S    
C143  C161  A    
C432  O67   A    
C398  H26   S    
C331  C350  A    
C87   O27   A    
C338  H2    S    
C421  O15   A    
C285  C308  A    
C68   C166  S    
C228  C281  A    
C361  H15   S    
C152  C170  A    
C286  C307  A    
C121  C139  A    
C136  C153  A    
C163  C181  A    
N11   N16   A    
O90   Zn14  S    
C269  O48   A    
O31   Zn20  S    
O74   Zn15  S    
C91   O30   A    
C8    C105  A    
C273  C276  S    
C331  H170  S    
O77   Zn16  S    
C371  C383  S    
C145  H165  S    
C358  H11   S    
C117  H101  S    
C171  H173  S    
C56   C74   A    
C87   C372  S    
C29   C47   A    
C332  C377  A    
O22   Zn18  S    
C62   H133  S    
C62   C80   A    
C13   O20   A    
C242  H208  S    
C402  C457  A    
C332  C351  A    
O29   Zn18  S    
C354  C370  A    
C255  H221  S    
C108  C379  S    
C340  H24   S    
O83   Zn9   S    
C293  F37   S    
O13   Zn6   S    
C101  C392  A    
C130  C218  A    
C239  H205  S    
O70   Zn13  S    
C436  C453  A    
C416  H59   S    
C140  C158  A    
C403  H30   S    
O35   Zn23  S    
C27   C44   A    
C141  C159  A    
C229  H195  S    
C6    H94   S    
C111  C407  S    
C462  H87   S    
C137  C154  A    
C74   F44   S    
C198  F22   S    
O93   Zn17  S    
C323  C416  A    
C327  C345  A    
C82   C108  A    
C353  C371  A    
C50   C67   A    
C34   C203  S    
C162  C180  A    
C395  C450  A    
C283  F27   S    
C65   H137  S    
C194  F18   S    
C270  O55   A    
C314  O66   A    
C262  C300  S    
O54   Zn2   S    
C334  O13   A    
C330  C349  A    
C352  C370  A    
C317  O70   A    
C313  O83   A    
C317  C456  S    
C338  C380  A    
C237  H202  S    
C180  H182  S    
C182  H184  S    
C115  C132  A    
C368  C420  A    
O21   Zn21  S    
C77   F47   S    
C154  C410  S    
C195  C213  A    
C49   C66   A    
C186  C204  A    
C197  F21   S    
C79   C257  A    
C121  H141  S    
C131  C219  A    
C227  C244  A    
C92   O31   A    
C299  C305  A    
C443  O78   A    
C145  C163  A    
C267  C282  S    
C51   C219  S    
C178  C196  A    
C287  C302  A    
C115  C203  A    
C201  C379  A    
C95   C380  S    
C170  C187  A    
C70   C96   A    
O12   Zn12  S    
C258  C305  S    
C299  F43   S    
C420  H63   S    
C370  C384  S    
C400  C456  A    
C416  C434  A    
C158  C443  S    
C187  C205  A    
C318  O88   A    
O68   Zn13  S    
C187  F11   S    
C359  H12   S    
O37   Zn2   S    
C429  H72   S    
C192  F16   S    
C185  F9    S    
C128  C216  A    
C314  O84   A    
C17   C462  A    
C100  C301  S    
C315  O85   A    
C309  O62   A    
C159  C176  A    
C85   F7    S    
C235  H50   S    
C236  C253  A    
C336  H203  S    
C417  C435  A    
O75   Zn16  S    
C318  C450  S    
C123  H143  S    
C153  C334  S    
C245  C263  A    
C437  H80   S    
C325  O77   A    
C14   C110  A    
C9    H97   S    
O45   Zn20  S    
O44   Zn1   S    
C321  O74   A    
C37   C205  S    
C270  C275  S    
C403  C458  A    
C301  C414  A    
C93   C377  S    
C202  F26   S    
C42   C210  S    
C317  O87   A    
O53   Zn24  S    
C265  C280  S    
C112  O10   A    
C168  C398  A    
C110  C401  S    
C382  N12   A    
C261  C302  S    
C285  C291  A    
C183  C200  A    
C151  C169  A    
C238  C255  A    
C339  C356  A    
O49   Zn20  S    
C387  N11   A    
C263  C304  S    
O2    Zn2   S    
C161  C178  A    
C265  O44   A    
O1    Zn1   S    
C294  C299  A    
C402  H29   S    
C284  F28   S    
C184  C202  A    
C360  C366  A    
C193  C210  A    
C134  H154  S    
C170  H172  S    
C315  C453  S    
C132  H152  S    
C313  C460  S    
C83   F5    S    
C175  C193  A    
C147  C164  A    
C24   O4    A    
C168  H43   S    
C92   O38   A    
C79   C389  A    
C360  H14   S    
C31   H120  S    
C220  H187  S    
C127  H146  S    
O26   Zn12  S    
C229  C247  A    
C442  H85   S    
C3    C99   A    
O66   Zn11  S    
C351  H5    S    
C70   F1    S    
C244  C262  A    
C431  H74   S    
C2    C160  S    
O34   Zn19  S    
C11   C108  A    
C406  H33   S    
C225  C277  A    
C18   C463  A    
C243  C261  A    
C240  C258  A    
C59   C76   A    
C297  C307  A    
C404  C459  A    
C174  C192  A    
C20   H108  S    
C401  C424  A    
C231  C249  A    
C138  C155  A    
C271  C274  S    
C135  H40   S    
C81   C107  A    
C59   H130  S    
C241  C259  A    
C90   C391  A    
C93   O39   A    
C336  C353  A    
C432  O16   A    
C395  H22   S    
C96   C462  A    
C337  H214  S    
C199  C217  A    
C106  C357  S    
C291  C303  A    
C430  C448  A    
C270  O49   A    
C411  H53   S    
C222  H189  S    
C389  C445  A    
C167  H169  S    
O62   Zn9   S    
C97   C463  A    
C362  H16   S    
C361  C363  A    
C156  C174  A    
C321  O92   A    
C171  C188  A    
C346  C418  A    
O52   Zn23  S    
C89   O29   A    
C94   C378  S    
C35   O22   A    
O24   Zn19  S    
C250  H216  S    
C169  C186  A    
C293  C296  A    
C117  C205  A    
C196  F20   S    
O11   Zn5   S    
C336  C380  A    
C52   H123  S    
C1    O9    A    
C348  C365  A    
C391  H18   S    
C256  C306  S    
C30   H119  S    
C58   H129  S    
C46   O24   A    
C332  H181  S    
C221  H188  S    
C191  F15   S    
C350  C367  A    
C454  O18   A    
C190  C368  A    
C73   C99   A    
C105  C346  S    
C146  H41   S    
C113  H38   S    
C129  C217  A    
C333  C378  A    
C126  C214  A    
O92   Zn14  S    
C349  H3    S    
O88   Zn15  S    
C289  F33   S    
C222  C241  A    
C430  H73   S    
O94   Zn16  S    
C342  H46   S    
C404  H31   S    
C47   C215  S    
C24   O21   A    
C130  H150  S    
C342  C375  A    
O80   Zn10  S    
C293  C303  A    
C99   C290  S    
C67   H139  S    
O40   Zn5   S    
C14   C31   A    
C271  O50   A    
C418  C436  A    
C341  C359  A    
C283  C306  A    
C349  C366  A    
C157  C397  A    
C27   H116  S    
C176  H178  S    
C320  C452  S    
C255  C258  A    
C57   O25   A    
O4    Zn4   S    
C169  H171  S    
C242  C260  A    
C155  C421  S    
C341  H35   S    
C117  C134  A    
C241  H207  S    
C126  H145  S    
C112  O12   A    
C426  H69   S    
N3    N9    A    
C86   F8    S    
C412  C429  A    
O50   Zn21  S    
C389  H17   S    
C421  O56   A    
C331  C376  A    
C260  C307  S    
C240  H206  S    
C44   C213  S    
C439  C457  A    
C357  C419  A    
O61   Zn8   S    
C440  C458  A    
C89   C374  S    
C271  O57   A    
C238  H204  S    
C212  C403  A    
C464  H89   S    
C428  C446  A    
C113  C290  A    
C212  H48   S    
O57   Zn4   S    
C220  C274  A    
C158  C175  A    
C429  C447  A    
C345  C363  A    
C16   C114  A    
C397  C452  A    
C292  F36   S    
C201  H47   S    
C90   C268  A    
C328  H112  S    
C391  C446  A    
C147  H166  S    
C179  C399  A    
C88   C373  S    
C71   C97   A    
C107  C368  S    
O15   Zn4   S    
C382  N3    A    
C343  C361  A    
C65   C83   A    
C316  O86   A    
C201  C402  A    
C134  C152  A    
C365  C388  S    
C45   C214  S    
C438  C456  A    
C366  C387  S    
C128  H147  S    
C6    C103  A    
C188  C206  A    
C135  C395  A    
C385  N8    A    
C264  C303  S    
C444  C461  A    
C53   H125  S    
C330  H159  S    
C130  C148  A    
O46   Zn12  S    
C254  H220  S    
C326  O79   A    
C422  H64   S    
O73   Zn14  S    
O20   Zn20  S    
C33   H122  S    
C398  C453  A    
C252  H218  S    
C384  N14   A    
C13   C161  S    
C269  O59   A    
C233  C251  A    
O41   Zn6   S    
C394  C449  A    
O19   Zn23  S    
C233  C280  A    
C322  O93   A    
C5    C102  A    
C109  C390  S    
C352  H6    S    
C329  C374  A    
C413  H55   S    
C12   C30   A    
C248  H213  S    
O59   Zn6   S    
C76   F46   S    
O28   Zn12  S    
C329  C348  A    
C85   C111  A    
N2    N10   A    
C25   C42   A    
C313  O65   A    
C5    H93   S    
C259  C308  S    
C295  C300  A    
O36   Zn24  S    
C423  C440  A    
C172  C189  A    
C33   C51   A    
C124  H39   S    
C7    H95   S    
C29   H118  S    
C337  C378  A    
C393  H20   S    
C399  H27   S    
C7    C25   A    
N7    N13   A    
C246  H51   S    
C185  C203  A    
O17   Zn2   S    
C441  H84   S    
C221  C240  A    
C272  O51   A    
C388  N5    A    
C296  C308  A    
C355  C371  A    
C138  H157  S    
C98   C464  A    
C226  C243  A    
C93   O32   A    
C362  C364  A    
C229  C282  A    
C189  C207  A    
C230  H196  S    
C150  C167  A    
C322  C446  S    
C315  O68   A    
C383  N2    A    
C327  C372  A    
C32   C50   A    
C20   C38   A    
C127  C144  A    
C249  C264  A    
C35   C163  S    
C192  C209  A    
C294  C302  A    
C164  C182  A    
C116  H90   S    
C354  H8    S    
C200  F25   S    
C440  H83   S    
C408  C426  A    
C426  C444  A    
C239  C256  A    
O18   Zn22  S    
C189  F14   S    
C73   F34   S    
C77   C104  A    
C176  C194  A    
C318  O71   A    
C190  H45   S    
C18   C36   A    
C71   F12   S    
C252  C259  A    
C226  H191  S    
C19   H107  S    
C98   C279  S    
C165  C183  A    
C48   C216  S    
C291  F35   S    
C272  C277  S    
C95   O37   A    
C80   C106  A    
C179  C357  A    
C340  C358  A    
C338  C355  A    
C131  H151  S    
N8    N12   A    
C57   O7    A    
O51   Zn22  S    
C342  C360  A    
C223  O23   A    
C31   C49   A    
C381  N13   A    
O82   Zn10  S    
O65   Zn10  S    
C72   C98   A    
O27   Zn1   S    
O67   Zn22  S    
C383  N15   A    
C54   H126  S    
C230  C281  A    
C309  C459  S    
C356  H10   S    
O32   Zn21  S    
C63   C81   A    
C78   C105  A    
O9    Zn7   S    
C387  N6    A    
C80   F2    S    
C81   F3    S    
C351  C369  A    
C425  C442  A    
C312  C415  A    
C94   O36   A    
C19   C464  A    
C224  C404  A    
C309  O80   A    
C113  C393  A    
C14   H102  S    
C337  C354  A    
C334  O34   A    
C125  H144  S    
C347  H223  S    
C294  F38   S    
C233  H199  S    
C234  C276  A    
C267  O58   A    
C3    H91   S    
C410  O14   A    
C30   C48   A    
C339  H13   S    
C26   H115  S    
C443  O17   A    
C180  C197  A    
C61   H132  S    
C168  C346  A    
C194  C211  A    
C379  C422  A    
C121  C209  A    
C16   H104  S    
C438  H81   S    
C5    C22   A    
C39   C56   A    
O10   Zn8   S    
C419  C437  A    
C22   H110  S    
C39   C207  S    
C310  O63   A    
O69   Zn11  S    
C75   C102  A    
C83   C109  A    
C220  C239  A    
C124  C301  A    
C114  C408  S    
N5    N15   A    
C344  H68   S    
C247  C264  A    
C197  C215  A    
C195  F19   S    
C272  O53   A    
C248  C263  A    
C41   C209  S    
C155  C173  A    
C454  O89   A    
C56   H128  S    
C92   C376  S    
C193  F17   S    
C343  H57   S    
C46   C164  S    
C279  C412  A    
C246  C408  A    
C333  H192  S    
O87   Zn11  S    
C409  C427  A    
C10   C107  A    
C149  H168  S    
C266  O61   A    
C363  C386  S    
C181  C198  A    
C249  H215  S    
C60   H131  S    
C143  H163  S    
C12   C109  A    
C58   C75   A    
C295  C298  A    
C174  H176  S    
C435  C452  A    
C181  H183  S    
C324  O94   A    
C311  C461  S    
C28   C45   A    
C94   O33   A    
C12   H100  S    
C433  C450  A    
C392  C447  A    
C326  O96   A    
C236  C277  A    
C119  C137  A    
C63   H134  S    
C15   C111  A    
C400  H28   S    
C3    C20   A    
C72   F23   S    
C52   C70   A    
C41   C59   A    
C428  H71   S    
C231  H197  S    
C42   C60   A    
C415  H58   S    
O42   Zn7   S    
C244  H210  S    
C228  C245  A    
C75   F45   S    
C340  C377  A    
C66   C84   A    
C45   C63   A    
C89   O40   A    
C84   C110  A    
C356  C367  A    
C123  C211  A    
C55   C73   A    
C339  C376  A    
C173  H175  S    
O33   Zn22  S    
C433  H75   S    
C250  C261  A    
O7    Zn7   S    
C16   C33   A    
C393  C448  A    
C423  H65   S    
C284  C305  A    
C266  O46   A    
C97   C268  S    
C21   C39   A    
C61   C78   A    
C227  C280  A    
C22   C40   A    
C160  C177  A    
C153  C171  A    
C122  C210  A    
C196  C214  A    
C251  H217  S    
C154  C172  A    
O6    Zn6   S    
C101  C279  A    
C322  O75   A    
C198  C216  A    
O5    Zn5   S    
C186  F10   S    
C35   O5    A    
C64   C82   A    
C343  C372  A    
C221  C275  A    
C298  C306  A    
C295  F39   S    
C37   C54   A    
C135  C312  A    
C234  H200  S    
C179  H44   S    
C115  H79   S    
C7    C104  A    
C4    C100  A    
C132  C150  A    
C405  H32   S    
N6    N14   A    
C392  H19   S    
C232  C250  A    
C437  C455  A    
C34   C52   A    
C345  H222  S    
C230  C248  A    
C324  O76   A    
C410  O45   A    
C397  H25   S    
C223  O11   A    
C148  H167  S    
C287  F31   S    
C355  H9    S    
C38   C206  S    
C144  C162  A    
C146  C323  A    
C68   O26   A    
C347  C364  A    
O95   Zn17  S    
C159  C454  S    
C24   C162  S    
C149  C166  A    
C386  N1    A    
C142  C160  A    
C122  C140  A    
C142  H162  S    
C119  C207  A    
C178  H180  S    
C190  C400  A    
O3    Zn3   S    
C224  H49   S    
C327  H1    S    
C381  N4    A    
C413  C430  A    
C333  C352  A    
O84   Zn13  S    
C157  C335  A    
C86   C114  A    
C120  H135  S    
C15   H103  S    
C60   C77   A    
C441  C459  A    
O55   Zn3   S    
C25   H114  S    
C175  H177  S    
C439  H82   S    
C4    C21   A    
C286  F30   S    
C212  C390  A    
C139  C156  A    
C69   H140  S    
C6    C23   A    
C253  H219  S    
C225  H190  S    
C320  O91   A    
C431  C449  A    
C292  C304  A    
C427  H70   S    
C82   F4    S    
C191  C208  A    
C222  C276  A    
O43   Zn8   S    
C396  C451  A    
C95   O35   A    
C131  C149  A    
C251  C262  A    
C409  H52   S    
C399  C455  A    
C290  C413  A    
C414  C431  A    
C54   C72   A    
C11   C29   A    
C243  H209  S    
C385  N9    A    
C316  O69   A    
C246  C406  A    
C36   C204  S    
C321  C451  S    
O85   Zn11  S    
C144  H164  S    
C69   C86   A    
O25   Zn1   S    
C4    H92   S    
C202  C219  A    
C235  C405  A    
