data_mof_unit_68267.cif
_audit_creation_date              2012-12-10T19:47:23-0500
_audit_creation_method            fapswitch 2.2
_symmetry_space_group_name_H-M    P1
_symmetry_Int_Tables_number       1
_space_group_crystal_system       triclinic
_cell_length_a                    11.146514
_cell_length_b                    11.110838
_cell_length_c                    12.982078
_cell_angle_alpha                 92.311671
_cell_angle_beta                  86.241702
_cell_angle_gamma                 91.799843
_cell_volume                      1602.36235723

loop_
_atom_site_label
_atom_site_type_symbol
_atom_type_description
_atom_site_fract_x
_atom_site_fract_y
_atom_site_fract_z
_atom_type_partial_charge
C1    C     C_R   0.261909 0.501222 0.504106 0.903380
C2    C     C_R   0.738068 0.504889 0.495369 0.922380
C3    C     C_R   0.500292 0.871169 0.497021 -0.067276
C4    C     C_R   0.500846 0.127771 0.504143 -0.092689
C5    C     C_R   0.481159 0.934962 0.407784 0.151983
C6    C     C_R   0.520800 0.063426 0.593577 0.107406
C7    C     C_R   0.209842 0.483304 0.824283 -0.294372
C8    C     C_R   0.772799 0.527470 0.178467 -0.264941
C9    C     C_R   0.146181 0.462669 0.737543 0.382807
C10   C     C_R   0.840824 0.555301 0.261289 0.369648
C11   C     C_R   0.097619 0.561271 0.692946 0.042386
C12   C     C_R   0.902351 0.462743 0.302483 0.044801
C13   C     C_R   0.088440 0.672128 0.747920 -0.301125
C14   C     C_R   0.920764 0.353991 0.245604 -0.309468
C15   C     C_R   0.136792 0.688771 0.844211 0.377357
C16   C     C_R   0.865989 0.331072 0.152916 0.346297
C17   C     C_R   0.205979 0.594789 0.877881 0.451699
C18   C     C_R   0.783260 0.416138 0.125047 0.444765
C19   C     C_R   0.928290 0.553178 0.582750 0.524438
C20   C     C_R   0.072267 0.475209 0.411662 0.534892
C21   C     C_R   0.872962 0.515422 0.491542 -0.231825
C22   C     C_R   0.127194 0.505060 0.505008 -0.213306
C23   C     C_R   0.500129 0.262201 0.501494 0.815238
C24   C     C_R   0.500180 0.737427 0.498738 0.821961
C25   C     C_R   0.948400 0.481749 0.404567 -0.119849
C26   C     C_R   0.052360 0.544969 0.590433 -0.106327
C27   C     C_2   0.458643 0.475204 0.036105 0.370429
C28   C     C_2   0.538879 0.527490 0.963699 0.359875
C29   C     C_1   0.522128 0.520299 0.850595 0.132713
C30   C     C_1   0.476248 0.481007 0.149449 0.144468
C31   C     C_R   0.652676 0.250151 0.808772 -0.282118
C32   C     C_R   0.337404 0.758701 0.192875 -0.280298
C33   C     C_R   0.639236 0.193752 0.712706 0.633434
C34   C     C_R   0.353439 0.816039 0.288291 0.610008
C35   C     C_R   0.536029 0.122239 0.695836 -0.172322
C36   C     C_R   0.463652 0.874757 0.306566 -0.152727
C37   C     C_R   0.449666 0.101372 0.778483 0.304227
C38   C     C_R   0.556151 0.879588 0.227118 0.353251
C39   C     C_R   0.466085 0.153509 0.876751 0.465846
C40   C     C_R   0.534930 0.833738 0.127422 0.439128
C41   C     C_R   0.566103 0.231488 0.889435 -0.427606
C42   C     C_R   0.426793 0.768628 0.112963 -0.420702
C43   C     C_R   0.519976 0.937318 0.588547 -0.189436
C44   C     C_R   0.479078 0.061045 0.413305 -0.246091
Cu1   Cu    Cu3+1 0.492140 0.492110 0.395880 1.034954
Cu2   Cu    Cu3+1 0.507860 0.507890 0.604120 1.037522
H1    H     H_    0.577394 0.276828 0.962082 0.237539
H2    H     H_    0.412258 0.725947 0.039454 0.237199
H3    H     H_    0.042117 0.745080 0.716328 0.208148
H4    H     H_    0.975075 0.285368 0.274801 0.213277
H5    H     H_    0.730348 0.308538 0.820731 0.178867
H6    H     H_    0.254596 0.708508 0.180151 0.190752
H7    H     H_    0.534368 0.890386 0.657923 0.176507
H8    H     H_    0.461149 0.108024 0.345191 0.150723
H9    H     H_    0.262593 0.411381 0.848148 0.237865
H10   H     H_    0.709538 0.592784 0.159515 0.247212
N1    N     N_1   0.480320 0.480250 0.239400 -0.177220
N2    N     N_1   0.519680 0.519750 0.760600 -0.173427
O1    O     O_R   0.313000 0.493330 0.412070 -0.507906
O2    O     O_R   0.687000 0.506670 0.587930 -0.505760
O3    O     O_R   0.326280 0.506660 0.587930 -0.581646
O4    O     O_R   0.673720 0.493340 0.412070 -0.583958
O5    O     O_R   0.493370 0.312980 0.412070 -0.599766
O6    O     O_R   0.506630 0.687020 0.587930 -0.595783
O7    O     O_R   0.506650 0.326310 0.587930 -0.569811
O8    O     O_R   0.493350 0.673690 0.412070 -0.564602
O9    O     O_3   0.116174 0.798838 0.897460 -0.585950
C45   C     C_3   0.132313 0.796217 0.004243 0.134998
H11   H     H_    0.229003 0.809333 0.015457 0.214348
H12   H     H_    0.095092 0.711617 0.038844 0.150483
C46   C     C_3   0.069422 0.900003 0.061853 -0.865193
H13   H     H_    0.970913 0.887725 0.058024 0.247290
H14   H     H_    0.090810 0.902130 0.144246 0.212503
H15   H     H_    0.101236 0.986308 0.028444 0.290410
O10   O     O_3   0.890023 0.221361 0.099962 -0.601626
C47   C     C_3   0.862058 0.219322 0.995294 0.109466
H16   H     H_    0.890902 0.304497 0.957058 0.159726
H17   H     H_    0.764613 0.200396 0.991485 0.204572
C48   C     C_3   0.923808 0.116762 0.934840 -0.887981
H18   H     H_    0.896266 0.030634 0.970117 0.276983
H19   H     H_    0.895006 0.112362 0.854505 0.216075
H20   H     H_    0.022724 0.130375 0.932679 0.255731
F1    F     F_    0.861412 0.594223 0.667738 -0.686898
F2    F     F_    0.138484 0.439271 0.324587 -0.685553
O11   O     O_3   0.637574 0.594401 0.998203 -0.600835
C49   C     C_3   0.734756 0.602097 0.921614 0.190839
H21   H     H_    0.710818 0.657033 0.856749 0.162365
H22   H     H_    0.760106 0.511324 0.889655 0.172001
C50   C     C_3   0.844779 0.662301 0.967118 -0.780746
H23   H     H_    0.901464 0.594321 0.999031 0.199984
H24   H     H_    0.898738 0.708827 0.905367 0.243158
H25   H     H_    0.818466 0.730070 0.028737 0.283595
O12   O     O_3   0.361158 0.407017 0.000764 -0.610478
C51   C     C_3   0.265651 0.393736 0.078216 0.173398
H26   H     H_    0.235962 0.482722 0.111343 0.202407
H27   H     H_    0.293214 0.340037 0.142526 0.152106
C52   C     C_3   0.158619 0.327690 0.033222 -0.763281
H28   H     H_    0.188603 0.260597 0.972212 0.272806
H29   H     H_    0.107365 0.279321 0.095375 0.251204
H30   H     H_    0.098573 0.392184 0.000753 0.213244
F3    F     F_    0.724422 0.211905 0.634980 -0.703810
F4    F     F_    0.263624 0.810795 0.363999 -0.690902
O13   O     O_3   0.355894 0.018750 0.766741 -0.561002
C53   C     C_3   0.260372 0.076317 0.724957 0.148560
H31   H     H_    0.289473 0.119894 0.651350 0.149638
H32   H     H_    0.222829 0.145486 0.781373 0.165679
C54   C     C_3   0.162684 0.982302 0.702136 -0.749953
H33   H     H_    0.109555 0.961197 0.774505 0.277606
H34   H     H_    0.100676 0.015944 0.647652 0.194365
H35   H     H_    0.203496 0.899330 0.666599 0.268384
O14   O     O_3   0.670852 0.917715 0.250120 -0.565772
C55   C     C_3   0.691686 0.039031 0.224226 0.111874
H36   H     H_    0.608418 0.089512 0.215061 0.094661
H37   H     H_    0.746379 0.041641 0.149760 0.214003
C56   C     C_3   0.760642 0.103262 0.308921 -0.729363
H38   H     H_    0.858408 0.087830 0.295170 0.234289
H39   H     H_    0.743773 0.201086 0.310738 0.216426
H40   H     H_    0.730493 0.069346 0.385882 0.260856
O15   O     O_3   0.377742 0.131264 0.955025 -0.553625
C57   C     C_3   0.423521 0.130245 0.054088 0.069084
H41   H     H_    0.443499 0.222384 0.084526 0.167147
H42   H     H_    0.507580 0.079390 0.053837 0.124410
C58   C     C_3   0.328945 0.072728 0.127321 -0.812322
H43   H     H_    0.309696 0.979364 0.099878 0.254236
H44   H     H_    0.361267 0.071697 0.205694 0.190450
H45   H     H_    0.244529 0.123089 0.130952 0.260592
O16   O     O_3   0.624889 0.848614 0.049045 -0.570367
C59   C     C_3   0.578608 0.862169 0.951067 0.079156
H46   H     H_    0.495477 0.914899 0.955087 0.169174
H47   H     H_    0.555900 0.773694 0.914406 0.175010
C60   C     C_3   0.673469 0.925064 0.881443 -0.819451
H48   H     H_    0.759379 0.877052 0.878331 0.265516
H49   H     H_    0.643121 0.927814 0.802178 0.209595
H50   H     H_    0.688629 0.018262 0.911777 0.238408
F5    F     F_    0.271486 0.610404 0.960399 -0.751161
F6    F     F_    0.708947 0.390353 0.050193 -0.757387
O17   O     O_3   0.149455 0.350582 0.687273 -0.604820
C61   C     C_3   0.034781 0.292177 0.697392 0.022169
H51   H     H_    0.958673 0.352441 0.721255 0.172834
H52   H     H_    0.037241 0.224549 0.757272 0.151171
C62   C     C_3   0.007842 0.227459 0.595300 -0.716205
H53   H     H_    0.091327 0.191744 0.555575 0.237326
H54   H     H_    0.942537 0.151554 0.609380 0.249258
H55   H     H_    0.968212 0.289983 0.543617 0.237767
O18   O     O_3   0.827642 0.665079 0.314077 -0.560812
C63   C     C_3   0.922793 0.744145 0.281297 0.074454
H56   H     H_    0.896287 0.791520 0.213030 0.179779
H57   H     H_    0.009342 0.698024 0.260928 0.146445
C64   C     C_3   0.945010 0.836696 0.367999 -0.680247
H58   H     H_    0.860413 0.882734 0.392812 0.261271
H59   H     H_    0.977735 0.791346 0.435101 0.246638
H60   H     H_    0.013845 0.904795 0.341076 0.214793

loop_
_geom_bond_atom_site_label_1
_geom_bond_atom_site_label_2
_ccdc_geom_bond_type
C30   N1    T    
O12   C51   S    
C16   O10   S    
O14   C55   S    
C47   C48   S    
C7    H9    S    
C60   H50   S    
C59   H46   S    
C8    H10   S    
C53   H32   S    
C52   H28   S    
C58   H43   S    
C39   C41   A    
Cu1   Cu2   S    
Cu1   N1    S    
C34   F4    S    
C33   F3    S    
C28   C29   S    
C35   C37   A    
C47   H17   S    
C64   H59   S    
C49   H22   S    
C23   O5    A    
C58   H44   S    
C20   C25   A    
C1    O3    A    
C56   H38   S    
C5    C36   S    
Cu1   O4    S    
C6    C35   S    
C15   C17   A    
C19   C26   A    
C55   H36   S    
O13   C53   S    
C9    O17   S    
C43   H7    S    
C32   H6    S    
C45   H11   S    
C56   H39   S    
C17   F5    S    
C54   H33   S    
C31   C33   A    
C18   F6    S    
C50   H24   S    
C57   C58   S    
C24   O8    A    
C40   C42   A    
C15   O9    S    
C1    C22   S    
C24   O6    A    
Cu2   N2    S    
C27   C30   S    
C54   H34   S    
C3    C24   S    
C2    O2    A    
C19   F1    S    
C55   H37   S    
C53   H31   S    
C52   H29   S    
C57   H42   S    
O18   C63   S    
C63   H57   S    
Cu2   O3    S    
O9    C45   S    
C47   H16   S    
Cu2   O7    S    
C4    C6    A    
C64   H60   S    
C31   H5    S    
C46   H14   S    
C4    C23   S    
C49   H21   S    
C58   H45   S    
C4    C44   A    
C11   C26   S    
C7    C17   A    
O11   C49   S    
C40   O16   S    
C49   C50   S    
C62   H55   S    
C8    C18   A    
Cu2   O6    S    
C32   C34   A    
O10   C47   S    
C48   H20   S    
C63   C64   S    
C13   C15   A    
C56   H40   S    
C3    C43   A    
C2    C21   S    
C41   H1    S    
C42   H2    S    
C50   H25   S    
C51   H27   S    
C9    C11   A    
C10   C12   A    
C13   H3    S    
C16   C18   A    
C1    O1    A    
C12   C14   A    
C6    C43   A    
C20   F2    S    
C54   H35   S    
C14   C16   A    
C27   O12   S    
C60   H48   S    
C59   C60   S    
C3    C5    A    
Cu1   O8    S    
C52   H30   S    
C57   H41   S    
C48   H19   S    
C63   H56   S    
C7    C9    A    
C21   C25   A    
Cu1   O1    S    
C31   C41   A    
Cu2   O2    S    
C5    C44   A    
C20   C22   A    
C60   H49   S    
C61   C62   S    
C59   H47   S    
C46   H15   S    
C37   O13   S    
O15   C57   S    
C61   H52   S    
O17   C61   S    
C51   C52   S    
C12   C25   S    
C23   O7    A    
C62   H54   S    
C50   H23   S    
C46   H13   S    
C37   C39   A    
C64   H58   S    
C38   C40   A    
C11   C13   A    
C14   H4    S    
C45   C46   S    
C39   O15   S    
C36   C38   A    
C33   C35   A    
Cu1   O5    S    
C34   C36   A    
C53   C54   S    
C51   H26   S    
C28   O11   S    
C61   H51   S    
C10   O18   S    
C48   H18   S    
C44   H8    S    
C29   N2    T    
C8    C10   A    
C22   C26   A    
C27   C28   D    
C45   H12   S    
C32   C42   A    
C38   O14   S    
C62   H53   S    
C2    O4    A    
C55   C56   S    
O16   C59   S    
C19   C21   A    
