data_mof_unit_9080.cif
_audit_creation_date              2013-03-05T15:51:27-0500
_audit_creation_method            fapswitch 2.2
_symmetry_space_group_name_H-M    P1
_symmetry_Int_Tables_number       1
_space_group_crystal_system       triclinic
_cell_length_a                    19.443277
_cell_length_b                    11.041312
_cell_length_c                    18.711525
_cell_angle_alpha                 90.487071
_cell_angle_beta                  91.205558
_cell_angle_gamma                 89.887189
_cell_volume                      4015.93613739

loop_
_atom_site_label
_atom_site_type_symbol
_atom_site_description
_atom_site_fract_x
_atom_site_fract_y
_atom_site_fract_z
_atom_type_partial_charge
O1    O     O_R   0.957020 0.451640 0.669920 -0.518756
O2    O     O_R   0.042980 0.451640 0.330080 -0.519808
O3    O     O_R   0.457020 0.951640 0.669920 -0.510430
O4    O     O_R   0.542980 0.951640 0.330080 -0.513759
O5    O     O_R   0.821450 0.543440 0.674610 -0.502732
O6    O     O_R   0.178550 0.543440 0.325390 -0.501778
O7    O     O_R   0.321450 0.043440 0.674610 -0.498947
O8    O     O_R   0.678550 0.043440 0.325390 -0.496856
C1    C     C_R   0.759733 0.534986 0.647126 0.540708
C2    C     C_R   0.240757 0.535993 0.353029 0.533204
C3    C     C_R   0.260655 0.034390 0.647292 0.552858
C4    C     C_R   0.738551 0.029484 0.354969 0.535953
O9    O     O_R   0.715320 0.458650 0.668100 -0.518784
O10   O     O_R   0.284680 0.458650 0.331900 -0.526683
O11   O     O_R   0.215320 0.958650 0.668100 -0.518978
O12   O     O_R   0.784680 0.958650 0.331900 -0.527861
O13   O     O_R   0.737170 0.209590 0.674530 -0.502266
O14   O     O_R   0.262830 0.209590 0.325470 -0.494690
O15   O     O_R   0.237170 0.709590 0.674530 -0.498727
O16   O     O_R   0.762830 0.709590 0.325470 -0.491558
C5    C     C_R   0.773148 0.125919 0.646535 0.543187
C6    C     C_R   0.224569 0.130342 0.355805 0.551012
C7    C     C_R   0.292673 0.674827 0.639915 0.557439
C8    C     C_R   0.708747 0.672072 0.360711 0.549794
O17   O     O_R   0.832710 0.092740 0.669580 -0.522475
O18   O     O_R   0.167290 0.092740 0.330420 -0.525747
O19   O     O_R   0.332710 0.592740 0.669580 -0.524897
O20   O     O_R   0.667290 0.592740 0.330420 -0.517618
O21   O     O_R   0.946290 0.250060 0.676040 -0.493021
O22   O     O_R   0.053710 0.250060 0.323960 -0.502256
O23   O     O_R   0.446290 0.750060 0.676040 -0.511818
O24   O     O_R   0.553710 0.750060 0.323960 -0.519415
C9    C     C_R   0.972320 0.344501 0.647725 0.551943
C10   C     C_R   0.028276 0.347136 0.352678 0.539338
C11   C     C_R   0.473075 0.844387 0.648545 0.550308
C12   C     C_R   0.529350 0.847177 0.353778 0.534402
O25   O     O_R   0.956270 0.452200 0.830470 -0.514413
O26   O     O_R   0.043730 0.452200 0.169530 -0.490262
O27   O     O_R   0.456270 0.952200 0.830470 -0.515039
O28   O     O_R   0.543730 0.952200 0.169530 -0.488664
O29   O     O_R   0.820760 0.543950 0.823440 -0.535466
O30   O     O_R   0.179240 0.543950 0.176560 -0.524942
O31   O     O_R   0.320760 0.043950 0.823440 -0.535035
O32   O     O_R   0.679240 0.043950 0.176560 -0.523755
C13   C     C_R   0.761969 0.532291 0.852031 0.557695
C14   C     C_R   0.239123 0.532303 0.148485 0.541484
C15   C     C_R   0.261971 0.032282 0.852036 0.557689
C16   C     C_R   0.739121 0.032297 0.148482 0.542502
O33   O     O_R   0.714570 0.459210 0.828640 -0.474435
O34   O     O_R   0.285430 0.459210 0.171360 -0.447061
O35   O     O_R   0.214570 0.959210 0.828640 -0.475435
O36   O     O_R   0.785430 0.959210 0.171360 -0.446787
O37   O     O_R   0.736470 0.210100 0.823360 -0.445242
O38   O     O_R   0.263530 0.210100 0.176640 -0.448520
O39   O     O_R   0.236470 0.710100 0.823360 -0.440782
O40   O     O_R   0.763530 0.710100 0.176640 -0.445650
C17   C     C_R   0.773318 0.127704 0.853674 0.556744
C18   C     C_R   0.225515 0.129036 0.145807 0.584068
C19   C     C_R   0.273323 0.627717 0.853679 0.566372
C20   C     C_R   0.725509 0.629050 0.145802 0.589932
O41   O     O_R   0.831960 0.093290 0.830130 -0.521939
O42   O     O_R   0.168040 0.093290 0.169870 -0.519883
O43   O     O_R   0.331960 0.593290 0.830130 -0.516729
O44   O     O_R   0.668040 0.593290 0.169870 -0.516522
O45   O     O_R   0.945600 0.250580 0.824860 -0.388377
O46   O     O_R   0.054400 0.250580 0.175140 -0.495440
O47   O     O_R   0.445600 0.750580 0.824860 -0.388848
O48   O     O_R   0.554400 0.750580 0.175140 -0.493935
C21   C     C_R   0.934569 0.352462 0.859348 0.578928
C22   C     C_R   0.029437 0.346690 0.146637 0.560571
C23   C     C_R   0.434570 0.852461 0.859347 0.579913
C24   C     C_R   0.529436 0.846691 0.146639 0.563363
Cr1   Cr    Cr6+3 0.885860 0.491680 0.749630 1.021499
Cr2   Cr    Cr6+3 0.114140 0.491680 0.250370 1.041710
Cr3   Cr    Cr6+3 0.385860 0.991680 0.749630 1.022913
Cr4   Cr    Cr6+3 0.614140 0.991680 0.250370 1.043448
Cr5   Cr    Cr6+3 0.730490 0.332970 0.748720 1.077980
Cr6   Cr    Cr6+3 0.269510 0.332970 0.251280 1.117242
Cr7   Cr    Cr6+3 0.230490 0.832970 0.748720 1.078976
Cr8   Cr    Cr6+3 0.769510 0.832970 0.251280 1.113736
Cr9   Cr    Cr6+3 0.887570 0.179310 0.750150 1.077070
Cr10  Cr    Cr6+3 0.112430 0.179310 0.249850 1.054808
Cr11  Cr    Cr6+3 0.387570 0.679310 0.750150 1.070065
Cr12  Cr    Cr6+3 0.612430 0.679310 0.249850 1.048248
O49   O     O_3   0.834640 0.334650 0.749500 -0.316702
O50   O     O_3   0.165360 0.334650 0.250500 -0.288701
O51   O     O_3   0.334640 0.834650 0.749500 -0.338964
O52   O     O_3   0.665360 0.834650 0.250500 -0.309750
C25   C     C_R   0.747224 0.060952 0.429052 0.020892
C26   C     C_R   0.248964 0.091207 0.579101 0.020533
C27   C     C_R   0.264848 0.607043 0.416154 0.013776
C28   C     C_R   0.739798 0.606077 0.584047 0.017016
C29   C     C_R   0.703731 0.143596 0.461233 0.030488
C30   C     C_R   0.306406 0.118057 0.538292 0.040388
C31   C     C_R   0.229892 0.703926 0.447184 0.015245
C32   C     C_R   0.787794 0.671001 0.546112 -0.003161
C33   C     C_R   0.708075 0.159008 0.534556 0.020545
C34   C     C_R   0.300002 0.125966 0.464378 0.013116
C35   C     C_R   0.242707 0.735919 0.518945 0.015586
C36   C     C_R   0.776556 0.696371 0.474306 0.005721
C37   C     C_R   0.787465 0.991529 0.545127 -0.144787
C38   C     C_R   0.179245 0.077026 0.471981 -0.156666
C39   C     C_R   0.334116 0.591779 0.525319 -0.144899
C40   C     C_R   0.663225 0.615840 0.479490 -0.154497
C41   C     C_R   0.788017 0.983642 0.471811 -0.142433
C42   C     C_R   0.184734 0.076773 0.545605 -0.165830
C43   C     C_R   0.323451 0.564541 0.453463 -0.151703
C44   C     C_R   0.674348 0.589892 0.551959 -0.147634
C45   C     C_3   0.701231 0.276693 0.448191 -0.275394
C46   C     C_3   0.347072 0.232699 0.542911 -0.277736
C47   C     C_3   0.155170 0.720484 0.453445 -0.268895
C48   C     C_3   0.861062 0.642489 0.535101 -0.249615
C49   C     C_3   0.707549 0.293945 0.528150 -0.242824
C50   C     C_3   0.339142 0.241586 0.462857 -0.267875
C51   C     C_3   0.168725 0.753495 0.531330 -0.261571
C52   C     C_3   0.848085 0.665429 0.456192 -0.261815
C53   C     C_R   0.751080 0.085212 0.577008 0.018320
C54   C     C_R   0.237015 0.101896 0.430212 0.019973
C55   C     C_R   0.289370 0.669309 0.561089 0.001263
C56   C     C_R   0.716572 0.661387 0.438476 0.007658
H1    H     H_    0.821498 0.933166 0.575977 0.141384
H2    H     H_    0.128518 0.063114 0.448316 0.159288
H3    H     H_    0.372347 0.540444 0.554380 0.163436
H4    H     H_    0.615553 0.589704 0.453941 0.164220
H5    H     H_    0.821478 0.917391 0.448564 0.143864
H6    H     H_    0.139586 0.056060 0.576120 0.139260
H7    H     H_    0.356066 0.496387 0.430521 0.145526
H8    H     H_    0.634850 0.542713 0.580073 0.144792
H9    H     H_    0.128753 0.632552 0.445243 0.181022
H10   H     H_    0.874597 0.546688 0.546777 0.169139
H11   H     H_    0.650613 0.306119 0.425647 0.151355
H12   H     H_    0.400872 0.216362 0.561445 0.158188
H13   H     H_    0.746610 0.310432 0.419126 0.143284
H14   H     H_    0.320163 0.306449 0.572110 0.145844
H15   H     H_    0.135445 0.797171 0.420756 0.146505
H16   H     H_    0.893478 0.712185 0.562337 0.146016
H17   H     H_    0.757307 0.335687 0.545216 0.145310
H18   H     H_    0.305383 0.317478 0.446087 0.162263
H19   H     H_    0.154843 0.847650 0.544844 0.151982
H20   H     H_    0.876496 0.743692 0.435078 0.127089
H21   H     H_    0.661204 0.335503 0.551534 0.144737
H22   H     H_    0.388073 0.233327 0.433862 0.134432
H23   H     H_    0.151900 0.685117 0.569984 0.161954
H24   H     H_    0.850550 0.581713 0.422817 0.151869
C57   C     C_R   0.998526 0.344126 0.425269 -0.035969
C58   C     C_R   0.005041 0.333051 0.576517 -0.035628
C59   C     C_R   0.502623 0.843530 0.428154 -0.031306
C60   C     C_R   0.509160 0.831945 0.579481 -0.030280
C61   C     C_R   0.969662 0.128009 0.420001 -0.080939
C62   C     C_R   0.994146 0.109148 0.566700 -0.082780
C63   C     C_R   0.482402 0.622979 0.423729 -0.088330
C64   C     C_R   0.506123 0.608962 0.570750 -0.103432
C65   C     C_R   0.962882 0.016864 0.453339 -0.128616
C66   C     C_R   0.976527 0.006851 0.526254 -0.140242
C67   C     C_R   0.486362 0.510690 0.456629 -0.153534
C68   C     C_R   0.499702 0.503363 0.529754 -0.170689
C69   C     C_R   0.996312 0.224974 0.535094 0.005502
C70   C     C_R   0.989048 0.232291 0.459549 -0.001584
C71   C     C_R   0.502857 0.724017 0.538423 0.010983
C72   C     C_R   0.495807 0.730572 0.462801 0.001816
H25   H     H_    0.947044 0.938631 0.422110 0.107478
H26   H     H_    0.972477 0.919967 0.551899 0.100157
H27   H     H_    0.476811 0.430122 0.424959 0.109450
H28   H     H_    0.502433 0.416180 0.555398 0.109327
H29   H     H_    0.957117 0.132521 0.363465 0.150255
H30   H     H_    0.007626 0.095580 0.622372 0.153919
H31   H     H_    0.467746 0.624323 0.367685 0.156069
H32   H     H_    0.517614 0.599105 0.627196 0.159233
C73   C     C_R   0.018009 0.442760 0.541046 0.006342
C74   C     C_R   0.002807 0.451489 0.467563 0.008838
C75   C     C_R   0.524784 0.940004 0.544614 0.012326
C76   C     C_R   0.509049 0.950607 0.471246 0.020234
C77   C     C_R   0.037975 0.548468 0.579149 -0.078913
C78   C     C_R   0.992751 0.568615 0.438669 -0.090453
C79   C     C_R   0.550071 0.041505 0.583250 -0.064480
C80   C     C_R   0.502017 0.069201 0.443730 -0.068687
C81   C     C_R   0.025834 0.662076 0.550507 -0.144023
C82   C     C_R   0.004411 0.672248 0.479839 -0.154143
C83   C     C_R   0.548276 0.155718 0.553152 -0.120059
C84   C     C_R   0.523406 0.169647 0.483718 -0.141413
H33   H     H_    0.971631 0.582206 0.385436 0.156308
H34   H     H_    0.058932 0.543793 0.633167 0.153206
H35   H     H_    0.478620 0.086302 0.391883 0.151135
H36   H     H_    0.568972 0.032988 0.637876 0.145872
H37   H     H_    0.035102 0.742411 0.582750 0.109459
H38   H     H_    0.997309 0.760436 0.456596 0.108165
H39   H     H_    0.564530 0.233418 0.584587 0.106932
H40   H     H_    0.521132 0.258135 0.460446 0.098309
C85   C     C_R   0.751592 0.082628 0.078544 -0.033245
C86   C     C_R   0.254827 0.088964 0.921713 -0.041134
C87   C     C_R   0.251601 0.582648 0.078554 -0.032842
C88   C     C_R   0.754826 0.588980 0.921705 -0.041661
C89   C     C_R   0.807065 0.038155 0.041264 0.031888
C90   C     C_R   0.191112 0.103663 0.950705 0.038747
C91   C     C_R   0.307078 0.538189 0.041275 0.032172
C92   C     C_R   0.691111 0.603700 0.950688 0.038567
C93   C     C_R   0.811592 0.047937 0.968990 -0.096489
C94   C     C_R   0.182388 0.116245 0.023089 -0.090622
C95   C     C_R   0.311608 0.547980 0.969002 -0.097665
C96   C     C_R   0.682381 0.616295 0.023072 -0.091510
C97   C     C_R   0.701260 0.151193 0.965123 0.176679
C98   C     C_R   0.304828 0.104355 0.042049 0.161431
C99   C     C_R   0.201268 0.651217 0.965136 0.175908
C100  C     C_R   0.804819 0.604349 0.042044 0.161407
C101  C     C_R   0.701664 0.148671 0.040855 -0.163604
C102  C     C_R   0.312413 0.102484 0.967329 -0.175175
C103  C     C_R   0.201672 0.648690 0.040867 -0.163412
C104  C     C_R   0.812410 0.602479 0.967325 -0.175037
C105  C     C_3   0.842003 0.918246 0.044804 0.184637
C106  C     C_3   0.128698 0.031505 0.938788 0.145923
C107  C     C_3   0.342024 0.418286 0.044811 0.184410
C108  C     C_3   0.628691 0.531567 0.938755 0.146846
C109  C     C_3   0.851403 0.930875 0.964562 -0.237357
C110  C     C_3   0.116304 0.047663 0.018078 -0.185496
C111  C     C_3   0.351433 0.430932 0.964571 -0.237049
C112  C     C_3   0.616286 0.547742 0.018043 -0.185412
C113  C     C_R   0.757378 0.096645 0.927689 0.003047
C114  C     C_R   0.238206 0.103506 0.070757 -0.013852
C115  C     C_R   0.257390 0.596679 0.927700 0.001358
C116  C     C_R   0.738195 0.603528 0.070747 -0.015184
H41   H     H_    0.659123 0.186608 0.069923 0.160162
H42   H     H_    0.363254 0.099323 0.945427 0.163091
H43   H     H_    0.159128 0.686615 0.069935 0.160053
H44   H     H_    0.863251 0.599304 0.945427 0.163001
H45   H     H_    0.805464 0.844906 0.057384 0.122254
H46   H     H_    0.140191 0.938313 0.922846 0.198123
H47   H     H_    0.305488 0.344933 0.057379 0.122479
H48   H     H_    0.640170 0.438362 0.922827 0.198278
H49   H     H_    0.905568 0.944156 0.949666 0.220144
H50   H     H_    0.072342 0.106414 0.030328 0.189142
H51   H     H_    0.405600 0.444233 0.949680 0.220371
H52   H     H_    0.572332 0.606516 0.030280 0.189085
H53   H     H_    0.823553 0.860672 0.932430 0.120497
H54   H     H_    0.119342 0.961733 0.048424 0.165901
H55   H     H_    0.323594 0.360723 0.932433 0.121526
H56   H     H_    0.619305 0.461816 0.048393 0.166098
C117  C     C_R   0.990860 0.343152 0.079366 0.027111
C118  C     C_R   0.942679 0.349768 0.936791 0.011362
C119  C     C_R   0.490858 0.843156 0.079368 0.026689
C120  C     C_R   0.442687 0.849766 0.936789 0.011408
C121  C     C_R   0.989441 0.449071 0.040888 0.116066
C122  C     C_R   0.965086 0.453371 0.972004 -0.013241
C123  C     C_R   0.489440 0.949076 0.040888 0.115840
C124  C     C_R   0.465088 0.953373 0.972002 -0.013138
C125  C     C_R   0.937365 0.243125 0.976391 -0.100144
C126  C     C_R   0.963066 0.239390 0.046976 -0.135540
C127  C     C_R   0.437378 0.743123 0.976388 -0.100338
C128  C     C_R   0.463066 0.739394 0.046978 -0.135448
C129  C     C_3   0.048183 0.530465 0.026687 -0.197301
C130  C     C_3   0.020852 0.536589 0.951090 -0.165568
C131  C     C_3   0.548185 0.030465 0.026686 -0.197469
C132  C     C_3   0.520857 0.036586 0.951088 -0.165661
H57   H     H_    0.921963 0.160688 0.950261 0.200381
H58   H     H_    0.969606 0.154279 0.071846 0.219404
H59   H     H_    0.421986 0.660683 0.950256 0.200210
H60   H     H_    0.469603 0.654285 0.071850 0.219470
H61   H     H_    0.098344 0.482287 0.031362 0.119705
H62   H     H_    0.999415 0.626198 0.935625 0.219260
H63   H     H_    0.598344 0.982282 0.031363 0.119435
H64   H     H_    0.499422 0.126196 0.935621 0.219460
H65   H     H_    0.044949 0.617185 0.056759 0.213723
H66   H     H_    0.056281 0.493100 0.912700 0.225389
H67   H     H_    0.544952 0.117188 0.056755 0.213740
H68   H     H_    0.556286 0.993094 0.912700 0.224815
N1    N     N_R   0.641471 0.201118 0.928916 0.049687
O53   O     O_R   0.621865 0.161169 0.866119 -0.348996
O54   O     O_R   0.597258 0.263335 0.965449 -0.442999
N2    N     N_R   0.365022 0.104960 0.086928 0.097094
O55   O     O_R   0.367867 0.043030 0.145794 -0.319308
O56   O     O_R   0.419944 0.157900 0.064653 -0.346901
N3    N     N_R   0.141473 0.701125 0.928932 0.049062
O57   O     O_R   0.121869 0.661176 0.866135 -0.346177
O58   O     O_R   0.097253 0.763318 0.965469 -0.443476
N4    N     N_R   0.865011 0.604931 0.086926 0.097008
O59   O     O_R   0.867850 0.542985 0.145787 -0.318493
O60   O     O_R   0.919937 0.657867 0.064659 -0.347048
S1    S     S_3+6 0.916158 0.923350 0.105136 0.034216
O61   O     O_2   0.916082 0.037684 0.149196 -0.299820
O62   O     O_2   0.912048 0.821981 0.157908 -0.206529
O63   O     O_3   0.989170 0.911397 0.059247 -0.545474
H69   H     H_    0.017431 0.850649 0.085212 0.375787
S2    S     S_3+6 0.073327 0.107089 0.877569 0.024754
O64   O     O_2   0.068334 0.237271 0.900345 -0.289116
O65   O     O_2   0.101808 0.101948 0.803578 -0.258256
O66   O     O_3   0.996469 0.038511 0.876320 -0.527092
H70   H     H_    0.006010 0.953960 0.861360 0.348780
S3    S     S_3+6 0.416171 0.423387 0.105153 0.034359
O67   O     O_2   0.416086 0.537712 0.149222 -0.299101
O68   O     O_2   0.412058 0.322005 0.157915 -0.206655
O69   O     O_3   0.489188 0.411450 0.059273 -0.545335
H71   H     H_    0.517434 0.350653 0.085215 0.375924
S4    S     S_3+6 0.573346 0.607156 0.877511 0.023931
O70   O     O_2   0.568354 0.737347 0.900273 -0.289751
O71   O     O_2   0.601841 0.602001 0.803523 -0.260417
O72   O     O_3   0.496485 0.538586 0.876261 -0.526575
H72   H     H_    0.505939 0.454303 0.860686 0.349094

loop_
_geom_bond_atom_site_label_1
_geom_bond_atom_site_label_2
_geom_bond_distance
_ccdc_geom_bond_type
O4    C12   1.269662 A    
C69   C70   1.420615 A    
O25   C21   1.305479 A    
C39   H3    1.075216 S    
Cr7   O51   2.024885 S    
C58   C69   1.425861 A    
S2    O64   1.499308 D    
O39   C19   1.285214 A    
C31   C35   1.402880 A    
C34   C50   1.488291 S    
N3    O57   1.301365 A    
O21   C9    1.283336 A    
C120  C124  1.381863 A    
N4    O59   1.301537 A    
C1    O9    1.277831 A    
O44   Cr12  2.085828 S    
C5    C53   1.430363 S    
C3    O11   1.284831 A    
C86   C102  1.400974 A    
C64   C68   1.394564 A    
S3    O68   1.502195 D    
C22   C117  1.451928 S    
C63   C67   1.390191 A    
C108  S4    1.768788 S    
O2    C10   1.267519 A    
C125  C126  1.403173 A    
O17   Cr9   2.058171 S    
C94   C114  1.397841 A    
C97   N1    1.443933 S    
C109  H53   1.111553 S    
O9    Cr5   2.074495 S    
O31   Cr3   1.974787 S    
C8    C56   1.465593 S    
C26   C30   1.399781 A    
O16   Cr8   1.959651 S    
C45   H13   1.112638 S    
C27   C43   1.405660 A    
C121  C129  1.484456 S    
C125  H57   1.069853 S    
O13   C5    1.273524 A    
O28   Cr4   2.063073 S    
C65   H25   1.080428 S    
C119  C128  1.395970 A    
O12   Cr8   2.058051 S    
O41   Cr9   2.099310 S    
O22   Cr10  1.970125 S    
O15   C7    1.324761 A    
O46   Cr10  1.948166 S    
O14   Cr6   1.959651 S    
C61   H29   1.082165 S    
C16   C85   1.451354 S    
N2    O56   1.296554 A    
C77   H34   1.083422 S    
C96   C116  1.397898 A    
C49   H17   1.112043 S    
C94   C110  1.493561 S    
C109  H49   1.105426 S    
C132  H64   1.111100 S    
C74   C78   1.417543 A    
C6    C54   1.445181 S    
C111  H55   1.111553 S    
C57   C74   1.421306 A    
Cr12  O52   2.001773 S    
C79   C83   1.385547 A    
C17   O41   1.286500 A    
C19   O43   1.286493 A    
C41   H5    1.073395 S    
C20   O44   1.277962 A    
C23   C120  1.454870 S    
S4    O71   1.502539 D    
C37   C53   1.389492 A    
Cr8   O52   2.024814 S    
O46   C22   1.281723 A    
C99   C103  1.417413 A    
C63   H31   1.081123 S    
C118  C125  1.401680 A    
C33   C53   1.405136 A    
C35   C55   1.401082 A    
C92   C108  1.465091 S    
C16   O36   1.277496 A    
C67   C68   1.390292 A    
O27   C23   1.305471 A    
C39   C43   1.386672 A    
C98   N2    1.426043 S    
O32   C16   1.293105 A    
C131  H67   1.108821 S    
C103  H43   1.081268 S    
C62   C69   1.414614 A    
C14   C87   1.451324 S    
C40   C56   1.399939 A    
C129  C130  1.502575 S    
C95   C111  1.507854 S    
O24   C12   1.297844 A    
C7    C55   1.475758 S    
C105  S1    1.813063 S    
C62   H30   1.080426 S    
O8    Cr4   1.944392 S    
C121  C122  1.364949 A    
O32   Cr4   1.983088 S    
C130  H66   1.111187 S    
C61   C65   1.389097 A    
C52   H24   1.112639 S    
C28   C44   1.406694 A    
O11   Cr7   2.074495 S    
C120  C127  1.401665 A    
O27   Cr3   2.067362 S    
O3    Cr3   2.099409 S    
C61   C70   1.410992 A    
C46   C50   1.506631 S    
C64   C71   1.412399 A    
Cr5   O49   2.024885 S    
S1    O61   1.501903 D    
C106  H46   1.092871 S    
C48   H16   1.109448 S    
C59   C72   1.418231 A    
C1    C28   1.467922 S    
C34   C54   1.394507 A    
C91   C95   1.362272 A    
C123  C131  1.484462 S    
O22   C10   1.296708 A    
C4    O12   1.268955 A    
C95   C115  1.402927 A    
O63   H69   0.990323 S    
C2    O10   1.272986 A    
C108  C112  1.517077 S    
C67   H27   1.078912 S    
C82   H38   1.077253 S    
O5    C1    1.298766 A    
C90   C106  1.465105 S    
O3    C11   1.286673 A    
O8    C4    1.290210 A    
C24   C119  1.451932 S    
C87   C103  1.395906 A    
C44   H8    1.077543 S    
N1    O54   1.300993 A    
Cr1   O49   2.001134 S    
C99   N3    1.443931 S    
Cr3   O51   2.001134 S    
C46   H14   1.112709 S    
C29   C33   1.381908 A    
C48   C52   1.516009 S    
C59   C76   1.429563 A    
O26   Cr2   2.063073 S    
C5    O17   1.281129 A    
O29   C13   1.279424 A    
O28   C24   1.267131 A    
O14   C6    1.292289 A    
C66   H26   1.080025 S    
C8    O20   1.308952 A    
C119  C123  1.378500 A    
C40   H4    1.072858 S    
C104  H44   1.078418 S    
S2    O65   1.502494 D    
O40   Cr8   1.940657 S    
C117  C121  1.378483 A    
C98   C114  1.412793 A    
C15   C86   1.450581 S    
C38   H2    1.083300 S    
C18   C114  1.456017 S    
C90   C94   1.374377 A    
O31   C15   1.279444 A    
C102  H42   1.078422 S    
C32   C36   1.387557 A    
C96   C112  1.493589 S    
O33   Cr5   2.063316 S    
N4    O60   1.296552 A    
C11   C60   1.488598 S    
C50   H18   1.106851 S    
C25   C29   1.385417 A    
C87   C91   1.383756 A    
C9    C58   1.492827 S    
C132  H68   1.111191 S    
O29   Cr1   1.974787 S    
C85   C89   1.383750 A    
C80   C84   1.391911 A    
S2    O66   1.676221 S    
S1    O63   1.678852 S    
C25   C41   1.407170 A    
C97   C101  1.417428 A    
C48   H10   1.111890 S    
Cr9   O49   1.998476 S    
C76   C80   1.416403 A    
C29   C45   1.492268 S    
C18   O42   1.277982 A    
Cr11  O51   1.998476 S    
O26   C22   1.267144 A    
O20   Cr12  2.068100 S    
C36   C52   1.477094 S    
C131  C132  1.502571 S    
O47   Cr11  1.940344 S    
C100  C116  1.412793 A    
C88   C92   1.371578 A    
C20   C116  1.456062 S    
C35   C51   1.474003 S    
C83   H39   1.080057 S    
C30   C34   1.389495 A    
C123  C124  1.364959 A    
C60   C75   1.401589 A    
C81   H37   1.081758 S    
O69   H71   0.990324 S    
O30   C14   1.293113 A    
C84   H40   1.073507 S    
C131  H63   1.112202 S    
C47   H9    1.107291 S    
C85   C101  1.395928 A    
C45   H11   1.111609 S    
C46   H12   1.109985 S    
C21   C118  1.454883 S    
C78   C82   1.390266 A    
O42   Cr10  2.085828 S    
O18   Cr10  2.068100 S    
C110  H54   1.110679 S    
C105  H45   1.108337 S    
C93   C113  1.402913 A    
O34   Cr6   2.081237 S    
C64   H32   1.081304 S    
O6    Cr2   1.944392 S    
O24   Cr12  1.970125 S    
O30   Cr2   1.983088 S    
O48   Cr12  1.948166 S    
C26   C42   1.394252 A    
O72   H72   0.990795 S    
O37   C17   1.285221 A    
C15   O35   1.293035 A    
C126  H58   1.058441 S    
Cr10  O50   2.001773 S    
C30   C46   1.494692 S    
C37   H1    1.083922 S    
O40   C20   1.286929 A    
O43   Cr11  2.099310 S    
C60   C71   1.416463 A    
C122  C130  1.483560 S    
O37   Cr5   1.956869 S    
O21   Cr9   1.981224 S    
O66   H70   0.990631 S    
O39   Cr7   1.956869 S    
C12   C59   1.496650 S    
O45   Cr9   1.940344 S    
C71   C72   1.421202 A    
C13   O33   1.293040 A    
O13   Cr5   1.942816 S    
S3    O69   1.678847 S    
O15   Cr7   1.942816 S    
C112  H56   1.110674 S    
O23   C11   1.281841 A    
C110  H50   1.098855 S    
C40   C44   1.400584 A    
C93   C109  1.507836 S    
C118  C122  1.381866 A    
C129  H61   1.112203 S    
O6    C2    1.308117 A    
C42   H6    1.083052 S    
O1    Cr1   2.099409 S    
O19   Cr11  2.058171 S    
C57   C70   1.410493 A    
C47   H15   1.111668 S    
C17   C113  1.469094 S    
O45   C21   1.311636 A    
C117  C126  1.395981 A    
O47   C23   1.311625 A    
C105  C109  1.523945 S    
C83   C84   1.386400 A    
C108  H48   1.092880 S    
N2    O55   1.301535 A    
C81   C82   1.383394 A    
C6    O18   1.270635 A    
C19   C115  1.469125 S    
O36   Cr8   2.081237 S    
C79   H36   1.083682 S    
O38   Cr6   1.940657 S    
C127  H59   1.069842 S    
C80   H35   1.080727 S    
C107  C111  1.523950 S    
C75   C76   1.406007 A    
C73   C74   1.404362 A    
C28   C32   1.388418 A    
C92   C96   1.374396 A    
O1    C9    1.286788 A    
O7    C3    1.281675 A    
C32   C48   1.476625 S    
C111  H51   1.105468 S    
C50   H22   1.108302 S    
S4    O70   1.499310 D    
C10   C57   1.488147 S    
O23   Cr11  1.981224 S    
C13   C88   1.450547 S    
S3    O67   1.501909 D    
C49   H21   1.107032 S    
C36   C56   1.386843 A    
C7    O19   1.312680 A    
N1    O53   1.301375 A    
Cr4   O52   1.997768 S    
C38   C54   1.410557 A    
O48   C24   1.281727 A    
Cr6   O50   2.024814 S    
C107  H47   1.108346 S    
O5    Cr1   1.949950 S    
C88   C104  1.400967 A    
C78   H33   1.080921 S    
O35   Cr7   2.063316 S    
C37   C41   1.374154 A    
C51   H23   1.104699 S    
C106  S2    1.768757 S    
O16   C8    1.322008 A    
C4    C25   1.432800 S    
C107  S3    1.813053 S    
O7    Cr3   1.949950 S    
C106  C110  1.517054 S    
C75   C79   1.412014 A    
C91   C107  1.488211 S    
C89   C105  1.488202 S    
C77   C81   1.386133 A    
Cr2   O50   1.997768 S    
C100  C104  1.408917 A    
S1    O62   1.502199 D    
C62   C66   1.393543 A    
C58   C73   1.411855 A    
C33   C49   1.495708 S    
O38   C18   1.286922 A    
N3    O58   1.300994 A    
O25   Cr1   2.067362 S    
C73   C77   1.413250 A    
C124  C132  1.483560 S    
S4    O72   1.676235 S    
C39   C55   1.396240 A    
C51   H19   1.102203 S    
O2    Cr2   2.105889 S    
C2    C27   1.480668 S    
C127  C128  1.403162 A    
C128  H60   1.058440 S    
C45   C49   1.509092 S    
C14   O34   1.277486 A    
C99   C115  1.437487 A    
C63   C72   1.411429 A    
C97   C113  1.437467 A    
C31   C47   1.470940 S    
C3    C26   1.440181 S    
C89   C93   1.362274 A    
C101  H41   1.081264 S    
C112  H52   1.098828 S    
C38   C42   1.379544 A    
O10   Cr6   2.058051 S    
O4    Cr4   2.105889 S    
C86   C90   1.371609 A    
C100  N4    1.426044 S    
C68   H28   1.079932 S    
C27   C31   1.395167 A    
C98   C102  1.408927 A    
C47   C51   1.517027 S    
C43   H7    1.075532 S    
C129  H65   1.108822 S    
C65   C66   1.389705 A    
C130  H62   1.111103 S    
C52   H20   1.106724 S    
