data_mof_unit_36756.cif
_audit_creation_date              2012-12-11T16:05:13-0500
_audit_creation_method            fapswitch 2.2
_symmetry_space_group_name_H-M    P1
_symmetry_Int_Tables_number       1
_space_group_crystal_system       triclinic
_cell_length_a                    10.694113
_cell_length_b                    10.763513
_cell_length_c                    16.921421
_cell_angle_alpha                 99.138007
_cell_angle_beta                  99.533476
_cell_angle_gamma                 61.000204
_cell_volume                      1673.05036972

loop_
_atom_site_label
_atom_site_type_symbol
_atom_type_description
_atom_site_fract_x
_atom_site_fract_y
_atom_site_fract_z
_atom_type_partial_charge
C1    C     C_R   0.351850 0.776607 0.399510 0.555100
C2    C     C_3   0.451585 0.710307 0.265369 -0.079565
C3    C     C_3   0.336058 0.816373 0.320020 0.015853
C4    C     C_R   0.369955 0.346858 0.358858 0.534813
C5    C     C_3   0.339244 0.943420 0.293898 -0.148988
C6    C     C_3   0.222265 0.950960 0.225399 -0.179043
C7    C     C_3   0.215852 0.825362 0.253806 -0.120391
C8    C     C_3   0.330752 0.723844 0.198411 0.275144
C9    C     C_3   0.338156 0.846607 0.169847 0.063822
C10   C     C_3   0.419387 0.286428 0.778811 -0.113675
C11   C     C_3   0.321022 0.418966 0.732312 -0.142417
C12   C     C_3   0.727935 0.350189 0.245031 -0.105008
C13   C     C_3   0.324671 0.319578 0.655524 0.059599
C14   C     C_3   0.419813 0.188850 0.702392 0.303264
C15   C     C_3   0.285787 0.184602 0.720196 -0.143028
C16   C     C_R   0.773910 0.378025 0.401305 0.541177
C17   C     C_3   0.188675 0.318151 0.672824 -0.164105
C18   C     C_3   0.186485 0.415685 0.750994 -0.003529
C19   C     C_3   0.284191 0.283727 0.797097 0.009700
C20   C     C_1   0.817740 0.342539 0.709624 -0.046909
C21   C     C_1   0.844007 0.314860 0.777999 -0.048741
C22   C     C_1   0.358118 0.766629 0.714581 -0.069400
C23   C     C_3   0.826405 0.343211 0.323649 0.044496
C24   C     C_1   0.325745 0.812639 0.781997 -0.074534
C25   C     C_R   0.954186 0.286603 0.102721 0.555416
C26   C     C_R   0.319715 0.298881 0.120269 0.584536
C27   C     C_R   0.298254 0.888718 0.088029 0.558766
C28   C     C_R   0.379919 0.717121 0.631809 0.555311
C29   C     C_R   0.884894 0.299394 0.860986 0.552549
C30   C     C_R   0.277000 0.254126 0.877104 0.564518
C31   C     C_R   0.281855 0.880969 0.859665 0.543720
C32   C     C_R   0.366326 0.344583 0.584189 0.550055
C33   C     C_R   0.773960 0.380094 0.629558 0.533182
C34   C     C_3   0.949088 0.205032 0.291841 -0.132499
C35   C     C_1   0.344098 0.336655 0.275083 -0.061587
C36   C     C_1   0.333255 0.325598 0.203873 -0.034576
C37   C     C_3   0.852367 0.213159 0.211825 0.006213
C38   C     C_3   0.187779 0.643376 0.113366 -0.092560
C39   C     C_3   0.608810 0.968855 0.729513 -0.091730
C40   C     C_3   0.048758 0.544971 0.777271 -0.237602
C41   C     C_3   0.081323 0.647767 0.839955 -0.271237
C42   C     C_3   0.952766 0.746673 0.886896 -0.429327
C43   C     C_3   0.836258 0.094513 0.155286 -0.240050
C44   C     C_3   0.797634 0.003051 0.194503 -0.313839
C45   C     C_3   0.003181 0.296596 0.259956 -0.159906
C46   C     C_3   0.792438 0.883875 0.132734 -0.448068
C47   C     C_3   0.594632 0.847907 0.247731 -0.259099
C48   C     C_3   0.663325 0.830991 0.335892 -0.287192
C49   C     C_3   0.805146 0.835854 0.350284 -0.444147
C50   C     C_3   0.879068 0.434740 0.292918 -0.122821
C51   C     C_3   0.782106 0.441102 0.213603 -0.116950
C52   C     C_3   0.906194 0.303998 0.181237 0.049690
C53   C     C_3   0.455111 0.839329 0.238828 -0.026326
Cr1   Cr    Cr6+3 0.608340 0.611040 0.520430 1.013020
Cr2   Cr    Cr6+3 0.287650 0.601120 0.489350 1.009433
Cr3   Cr    Cr6+3 0.604040 0.287870 0.490280 1.030325
Cr4   Cr    Cr6+3 0.054020 0.052700 0.970850 0.971488
Cr5   Cr    Cr6+3 0.059230 0.375120 0.993390 0.969600
Cr6   Cr    Cr6+3 0.374950 0.061200 0.992340 0.988621
H1    H     H_    0.615348 0.369348 0.240991 0.132519
H2    H     H_    0.894713 0.523209 0.327865 0.130232
H3    H     H_    0.713890 0.533583 0.178089 0.135565
H4    H     H_    0.542977 0.611896 0.286927 0.115342
H5    H     H_    0.335592 0.037232 0.333910 0.118287
H6    H     H_    0.115766 0.757953 0.106652 0.115502
H7    H     H_    0.138151 0.610295 0.152841 0.132691
H8    H     H_    0.189900 0.588113 0.052099 0.170414
H9    H     H_    0.535815 0.929558 0.741999 0.128774
H10   H     H_    0.647879 0.012985 0.786217 0.112633
H11   H     H_    0.703612 0.875736 0.704701 0.141289
H12   H     H_    0.134968 0.045318 0.199365 0.127717
H13   H     H_    0.857620 0.808190 0.845208 0.131290
H14   H     H_    0.927129 0.683795 0.921473 0.150684
H15   H     H_    0.978321 0.822463 0.929976 0.161340
H16   H     H_    0.175076 0.588858 0.883325 0.189189
H17   H     H_    0.108644 0.712283 0.807966 0.183382
H18   H     H_    0.984165 0.602394 0.723770 0.140459
H19   H     H_    0.984667 0.506468 0.801214 0.185699
H20   H     H_    0.856504 0.860605 0.081849 0.124486
H21   H     H_    0.838693 0.783120 0.161514 0.132508
H22   H     H_    0.679949 0.914567 0.107042 0.177203
H23   H     H_    0.119168 0.819305 0.263372 0.109497
H24   H     H_    0.881610 0.955543 0.244301 0.150742
H25   H     H_    0.692635 0.070419 0.219261 0.180206
H26   H     H_    0.752990 0.143225 0.104722 0.183193
H27   H     H_    0.940590 0.021975 0.131281 0.177678
H28   H     H_    0.878171 0.763821 0.304597 0.144064
H29   H     H_    0.784455 0.947166 0.350055 0.162610
H30   H     H_    0.858808 0.800369 0.410575 0.147885
H31   H     H_    0.589029 0.916938 0.376865 0.183649
H32   H     H_    0.682635 0.728020 0.353747 0.188649
H33   H     H_    0.667815 0.761995 0.207036 0.136602
H34   H     H_    0.334722 0.515605 0.736216 0.109234
H35   H     H_    0.568790 0.953544 0.230765 0.167629
H36   H     H_    0.513846 0.274004 0.822269 0.128509
H37   H     H_    0.271433 0.088375 0.716689 0.115395
H38   H     H_    0.095035 0.332488 0.628262 0.125272
H39   H     H_    0.012216 0.111946 0.327786 0.117516
H40   H     H_    0.116388 0.274841 0.264290 0.099529
O1    O     O_R   0.751220 0.499230 0.435170 -0.537402
O2    O     O_R   0.412990 0.180750 0.091610 -0.520395
O3    O     O_R   0.366620 0.943130 0.065760 -0.510934
O4    O     O_R   0.477220 0.727600 0.436870 -0.505390
O5    O     O_R   0.160510 0.906330 0.879210 -0.520539
O6    O     O_R   0.930190 0.179050 0.889450 -0.485059
O7    O     O_R   0.909140 0.398170 0.896710 -0.532559
O8    O     O_R   0.186190 0.363460 0.918830 -0.512039
O9    O     O_R   0.401670 0.173200 0.913310 -0.522117
O10   O     O_R   0.356120 0.936130 0.900470 -0.511099
O11   O     O_3   0.162740 0.163010 0.985530 -0.280829
O12   O     O_R   0.297880 0.469080 0.560050 -0.528922
O13   O     O_R   0.258650 0.745120 0.411470 -0.519212
O14   O     O_R   0.297070 0.467240 0.395960 -0.498673
O15   O     O_R   0.488830 0.252610 0.387790 -0.526689
O16   O     O_R   0.724400 0.302390 0.420980 -0.505651
O17   O     O_R   0.752100 0.501210 0.612190 -0.529046
O18   O     O_R   0.478040 0.729440 0.600970 -0.482599
O19   O     O_R   0.259530 0.747110 0.588490 -0.502961
O20   O     O_3   0.330303 0.608678 0.145759 -0.580912
O21   O     O_3   0.541973 0.070054 0.672376 -0.534326
O22   O     O_R   0.489720 0.254590 0.564810 -0.460181
O23   O     O_R   0.725220 0.304230 0.585080 -0.485242
O24   O     O_3   0.500010 0.500010 0.500020 -0.276227
O25   O     O_R   0.171830 0.913880 0.057510 -0.557071
O26   O     O_R   0.940690 0.186050 0.054730 -0.522322
O27   O     O_R   0.920470 0.405720 0.075010 -0.517568
O28   O     O_R   0.196690 0.370460 0.084120 -0.529662

loop_
_geom_bond_atom_site_label_1
_geom_bond_atom_site_label_2
_ccdc_geom_bond_type
Cr4   O6    S    
Cr1   O24   S    
C11   C18   S    
C32   O12   A    
C30   O8    A    
C34   C37   S    
C39   H9    S    
C49   H28   S    
C13   C32   S    
C35   C36   T    
C43   C44   S    
C44   H24   S    
Cr1   O1    S    
C6    C9    S    
C7    C8    S    
C15   C19   S    
C12   C23   S    
C10   H36   S    
C4    O15   A    
C18   C19   S    
C3    C7    S    
C28   O18   A    
C1    O13   A    
Cr4   O26   S    
C46   H20   S    
Cr2   O13   S    
C39   O21   S    
Cr6   O11   S    
Cr5   O8    S    
C41   C42   S    
C12   C37   S    
C18   C40   S    
C25   O26   A    
C34   H39   S    
C39   H11   S    
C38   H7    S    
C8    C9    S    
C33   O17   A    
C48   H32   S    
Cr1   O17   S    
C47   C48   S    
C1    O4    A    
C47   C53   S    
Cr2   O12   S    
C11   H34   S    
C4    C35   S    
Cr5   O28   S    
C22   C28   S    
C13   C14   S    
Cr6   O3    S    
C49   H29   S    
C29   O6    A    
C51   H3    S    
C47   H33   S    
C44   C46   S    
C50   C51   S    
C31   O10   A    
C6    H12   S    
Cr2   O24   S    
C42   H15   S    
C51   C52   S    
Cr6   O2    S    
Cr3   O24   S    
Cr1   O4    S    
C45   H40   S    
C15   H37   S    
C37   C52   S    
C16   O1    A    
C23   C50   S    
Cr2   O14   S    
C45   C52   S    
C3    C5    S    
C21   C29   S    
C5    H5    S    
C1    C3    S    
C43   H26   S    
C37   C43   S    
C25   O27   A    
C41   H16   S    
C46   H22   S    
C4    O14   A    
Cr4   O11   S    
C14   C15   S    
C38   H6    S    
C10   C19   S    
C23   C34   S    
C42   H13   S    
C17   C18   S    
C39   H10   S    
C34   C45   S    
C38   H8    S    
C20   C33   S    
C26   C36   S    
C40   C41   S    
Cr5   O27   S    
C16   C23   S    
C14   O21   S    
C10   C14   S    
C33   O23   A    
C40   H19   S    
C29   O7    A    
C9    C53   S    
C38   O20   S    
C16   O16   A    
C12   C51   S    
C2    H4    S    
C9    C27   S    
C5    C53   S    
C15   C17   S    
Cr4   O5    S    
C48   C49   S    
C42   H14   S    
C30   O9    A    
Cr5   O11   S    
C43   H27   S    
C32   O22   A    
C2    C8    S    
C49   H30   S    
C44   H25   S    
C2    C53   S    
C27   O25   A    
C6    C7    S    
C27   O3    A    
Cr6   O9    S    
C13   C17   S    
Cr3   O22   S    
C2    C3    S    
C25   C52   S    
C26   O2    A    
C28   O19   A    
C31   O5    A    
C41   H17   S    
C46   H21   S    
C11   C13   S    
C5    C6    S    
C45   C50   S    
Cr6   O10   S    
Cr3   O16   S    
C22   C24   T    
C26   O28   A    
C24   C31   S    
C10   C11   S    
C12   H1    S    
C7    H23   S    
C20   C21   T    
Cr1   O18   S    
C50   H2    S    
Cr3   O15   S    
C40   H18   S    
C48   H31   S    
Cr5   O7    S    
C19   C30   S    
C17   H38   S    
C47   H35   S    
C8    O20   S    
Cr3   O23   S    
Cr4   O25   S    
Cr2   O19   S    
