data_mof_unit_58323.cif
_audit_creation_date              2013-03-05T15:40:26-0500
_audit_creation_method            fapswitch 2.2
_symmetry_space_group_name_H-M    P1
_symmetry_Int_Tables_number       1
_space_group_crystal_system       triclinic
_cell_length_a                    7.72764
_cell_length_b                    8.603602
_cell_length_c                    10.650418
_cell_angle_alpha                 91.313747
_cell_angle_beta                  86.938493
_cell_angle_gamma                 93.380041
_cell_volume                      705.719182799

loop_
_atom_site_label
_atom_site_type_symbol
_atom_site_description
_atom_site_fract_x
_atom_site_fract_y
_atom_site_fract_z
_atom_type_partial_charge
O1    O     O_R   0.389250 0.738570 0.508280 -0.603780
O2    O     O_R   0.678390 0.711630 0.486650 -0.599531
C1    C     C_R   0.546256 0.794744 0.499911 0.893378
O3    O     O_R   0.355400 0.513470 0.694050 -0.610166
O4    O     O_R   0.644540 0.486530 0.672420 -0.623994
C2    C     C_R   0.505714 0.512686 0.739987 0.957628
Zn1   Zn    Zn3+2 0.306930 0.517990 0.514440 1.026212
Zn2   Zn    Zn3+2 0.693070 0.482010 0.485560 1.057957
O5    O     O_R   0.321610 0.288370 0.513350 -0.611760
O6    O     O_R   0.610750 0.261430 0.491720 -0.559422
O7    O     O_R   0.355460 0.513470 0.327580 -0.657502
O8    O     O_R   0.644600 0.486530 0.305950 -0.596682
C3    C     C_R   0.455380 0.205640 0.508298 0.993181
C4    C     C_R   0.492141 0.484362 0.260059 0.909179
H1    H     H_    0.729013 0.375067 0.869816 0.229683
C5    C     C_R   0.271232 0.705769 0.900969 0.334769
C6    C     C_R   0.108715 0.727843 0.961684 -0.176457
H2    H     H_    0.022759 0.809836 0.926617 0.215134
C7    C     C_R   0.056947 0.646012 0.069343 -0.168796
H3    H     H_    0.928952 0.658859 0.113531 0.179281
C8    C     C_R   0.172718 0.552779 0.123419 -0.044310
H4    H     H_    0.124300 0.488767 0.205047 0.176701
C9    C     C_R   0.341184 0.535370 0.067429 0.019249
C10   C     C_R   0.378204 0.592115 0.946702 -0.011589
C11   C     C_R   0.513838 0.524708 0.873941 -0.133954
C12   C     C_R   0.630462 0.431422 0.927757 -0.238735
C13   C     C_R   0.613224 0.399992 0.054269 0.291268
C14   C     C_R   0.474944 0.462832 0.126261 -0.210826
C15   C     C_2   0.573027 0.956702 0.519796 0.173875
C16   C     C_2   0.434378 0.042453 0.510704 -0.369944
H5    H     H_    0.306106 0.992046 0.490687 0.203467
N1    N     N_2   0.950330 0.457950 0.466250 -0.156919
H6    H     H_    0.013219 0.380366 0.407584 0.210420
N2    N     N_2   0.049670 0.542050 0.533750 -0.155726
H7    H     H_    0.986574 0.618630 0.593287 0.227604
N3    N     N_R   0.333402 0.809514 0.802682 0.193911
O9    O     O_R   0.224148 0.880596 0.738588 -0.374912
O10   O     O_R   0.497010 0.855292 0.793525 -0.399853
N4    N     N_R   0.727638 0.294841 0.106411 0.221327
O11   O     O_R   0.668845 0.197874 0.192794 -0.385102
O12   O     O_R   0.882405 0.279073 0.055033 -0.381914
N5    N     N_R   0.738938 0.017444 0.561808 0.241904
O13   O     O_R   0.882134 0.980671 0.501475 -0.366280
O14   O     O_R   0.747327 0.093846 0.668457 -0.317971

loop_
_geom_bond_atom_site_label_1
_geom_bond_atom_site_label_2
_geom_bond_distance
_ccdc_geom_bond_type
O4    Zn2   2.005305 S    
C9    C10   1.395165 A    
C10   C11   1.414122 A    
C15   C16   1.345062 D    
C15   N5    1.445219 S    
C5    C10   1.427205 A    
C7    H3    1.082959 S    
Zn2   O8    1.970466 S    
C4    C14   1.444928 S    
N1    H6    1.028992 S    
N3    O10   1.301142 A    
C6    H2    1.082670 S    
N4    O12   1.301546 A    
O1    Zn1   1.967092 S    
C9    C14   1.419051 A    
C5    N3    1.435908 S    
Zn1   O7    2.005305 S    
C12   C13   1.378286 A    
O4    C2    1.287624 A    
N5    O14   1.301946 A    
O3    Zn1   1.970466 S    
O3    C2    1.284693 A    
N3    O9    1.301682 A    
C7    C8    1.391523 A    
O8    C4    1.298374 A    
O2    C1    1.280611 A    
C8    C9    1.417317 A    
C16   H5    1.087993 S    
O7    C4    1.279558 A    
C2    C11   1.432496 S    
N5    O13   1.301341 A    
Zn2   N1    2.010034 S    
Zn1   O5    1.985214 S    
C3    C16   1.404468 S    
N4    O11   1.301808 A    
Zn1   N2    2.010034 S    
Zn2   O6    1.967092 S    
N2    H7    1.029375 S    
C13   C14   1.408420 A    
C1    C15   1.409406 S    
O5    C3    1.287315 A    
H1    C12   1.084202 S    
C6    C7    1.387528 A    
C11   C12   1.395154 A    
C8    H4    1.077978 S    
O2    Zn2   1.985214 S    
C13   N4    1.441648 S    
C5    C6    1.402558 A    
O1    C1    1.278620 A    
O6    C3    1.271377 A    
N1    N2    1.264623 D    
