data_mof_unit_28706.cif
_audit_creation_date              2012-12-11T14:19:20-0500
_audit_creation_method            fapswitch 2.2
_symmetry_space_group_name_H-M    P1
_symmetry_Int_Tables_number       1
_space_group_crystal_system       monoclinic
_cell_length_a                    19.58076
_cell_length_b                    7.2298
_cell_length_c                    17.655409
_cell_angle_alpha                 90.0
_cell_angle_beta                  107.570505
_cell_angle_gamma                 90.0
_cell_volume                      2382.78166131

loop_
_atom_site_label
_atom_site_type_symbol
_atom_type_description
_atom_site_fract_x
_atom_site_fract_y
_atom_site_fract_z
_atom_type_partial_charge
O1    O     O_R   0.414820 0.494320 0.416790 -0.537760
O2    O     O_R   0.585180 0.994320 0.583210 -0.537760
O3    O     O_R   0.560270 0.819500 0.430140 -0.545161
O4    O     O_R   0.439730 0.319500 0.569860 -0.545161
C1    C     C_R   0.581354 0.655569 0.415059 0.710916
C2    C     C_R   0.418646 0.155569 0.584941 0.710916
O5    O     O_R   0.413840 0.823740 0.407440 -0.542339
O6    O     O_R   0.586160 0.323740 0.592560 -0.542339
O7    O     O_R   0.437710 0.998590 0.560350 -0.538304
O8    O     O_R   0.562290 0.498590 0.439650 -0.538303
C3    C     C_R   0.387046 0.655796 0.386872 0.739977
C4    C     C_R   0.612954 0.155796 0.613128 0.739977
O9    O     O_3   0.508000 0.662290 0.550200 -0.380624
O10   O     O_3   0.492000 0.162290 0.449800 -0.380624
V1    V     V_3+5 0.498520 0.935380 0.490690 1.398887
V2    V     V_3+5 0.501480 0.435380 0.509310 1.398887
C5    C     C_2   0.777550 0.262732 0.792864 0.173267
C6    C     C_2   0.222450 0.762732 0.207136 0.173267
C7    C     C_2   0.814145 0.110814 0.828268 -0.331868
C8    C     C_2   0.185855 0.610814 0.171732 -0.331868
H1    H     H_    0.787361 0.977602 0.815830 0.118156
H2    H     H_    0.212639 0.477601 0.184170 0.118156
C9    C     C_2   0.702221 0.242744 0.740893 0.157101
C10   C     C_2   0.297779 0.742744 0.259107 0.157101
C11   C     C_2   0.685723 0.149573 0.670551 0.010149
C12   C     C_2   0.314277 0.649573 0.329449 0.010149
C13   C     C_R   0.323217 0.297903 0.633683 -0.210051
C14   C     C_R   0.676783 0.797903 0.366317 -0.210050
C15   C     C_R   0.369089 0.148221 0.633783 -0.094964
C16   C     C_R   0.630911 0.648221 0.366217 -0.094964
C17   C     C_R   0.367199 0.992226 0.680420 -0.197342
C18   C     C_R   0.632801 0.492226 0.319579 -0.197342
C19   C     C_R   0.321204 0.986648 0.727811 0.143103
C20   C     C_R   0.678796 0.486648 0.272189 0.143103
C21   C     C_R   0.274381 0.135879 0.726694 0.032158
C22   C     C_R   0.725619 0.635879 0.273306 0.032158
C23   C     C_R   0.274869 0.291982 0.678600 -0.016170
C24   C     C_R   0.725130 0.791982 0.321400 -0.016170
C25   C     C_R   0.321472 0.833936 0.776453 -0.134407
C26   C     C_R   0.678527 0.333936 0.223547 -0.134405
C27   C     C_R   0.276964 0.829659 0.824952 -0.162985
C28   C     C_R   0.723035 0.329659 0.175048 -0.162985
C29   C     C_R   0.230216 0.977984 0.825793 0.098778
C30   C     C_R   0.769783 0.477984 0.174207 0.098778
C31   C     C_R   0.227417 0.129158 0.774030 -0.041560
C32   C     C_R   0.772582 0.629158 0.225969 -0.041560
C33   C     C_R   0.178584 0.274785 0.770094 -0.092860
C34   C     C_R   0.821415 0.774785 0.229906 -0.092859
C35   C     C_R   0.180950 0.431338 0.723574 -0.239991
C36   C     C_R   0.819050 0.931339 0.276425 -0.239991
C37   C     C_R   0.227266 0.439425 0.676831 0.419429
C38   C     C_R   0.772733 0.939425 0.323169 0.419428
C39   C     C_R   0.187618 0.980529 0.878210 0.049302
C40   C     C_R   0.812381 0.480529 0.121790 0.049303
C41   C     C_R   0.133468 0.118262 0.868623 -0.172391
C42   C     C_R   0.866532 0.618262 0.131377 -0.172392
C43   C     C_R   0.127364 0.260400 0.811710 0.395468
C44   C     C_R   0.872636 0.760400 0.188290 0.395467
H3    H     H_    0.324468 0.417758 0.597284 0.152624
H4    H     H_    0.675532 0.917758 0.402716 0.152625
H5    H     H_    0.402698 0.876642 0.681180 0.125954
H6    H     H_    0.597302 0.376643 0.318819 0.125954
H7    H     H_    0.356472 0.717289 0.777286 0.121942
H8    H     H_    0.643528 0.217289 0.222714 0.121942
H9    H     H_    0.278895 0.707140 0.860693 0.134446
H10   H     H_    0.721104 0.207140 0.139307 0.134446
H11   H     H_    0.146637 0.549069 0.723169 0.175554
H12   H     H_    0.853363 0.049069 0.276830 0.175553
O11   O     O_R   0.937810 0.773680 0.060480 -0.512126
O12   O     O_R   0.062190 0.273680 0.939520 -0.512126
O13   O     O_R   0.086190 0.439740 0.092580 -0.544913
O14   O     O_R   0.913810 0.939740 0.907420 -0.544913
C45   C     C_R   0.113758 0.608120 0.112416 0.731613
C46   C     C_R   0.886242 0.108120 0.887584 0.731613
O15   O     O_R   0.939760 0.444210 0.069890 -0.540226
O16   O     O_R   0.060240 0.944210 0.930110 -0.540226
O17   O     O_R   0.914790 0.269640 0.916760 -0.535914
O18   O     O_R   0.085210 0.769640 0.083240 -0.535913
C47   C     C_R   0.918085 0.612106 0.083845 0.747985
C48   C     C_R   0.081915 0.112106 0.916155 0.747986
O19   O     O_3   0.992050 0.601530 0.949880 -0.371384
O20   O     O_3   0.007950 0.101530 0.050120 -0.371384
V3    V     V_3+5 0.001480 0.328340 0.009300 1.441028
V4    V     V_3+5 0.998520 0.828340 0.990700 1.441028
C49   C     C_3   0.807990 0.456357 0.805435 -0.695916
H13   H     H_    0.770350 0.556818 0.766675 0.188064
H14   H     H_    0.816877 0.500521 0.867858 0.200046
H15   H     H_    0.858813 0.463156 0.789980 0.206800
C50   C     C_3   0.192010 0.956357 0.194565 -0.695915
H16   H     H_    0.229650 0.056818 0.233324 0.188064
H17   H     H_    0.183123 0.000520 0.132141 0.200046
H18   H     H_    0.141187 0.963156 0.210020 0.206800
O21   O     O_3   0.072077 0.388136 0.799061 -0.550543
C51   C     C_3   0.020383 0.356748 0.724156 0.082437
H19   H     H_    0.044199 0.326949 0.675631 0.108361
H20   H     H_    0.988603 0.485560 0.706837 0.142068
C52   C     C_3   0.969038 0.201154 0.728244 -0.765201
H21   H     H_    0.944883 0.230279 0.776032 0.227069
H22   H     H_    0.925689 0.191308 0.670867 0.180063
H23   H     H_    0.997716 0.066760 0.740025 0.205479
O22   O     O_3   0.927922 0.888137 0.200938 -0.550543
C53   C     C_3   0.979616 0.856749 0.275844 0.082436
H24   H     H_    0.955800 0.826948 0.324369 0.108362
H25   H     H_    0.011396 0.985561 0.293163 0.142067
C54   C     C_3   0.030962 0.701155 0.271756 -0.765200
H26   H     H_    0.055117 0.730281 0.223968 0.227069
H27   H     H_    0.074311 0.691309 0.329133 0.180063
H28   H     H_    0.002284 0.566761 0.259974 0.205479
O23   O     O_3   0.228534 0.597828 0.633254 -0.557316
C55   C     C_3   0.181817 0.577206 0.554996 0.091169
H29   H     H_    0.173111 0.430606 0.534312 0.101538
H30   H     H_    0.206631 0.648426 0.514136 0.142428
C56   C     C_3   0.110014 0.669827 0.546994 -0.751947
H31   H     H_    0.118574 0.814816 0.568625 0.234368
H32   H     H_    0.076895 0.670453 0.483653 0.180396
H33   H     H_    0.080603 0.593127 0.581824 0.201593
O24   O     O_3   0.771465 0.097828 0.366745 -0.557315
C57   C     C_3   0.818183 0.077208 0.445003 0.091169
H34   H     H_    0.826893 0.930608 0.465687 0.101537
H35   H     H_    0.793369 0.148421 0.485864 0.142427
C58   C     C_3   0.889985 0.169840 0.453004 -0.751942
H36   H     H_    0.881421 0.314829 0.431374 0.234368
H37   H     H_    0.923104 0.170465 0.516345 0.180395
H38   H     H_    0.919396 0.093147 0.418173 0.201593
C59   C     C_3   0.645029 0.337755 0.768324 -0.803601
H39   H     H_    0.667221 0.387379 0.830506 0.212761
H40   H     H_    0.623569 0.459504 0.730351 0.223449
H41   H     H_    0.600898 0.239593 0.766389 0.189658
C60   C     C_3   0.354971 0.837755 0.231676 -0.803600
H42   H     H_    0.332779 0.887378 0.169494 0.212760
H43   H     H_    0.376431 0.959504 0.269649 0.223449
H44   H     H_    0.399102 0.739593 0.233611 0.189658
C61   C     C_3   0.742574 0.051341 0.643497 -0.835372
H45   H     H_    0.720976 0.004210 0.580878 0.197058
H46   H     H_    0.787986 0.146208 0.646813 0.215401
H47   H     H_    0.762192 0.927334 0.680617 0.216574
C62   C     C_3   0.257426 0.551342 0.356502 -0.835372
H48   H     H_    0.279024 0.504211 0.419123 0.197058
H49   H     H_    0.212014 0.646209 0.353187 0.215401
H50   H     H_    0.237807 0.427334 0.319383 0.216575
C63   C     C_3   0.203776 0.844432 0.946933 -0.730030
H51   H     H_    0.185817 0.894936 0.997003 0.197724
H52   H     H_    0.178512 0.708736 0.926013 0.224629
H53   H     H_    0.262485 0.826195 0.973283 0.186291
C64   C     C_3   0.796224 0.344432 0.053067 -0.730030
H54   H     H_    0.814183 0.394936 0.002997 0.197724
H55   H     H_    0.821488 0.208736 0.073987 0.224629
H56   H     H_    0.737515 0.326195 0.026717 0.186291

loop_
_geom_bond_atom_site_label_1
_geom_bond_atom_site_label_2
_ccdc_geom_bond_type
O22   C53   S    
C13   C15   A    
C17   H5    S    
O1    C3    A    
C12   C62   S    
O2    C4    A    
O16   V4    S    
C2    O7    A    
C52   H21   S    
C33   C35   A    
C49   H13   S    
O5    C3    A    
C54   H27   S    
O21   C51   S    
C42   C47   S    
C6    C10   S    
C7    H1    S    
C10   C12   D    
C60   H42   S    
C63   H52   S    
C23   C37   A    
C24   C38   A    
O17   V3    S    
C53   C54   S    
C31   C33   A    
C57   H34   S    
C58   H38   S    
C64   H55   S    
C55   H29   S    
C63   H51   S    
C10   C60   S    
C29   C39   A    
C35   C37   A    
C46   O17   A    
C61   H47   S    
C36   C38   A    
C45   O18   A    
C17   C19   A    
C22   C32   A    
C50   H17   S    
C11   C61   S    
C6    C8    D    
C9    C59   S    
C60   H44   S    
C38   O24   S    
C34   C36   A    
O1    V2    S    
C37   O23   S    
C43   O21   S    
C27   C29   A    
C53   H24   S    
C28   C30   A    
C52   H22   S    
C30   C32   A    
C64   H54   S    
O13   V3    S    
C39   C41   A    
C62   H50   S    
C40   C42   A    
C49   H14   S    
O12   C48   A    
C28   H10   S    
C25   C27   A    
C63   H53   S    
O13   C45   A    
C5    C7    D    
C27   H9    S    
O5    V1    S    
C3    C12   S    
C57   C58   S    
C18   C20   A    
O4    V2    S    
C51   H20   S    
O12   V3    S    
O18   V4    S    
C33   C43   A    
C62   H49   S    
C5    C9    S    
C14   C24   A    
O6    C4    A    
C44   O22   S    
C19   C25   A    
C54   H28   S    
C50   H18   S    
C53   H25   S    
O2    V1    S    
C29   C31   A    
C55   C56   S    
C58   H36   S    
O14   V4    S    
C14   H4    S    
C40   C64   S    
C57   H35   S    
O14   C46   A    
C8    H2    S    
C41   C43   A    
C59   H39   S    
C5    C49   S    
O11   C47   A    
O4    C2    A    
C22   C24   A    
C21   C31   A    
O19   V4    S    
O3    V1    S    
C64   H56   S    
C59   H40   S    
C56   H31   S    
C62   H48   S    
C49   H15   S    
C52   H23   S    
C35   H11   S    
C21   C23   A    
C6    C50   S    
C7    C46   S    
O16   C48   A    
O3    C1    A    
C26   H8    S    
C34   C44   A    
C25   H7    S    
C54   H26   S    
C51   C52   S    
C4    C11   S    
C56   H33   S    
C14   C16   A    
O7    V1    S    
C18   H6    S    
C1    O8    A    
C15   C17   A    
O11   V4    S    
O8    V2    S    
O24   C57   S    
C16   C18   A    
C41   C48   S    
O15   V3    S    
C61   H45   S    
O15   C47   A    
C13   C23   A    
C59   H41   S    
C26   C28   A    
C19   C21   A    
C20   C22   A    
C42   C44   A    
C8    C45   S    
C39   C63   S    
C9    C11   D    
C51   H19   S    
C55   H30   S    
C58   H37   S    
C32   C34   A    
C30   C40   A    
C2    C15   S    
O6    V2    S    
O20   V3    S    
C1    C16   S    
O9    V2    S    
C61   H46   S    
O10   V1    S    
C20   C26   A    
C13   H3    S    
C60   H43   S    
C50   H16   S    
O23   C55   S    
C36   H12   S    
C56   H32   S    
