data_mof_unit_19178.cif
_audit_creation_date              2012-12-10T17:43:50-0500
_audit_creation_method            fapswitch 2.2
_symmetry_space_group_name_H-M    P1
_symmetry_Int_Tables_number       1
_space_group_crystal_system       triclinic
_cell_length_a                    15.809621
_cell_length_b                    15.024425
_cell_length_c                    13.795218
_cell_angle_alpha                 89.911291
_cell_angle_beta                  89.440865
_cell_angle_gamma                 89.727952
_cell_volume                      3276.58788678

loop_
_atom_site_label
_atom_site_type_symbol
_atom_type_description
_atom_site_fract_x
_atom_site_fract_y
_atom_site_fract_z
_atom_type_partial_charge
C1    C     C_R   0.495740 0.329103 0.500506 0.831875
C2    C     C_R   0.503680 0.670800 0.500063 0.826363
C3    C     C_R   0.505202 0.767152 0.500701 -0.140177
C4    C     C_R   0.493247 0.232467 0.503382 -0.201527
C5    C     C_R   0.577699 0.813566 0.528681 0.414930
C6    C     C_R   0.416307 0.185796 0.503447 0.414561
C7    C     C_R   0.578605 0.907509 0.520723 -0.065421
C8    C     C_R   0.418063 0.091508 0.499479 -0.091381
C9    C     C_R   0.500708 0.952851 0.504185 -0.049900
C10   C     C_R   0.497489 0.046465 0.505749 -0.067722
C11   C     C_R   0.426549 0.904365 0.482626 -0.000729
C12   C     C_R   0.573939 0.094967 0.510592 0.056061
C13   C     C_R   0.655002 0.956352 0.525154 0.358916
C14   C     C_R   0.343231 0.041133 0.486788 0.461499
C15   C     C_R   0.652668 0.049554 0.511519 -0.103739
C16   C     C_R   0.349361 0.949320 0.466588 -0.113054
C17   C     C_R   0.567332 0.464187 0.793435 0.474052
C18   C     C_R   0.437181 0.545202 0.206649 0.526674
C19   C     C_R   0.434128 0.538561 0.794760 0.495820
C20   C     C_R   0.563259 0.456574 0.205485 0.546282
C21   C     C_R   0.430749 0.533286 0.897688 -0.099728
C22   C     C_R   0.570445 0.469073 0.102966 -0.161916
C23   C     C_R   0.339949 0.502053 0.500497 0.795485
C24   C     C_R   0.660067 0.500590 0.499598 0.841078
C25   C     C_R   0.501710 0.502901 0.948645 0.024265
C26   C     C_R   0.500148 0.500579 0.052038 0.012070
C27   C     C_R   0.574158 0.475091 0.896325 -0.199365
C28   C     C_R   0.428446 0.529953 0.104649 -0.057913
C29   C     C_R   0.356776 0.554422 0.950118 -0.253634
C30   C     C_R   0.646020 0.453260 0.051149 -0.174621
C31   C     C_R   0.353770 0.549251 0.051815 0.043652
C32   C     C_R   0.649544 0.457602 0.949083 0.024599
C33   C     C_3   0.971912 0.435712 0.540226 0.399104
C34   C     C_3   0.027875 0.587248 0.464041 0.403184
C35   C     C_3   0.029789 0.440489 0.449297 -0.461122
C36   C     C_3   0.969820 0.582278 0.555083 -0.461405
C37   C     C_1   0.250418 0.507377 0.501953 -0.166256
C38   C     C_1   0.749592 0.504445 0.498769 -0.130703
C39   C     C_3   0.025204 0.504927 0.593579 0.393766
C40   C     C_3   0.974687 0.517938 0.410597 0.400969
C41   C     C_3   0.083216 0.511113 0.503523 -0.030370
C42   C     C_3   0.916578 0.511760 0.500526 -0.034557
C43   C     C_1   0.174853 0.510510 0.503326 0.065670
C44   C     C_1   0.825061 0.508256 0.498974 0.092902
C45   C     C_R   0.431842 0.811846 0.475698 -0.282455
C46   C     C_R   0.569973 0.187813 0.508870 -0.289021
Cu1   Cu    Cu3+1 0.500010 0.499990 0.597420 0.989185
Cu2   Cu    Cu3+1 0.499990 0.500010 0.402580 1.035018
H1    H     H_    0.055783 0.383348 0.407499 0.174723
H2    H     H_    0.943655 0.638944 0.597517 0.158586
H3    H     H_    0.298911 0.568918 0.911461 0.167322
H4    H     H_    0.703905 0.442255 0.090618 0.192611
H5    H     H_    0.377998 0.772430 0.455784 0.121227
H6    H     H_    0.626431 0.227638 0.510498 0.199269
N1    N     N_R   0.499960 0.499930 0.743810 -0.252700
N2    N     N_R   0.500040 0.500070 0.256190 -0.249958
O1    O     O_R   0.500020 0.370250 0.582280 -0.601828
O2    O     O_R   0.499980 0.629750 0.417720 -0.548108
O3    O     O_R   0.500010 0.370270 0.417740 -0.537662
O4    O     O_R   0.499990 0.629730 0.582260 -0.598492
O5    O     O_R   0.379080 0.499980 0.582260 -0.520624
O6    O     O_R   0.620920 0.500020 0.417740 -0.522669
O7    O     O_R   0.379070 0.500000 0.417710 -0.606986
O8    O     O_R   0.620930 0.500000 0.582290 -0.540439
C47   C     C_2   0.268479 0.544715 0.095730 0.306997
H7    H     H_    0.219169 0.589984 0.071827 0.061415
O9    O     O_2   0.250435 0.485022 0.152296 -0.563656
C48   C     C_2   0.733911 0.451561 0.900916 0.349753
H8    H     H_    0.744534 0.481038 0.830093 0.118632
O10   O     O_2   0.793359 0.415085 0.940873 -0.580089
O11   O     O_3   0.934564 0.358967 0.580959 -0.562196
C49   C     C_3   0.998181 0.297175 0.605424 0.072369
H9    H     H_    0.044922 0.326915 0.655487 0.175992
H10   H     H_    0.031183 0.272564 0.539063 0.149032
C50   C     C_3   0.957989 0.218175 0.656844 -0.762240
H11   H     H_    0.915294 0.182635 0.606775 0.287197
H12   H     H_    0.008012 0.171421 0.681295 0.185728
H13   H     H_    0.921183 0.241249 0.721117 0.255603
O12   O     O_3   0.064571 0.664671 0.424094 -0.591381
C51   C     C_3   0.000391 0.726204 0.400340 0.058846
H14   H     H_    0.960028 0.742338 0.464482 0.150276
H15   H     H_    0.960168 0.699933 0.341315 0.187302
C52   C     C_3   0.040851 0.812209 0.365406 -0.750377
H16   H     H_    0.080563 0.799354 0.300037 0.255019
H17   H     H_    0.990904 0.861421 0.346892 0.208374
H18   H     H_    0.080879 0.840324 0.423431 0.257145
O13   O     O_3   0.942048 0.527166 0.316256 -0.576396
C53   C     C_3   0.008418 0.518327 0.247760 0.095895
H19   H     H_    0.032040 0.448478 0.246041 0.170796
H20   H     H_    0.061846 0.563876 0.263933 0.173358
C54   C     C_3   0.975523 0.541636 0.147610 -0.765114
H21   H     H_    0.951985 0.611401 0.146760 0.240663
H22   H     H_    0.027312 0.534682 0.093123 0.204739
H23   H     H_    0.923148 0.496263 0.127974 0.270013
O14   O     O_3   0.058380 0.495862 0.687678 -0.579500
C55   C     C_3   0.992430 0.504393 0.756705 0.075038
H24   H     H_    0.938876 0.458954 0.740739 0.180929
H25   H     H_    0.968873 0.574256 0.758982 0.143971
C56   C     C_3   0.026010 0.480530 0.856395 -0.756059
H26   H     H_    0.078708 0.525608 0.875716 0.241453
H27   H     H_    0.974686 0.487448 0.911448 0.226125
H28   H     H_    0.049324 0.410671 0.856631 0.250884
O15   O     O_3   0.647974 0.766140 0.559010 -0.546340
C57   C     C_3   0.643761 0.757511 0.661139 0.086913
H29   H     H_    0.583406 0.727195 0.685961 0.135696
H30   H     H_    0.648798 0.823534 0.696840 0.112184
C58   C     C_3   0.715651 0.697757 0.695290 -0.793449
H31   H     H_    0.777532 0.723691 0.669576 0.242916
H32   H     H_    0.715528 0.694651 0.775695 0.188931
H33   H     H_    0.707480 0.629480 0.666667 0.258051
O16   O     O_3   0.340486 0.232127 0.497080 -0.539093
C59   C     C_3   0.316474 0.263592 0.590092 0.091124
H34   H     H_    0.355152 0.321553 0.610610 0.158377
H35   H     H_    0.323350 0.211632 0.647262 0.106756
C60   C     C_3   0.224718 0.294778 0.588351 -0.765197
H36   H     H_    0.181329 0.237683 0.594957 0.223149
H37   H     H_    0.211900 0.340702 0.649843 0.214971
H38   H     H_    0.211144 0.329434 0.519223 0.260888
O17   O     O_3   0.732222 0.911295 0.525002 -0.540109
C61   C     C_3   0.781788 0.934394 0.606529 0.091962
H39   H     H_    0.776535 0.881648 0.662134 0.155315
H40   H     H_    0.763235 0.997900 0.642699 0.136451
C62   C     C_3   0.874547 0.939723 0.576249 -0.797775
H41   H     H_    0.913887 0.955025 0.640303 0.199295
H42   H     H_    0.895649 0.875136 0.545206 0.246186
H43   H     H_    0.884004 0.992787 0.521271 0.247080
O18   O     O_3   0.264396 0.082302 0.486579 -0.490307
C63   C     C_3   0.215028 0.052535 0.566898 0.102086
H44   H     H_    0.226213 0.095931 0.630284 0.124215
H45   H     H_    0.229186 0.983298 0.591051 0.090616
C64   C     C_3   0.121647 0.056463 0.540976 -0.750781
H46   H     H_    0.108108 0.008388 0.482218 0.268315
H47   H     H_    0.082454 0.038915 0.605366 0.180988
H48   H     H_    0.104060 0.124195 0.515981 0.245985
C65   C     C_2   0.733117 0.095435 0.486878 0.342763
H49   H     H_    0.772372 0.069972 0.428142 0.106753
O19   O     O_2   0.758577 0.157712 0.534898 -0.590182
C66   C     C_2   0.273894 0.902236 0.428546 0.364747
H50   H     H_    0.256042 0.837102 0.455422 0.052174
O20   O     O_2   0.230417 0.936837 0.366141 -0.508146
O21   O     O_3   0.628551 0.417721 0.742271 -0.567621
C67   C     C_3   0.620304 0.325621 0.761004 0.015873
H51   H     H_    0.560792 0.299732 0.729742 0.167303
H52   H     H_    0.620378 0.309962 0.839894 0.136280
C68   C     C_3   0.694910 0.277191 0.714589 -0.672991
H53   H     H_    0.754147 0.294549 0.752681 0.246774
H54   H     H_    0.685265 0.204125 0.719064 0.207294
H55   H     H_    0.701394 0.297326 0.637480 0.277147
O22   O     O_3   0.416443 0.630341 0.238916 -0.571744
C69   C     C_3   0.336751 0.636092 0.285625 0.126089
H56   H     H_    0.346521 0.649257 0.363496 0.159045
H57   H     H_    0.297856 0.575277 0.281220 0.180445
C70   C     C_3   0.288249 0.716176 0.246789 -0.815445
H58   H     H_    0.224369 0.719013 0.280843 0.229104
H59   H     H_    0.322597 0.778330 0.264330 0.267812
H60   H     H_    0.281727 0.712202 0.167026 0.235830
O23   O     O_3   0.367842 0.576904 0.744899 -0.543840
C71   C     C_3   0.373003 0.670659 0.751468 0.085223
H61   H     H_    0.437836 0.695260 0.734856 0.131425
H62   H     H_    0.354675 0.693979 0.825165 0.124633
C72   C     C_3   0.312193 0.712182 0.679269 -0.762101
H63   H     H_    0.246183 0.692976 0.697644 0.252655
H64   H     H_    0.317377 0.785863 0.681303 0.181321
H65   H     H_    0.327467 0.688799 0.604831 0.236975
O24   O     O_3   0.621511 0.405748 0.256738 -0.544629
C73   C     C_3   0.633966 0.320375 0.214313 0.048319
H66   H     H_    0.696417 0.318408 0.176984 0.167770
H67   H     H_    0.584085 0.301054 0.161683 0.130363
C74   C     C_3   0.636086 0.249521 0.292550 -0.746532
H68   H     H_    0.571041 0.238390 0.320200 0.253926
H69   H     H_    0.660079 0.185849 0.261813 0.195792
H70   H     H_    0.678258 0.270374 0.352178 0.261928

loop_
_geom_bond_atom_site_label_1
_geom_bond_atom_site_label_2
_ccdc_geom_bond_type
C71   H62   S    
O13   C53   S    
C5    O15   S    
O24   C73   S    
C74   H69   S    
C6    O16   S    
C36   C42   S    
O14   C55   S    
Cu2   N2    S    
C20   N2    A    
C64   H48   S    
C63   H44   S    
C68   H55   S    
C57   H30   S    
C72   H63   S    
C65   H49   S    
C39   C41   S    
C4    C46   A    
C20   O24   S    
C33   C39   S    
C34   C40   S    
C33   C42   S    
C40   O13   S    
C19   C21   A    
C1    O3    A    
C29   H3    S    
C2    O4    A    
C62   H42   S    
C15   C65   S    
C60   H36   S    
C55   C56   S    
C17   O21   S    
C74   H68   S    
C57   H29   S    
C30   H4    S    
O15   C57   S    
C71   C72   S    
C68   H54   S    
Cu1   O4    S    
O23   C71   S    
Cu1   Cu2   S    
C48   H8    S    
C47   O9    D    
C69   C70   S    
C55   H25   S    
C35   H1    S    
C24   C38   S    
C58   H31   S    
C53   C54   S    
C14   C16   A    
C70   H59   S    
C18   O22   S    
C9    C10   A    
C17   N1    A    
C61   C62   S    
C18   N2    A    
C32   C48   S    
C23   O7    A    
C45   H5    S    
C24   O8    A    
C65   O19   D    
C73   H67   S    
C58   H32   S    
C67   C68   S    
C34   C41   S    
C42   C44   S    
C49   C50   S    
C59   H35   S    
C59   H34   S    
C72   H64   S    
C61   H40   S    
C68   H53   S    
C28   C31   A    
C19   O23   S    
C62   H41   S    
C18   C28   A    
C49   H10   S    
C54   H21   S    
C5    C7    A    
C31   C47   S    
C51   H14   S    
Cu2   O7    S    
C6    C8    A    
C60   H37   S    
C25   C26   A    
C23   C37   S    
C21   C29   A    
C3    C45   A    
C14   O18   S    
C62   H43   S    
C17   C27   A    
C37   C43   T    
C50   H11   S    
C38   C44   T    
C1    O1    A    
C34   O12   S    
C54   H22   S    
C9    C11   A    
C11   C16   A    
Cu2   O6    S    
C52   H16   S    
C12   C15   A    
C7    C13   A    
C60   H38   S    
C55   H24   S    
C46   H6    S    
C52   H18   S    
C70   H60   S    
C50   H12   S    
C39   O14   S    
C10   C12   A    
C12   C46   A    
C56   H27   S    
C20   C22   A    
C13   C15   A    
C73   H66   S    
C58   H33   S    
C69   H57   S    
C11   C45   A    
C4    C6    A    
C64   H46   S    
C63   C64   S    
C3    C5    A    
Cu1   O8    S    
C72   H65   S    
C36   H2    S    
C61   H39   S    
Cu2   O3    S    
Cu1   N1    S    
C13   O17   S    
C19   N1    A    
C7    C9    A    
C21   C25   A    
C8    C14   A    
C22   C30   A    
O16   C59   S    
C52   H17   S    
C27   C32   A    
C67   H51   S    
C36   C39   S    
C16   C66   S    
C41   C43   S    
C53   H20   S    
C49   H9    S    
C64   H47   S    
C63   H45   S    
Cu1   O5    S    
O17   C61   S    
C2    O2    A    
Cu2   O2    S    
C66   O20   D    
C25   C27   A    
C26   C28   A    
C69   H56   S    
C56   H26   S    
C1    C4    S    
C2    C3    S    
O11   C49   S    
C29   C31   A    
O21   C67   S    
C54   H23   S    
C30   C32   A    
C71   H61   S    
C40   C42   S    
C51   C52   S    
C33   C35   S    
C51   H15   S    
C35   C40   S    
C34   C36   S    
C57   C58   S    
C35   C41   S    
C50   H13   S    
C66   H50   S    
C33   O11   S    
O12   C51   S    
C23   O5    A    
C56   H28   S    
C53   H19   S    
C73   C74   S    
C8    C10   A    
C47   H7    S    
C22   C26   A    
Cu1   O1    S    
C48   O10   D    
C24   O6    A    
C74   H70   S    
C70   H58   S    
O22   C69   S    
C59   C60   S    
C67   H52   S    
O18   C63   S    
