data_mof_unit_51012.cif
_audit_creation_date              2012-12-10T16:59:59-0500
_audit_creation_method            fapswitch 2.2
_symmetry_space_group_name_H-M    P1
_symmetry_Int_Tables_number       1
_space_group_crystal_system       triclinic
_cell_length_a                    23.508126
_cell_length_b                    10.905789
_cell_length_c                    9.672479
_cell_angle_alpha                 90.051827
_cell_angle_beta                  89.805036
_cell_angle_gamma                 90.206028
_cell_volume                      2479.74715812

loop_
_atom_site_label
_atom_site_type_symbol
_atom_type_description
_atom_site_fract_x
_atom_site_fract_y
_atom_site_fract_z
_atom_type_partial_charge
C1    C     C_R   0.503742 0.265578 0.499796 0.826686
C2    C     C_R   0.970137 0.280255 0.523534 -0.183787
C3    C     C_R   0.029277 0.279890 0.523636 -0.169380
C4    C     C_R   0.059721 0.390237 0.513052 -0.022075
C5    C     C_R   0.030052 0.502182 0.502416 -0.021675
C6    C     C_R   0.060625 0.612615 0.493199 -0.043577
C7    C     C_R   0.031359 0.723444 0.481411 -0.191509
C8    C     C_R   0.971686 0.727717 0.478611 0.082368
C9    C     C_R   0.119402 0.391546 0.512936 0.589105
C10   C     C_R   0.120334 0.609709 0.494760 0.512136
C11   C     C_R   0.238862 0.459598 0.382488 0.511163
C12   C     C_R   0.390985 0.499700 0.500213 0.828126
C13   C     C_R   0.298574 0.457835 0.384175 -0.314302
C14   C     C_R   0.328533 0.499867 0.500357 -0.083941
C15   C     C_R   0.298468 0.541577 0.616578 -0.241513
C16   C     C_R   0.239268 0.541362 0.616688 -0.186868
C17   C     C_R   0.209330 0.499634 0.500850 0.284044
C18   C     C_R   0.760913 0.476365 0.622720 -0.111755
C19   C     C_R   0.701615 0.477170 0.622843 -0.233182
C20   C     C_R   0.671691 0.497803 0.499467 -0.038163
C21   C     C_R   0.702138 0.516713 0.375954 -0.213992
C22   C     C_R   0.761446 0.516573 0.376289 -0.114592
C23   C     C_R   0.497966 0.734667 0.500156 0.860842
C24   C     C_R   0.790950 0.496695 0.499648 0.376809
C25   C     C_2   0.502102 0.933527 0.388857 -0.168207
C26   C     C_2   0.492294 0.866443 0.501867 -0.345069
C27   C     C_2   0.497433 0.066725 0.394694 -0.184109
C28   C     C_2   0.518454 0.136051 0.498436 -0.034980
C29   C     C_2   0.467057 0.427708 0.921297 0.530990
C30   C     C_2   0.473416 0.418166 0.077717 -0.194082
C31   C     C_R   0.609096 0.499667 0.499766 0.775386
C32   C     C_R   0.879447 0.609743 0.491075 0.514626
C33   C     C_R   0.880687 0.391277 0.510668 0.524807
C34   C     C_R   0.940096 0.390874 0.511950 0.003371
C35   C     C_R   0.969908 0.503263 0.501297 -0.039757
C36   C     C_R   0.939842 0.615742 0.489806 -0.046280
Cu1   Cu    Cu3+1 0.500010 0.500020 0.638630 0.968247
Cu2   Cu    Cu3+1 0.499990 0.499980 0.361370 0.935682
H1    H     H_    0.948029 0.193338 0.532812 0.178459
H2    H     H_    0.679263 0.461427 0.719326 0.158723
H3    H     H_    0.680199 0.532808 0.279429 0.158176
H4    H     H_    0.784564 0.532290 0.280877 0.131040
H5    H     H_    0.510076 0.890754 0.289232 0.173623
H6    H     H_    0.480867 0.909854 0.599261 0.159630
H7    H     H_    0.473037 0.108756 0.312150 0.147211
H8    H     H_    0.530715 0.548512 0.895089 0.144500
H9    H     H_    0.453428 0.341254 0.129708 0.169246
H10   H     H_    0.051007 0.192823 0.532271 0.184691
H11   H     H_    0.514444 0.576576 0.105793 0.185240
H12   H     H_    0.055338 0.808144 0.472268 0.187915
H13   H     H_    0.321512 0.421399 0.296076 0.150426
H14   H     H_    0.320713 0.574978 0.707058 0.157313
H15   H     H_    0.216478 0.573365 0.707098 0.156710
H16   H     H_    0.783598 0.460961 0.718352 0.134579
N1    N     N_R   0.851918 0.499204 0.500304 -0.464619
N2    N     N_R   0.148335 0.500207 0.502908 -0.453461
N3    N     N_2   0.499380 0.498660 0.846910 -0.309686
N4    N     N_2   0.499370 0.498630 0.153040 -0.299187
O1    O     O_R   0.500010 0.321960 0.617040 -0.531845
O2    O     O_2   0.851651 0.284487 0.519105 -0.554542
O3    O     O_2   0.148340 0.285324 0.523448 -0.519946
O4    O     O_2   0.150256 0.715372 0.487213 -0.552031
O5    O     O_R   0.499990 0.321920 0.382900 -0.589619
O6    O     O_R   0.417890 0.499980 0.617100 -0.549383
O7    O     O_R   0.417870 0.499940 0.382950 -0.578269
O8    O     O_R   0.500010 0.678080 0.617100 -0.584149
O9    O     O_R   0.499990 0.678040 0.382960 -0.575178
O10   O     O_R   0.582130 0.500060 0.617050 -0.593642
O11   O     O_R   0.582110 0.500020 0.382900 -0.571265
O12   O     O_2   0.847824 0.712233 0.484842 -0.558819
C37   C     C_3   0.561161 0.090517 0.605506 -0.404327
C38   C     C_3   0.616251 0.166944 0.603255 -0.358596
C39   C     C_3   0.660971 0.113880 0.700068 -0.811936
H17   H     H_    0.644458 0.111083 0.807767 0.249907
H18   H     H_    0.672773 0.019757 0.666977 0.259932
H19   H     H_    0.699699 0.172492 0.697503 0.257713
H20   H     H_    0.633896 0.169631 0.496474 0.227242
H21   H     H_    0.607343 0.262155 0.636878 0.230674
H22   H     H_    0.541387 0.095675 0.709894 0.205551
H23   H     H_    0.573925 0.994343 0.586671 0.226876
O13   O     O_3   0.430627 0.348308 0.851997 -0.565009
C40   C     C_3   0.375372 0.346465 0.910999 0.030450
H24   H     H_    0.344827 0.372072 0.828705 0.177332
H25   H     H_    0.368563 0.413278 0.996934 0.105222
C41   C     C_3   0.361074 0.216338 0.959186 -0.367976
H26   H     H_    0.364290 0.152418 0.869919 0.236198
H27   H     H_    0.392033 0.186721 0.038827 0.206099
C42   C     C_3   0.301129 0.208814 0.019610 -0.866114
H28   H     H_    0.297682 0.268043 0.112582 0.261077
H29   H     H_    0.291632 0.112798 0.050274 0.266108
H30   H     H_    0.269306 0.238203 0.941840 0.257010
C43   C     C_3   0.945543 0.853995 0.460366 -0.340772
C44   C     C_3   0.926401 0.874049 0.310437 -0.326485
C45   C     C_3   0.897638 0.998289 0.293235 -0.770848
H31   H     H_    0.859939 0.005047 0.362353 0.282195
H32   H     H_    0.927942 0.073476 0.317755 0.248199
H33   H     H_    0.883423 0.009166 0.184597 0.237799
H34   H     H_    0.964128 0.870226 0.240922 0.209645
H35   H     H_    0.896431 0.800943 0.277321 0.249750
H36   H     H_    0.910875 0.869896 0.536130 0.243223
H37   H     H_    0.977264 0.926711 0.485120 0.165498
O14   O     O_3   0.208679 0.410010 0.272836 -0.593350
C46   C     C_3   0.216388 0.480818 0.151531 0.011049
H38   H     H_    0.205724 0.420996 0.062200 0.186197
H39   H     H_    0.261141 0.511490 0.135055 0.119568
C47   C     C_3   0.176178 0.591152 0.151016 -0.337813
H40   H     H_    0.132210 0.560204 0.175911 0.234350
H41   H     H_    0.189951 0.657958 0.230984 0.242086
C48   C     C_3   0.176141 0.654864 0.010639 -0.889760
H42   H     H_    0.219825 0.685369 0.982667 0.253318
H43   H     H_    0.148021 0.736372 0.014992 0.268366
H44   H     H_    0.159904 0.591572 0.929729 0.250921

loop_
_geom_bond_atom_site_label_1
_geom_bond_atom_site_label_2
_ccdc_geom_bond_type
C33   N1    A    
C44   C45   S    
C39   H17   S    
C19   C20   A    
C25   H5    S    
C37   H22   S    
O13   C40   S    
C26   H6    S    
C7    C8    A    
C41   H26   S    
C24   N1    S    
C38   H20   S    
C18   C24   A    
C32   C36   A    
C23   O8    A    
Cu1   Cu2   S    
C18   C19   A    
C1    O1    A    
C5    C6    A    
C12   O6    A    
C47   H40   S    
C15   C16   A    
Cu1   O10   S    
C30   N4    D    
C3    H10   S    
C34   C35   A    
C8    C36   A    
C23   C26   S    
C23   O9    A    
C16   H15   S    
C38   H21   S    
C13   H13   S    
C2    H1    S    
C35   C36   A    
C16   C17   A    
C1    C28   S    
C42   H30   S    
C8    C43   S    
C11   O14   S    
C10   N2    A    
C44   H35   S    
C32   N1    A    
C2    C34   A    
Cu2   O11   S    
Cu2   N4    S    
C21   C22   A    
C39   H18   S    
C10   O4    S    
C1    O5    A    
C37   H23   S    
C41   H27   S    
C31   O10   A    
C30   H9    S    
C48   H44   S    
C38   C39   S    
C32   O12   S    
C45   H33   S    
C25   C26   D    
H11   N4    S    
C29   O13   S    
C29   C30   S    
Cu2   O7    S    
Cu1   O8    S    
C20   C21   A    
C33   C34   A    
C45   H31   S    
C46   H39   S    
C9    N2    A    
C15   H14   S    
C42   H28   S    
C45   H32   S    
C17   N2    S    
Cu1   O1    S    
C43   H37   S    
C21   H3    S    
C42   H29   S    
C33   O2    S    
C40   H25   S    
H8    N3    S    
C39   H19   S    
C9    O3    S    
C28   C37   S    
C3    C4    A    
C46   H38   S    
Cu1   O6    S    
C43   H36   S    
Cu2   O5    S    
C41   C42   S    
C11   C17   A    
C7    H12   S    
C29   N3    D    
C4    C5    A    
C6    C10   A    
C6    C7    A    
C25   C27   S    
C40   C41   S    
C12   O7    A    
C48   H43   S    
C2    C3    A    
C12   C14   S    
C37   C38   S    
C48   H42   S    
C11   C13   A    
C27   H7    S    
C22   H4    S    
C47   H41   S    
C5    C35   A    
C43   C44   S    
C46   C47   S    
C22   C24   A    
O14   C46   S    
C19   H2    S    
C18   H16   S    
C31   O11   A    
Cu2   O9    S    
C40   H24   S    
C27   C28   D    
C14   C15   A    
C4    C9    A    
C13   C14   A    
C44   H34   S    
C20   C31   S    
Cu1   N3    S    
C47   C48   S    
