data_mof_unit_29431.cif
_audit_creation_date              2012-12-10T18:11:43-0500
_audit_creation_method            fapswitch 2.2
_symmetry_space_group_name_H-M    P1
_symmetry_Int_Tables_number       1
_space_group_crystal_system       triclinic
_cell_length_a                    10.526674
_cell_length_b                    12.655602
_cell_length_c                    13.070651
_cell_angle_alpha                 82.732891
_cell_angle_beta                  91.310874
_cell_angle_gamma                 102.455717
_cell_volume                      1686.6299967

loop_
_atom_site_label
_atom_site_type_symbol
_atom_type_description
_atom_site_fract_x
_atom_site_fract_y
_atom_site_fract_z
_atom_type_partial_charge
C1    C     C_R   0.490935 0.439457 0.691630 0.876833
C2    C     C_3   0.069465 0.599658 0.514620 -0.138437
C3    C     C_3   0.970507 0.522867 0.589352 0.233655
C4    C     C_3   0.878182 0.501134 0.499461 0.015902
C5    C     C_R   0.696595 0.704120 0.069766 -0.209985
C6    C     C_R   0.549198 0.594669 0.200474 -0.054212
C7    C     C_R   0.418210 0.298334 0.839000 -0.255393
C8    C     C_R   0.414799 0.259670 0.944091 0.257792
C9    C     C_R   0.480082 0.328570 0.014567 0.164773
C10   C     C_R   0.539143 0.439018 0.977478 0.021412
C11   C     C_R   0.565216 0.467083 0.871458 0.050351
C12   C     C_R   0.742410 0.500526 0.500436 0.864328
C13   C     C_R   0.571102 0.524165 0.040237 0.100292
C14   C     C_R   0.660815 0.622109 0.005144 0.183084
C15   C     C_R   0.710661 0.636909 0.905459 -0.252391
C16   C     C_R   0.660580 0.561457 0.838488 -0.186835
C17   C     C_R   0.506494 0.518291 0.132833 -0.265411
C18   C     C_R   0.643233 0.689090 0.168660 -0.195580
C19   C     C_R   0.494404 0.400583 0.801899 -0.168398
C20   C     C_R   0.310994 0.083444 0.351861 -0.292272
C21   C     C_R   0.658640 0.801646 0.627371 0.036968
C22   C     C_R   0.694367 0.906970 0.653496 -0.254730
C23   C     C_R   0.516222 0.560423 0.308568 0.847469
C24   C     C_R   0.635880 0.987905 0.603820 -0.178745
C25   C     C_R   0.541694 0.963654 0.526591 0.026252
C26   C     C_R   0.509121 0.854694 0.503046 0.177060
C27   C     C_R   0.477594 0.042167 0.473152 -0.061711
C28   C     C_R   0.381028 0.008911 0.398749 0.118171
C29   C     C_R   0.353524 0.901027 0.374334 0.150298
C30   C     C_R   0.418839 0.826543 0.426231 -0.222165
C31   C     C_R   0.503795 0.152526 0.491703 -0.083979
C32   C     C_R   0.334021 0.188579 0.378166 0.338327
C33   C     C_R   0.258030 0.500051 0.497806 0.864619
C34   C     C_3   0.932552 0.401839 0.480652 -0.176530
C35   C     C_3   0.026236 0.423907 0.572024 -0.183968
C36   C     C_3   0.123020 0.500148 0.496259 -0.013273
C37   C     C_3   0.032409 0.478079 0.404755 -0.182922
C38   C     C_3   0.975561 0.577136 0.423395 -0.215083
H1    H     H_    0.050896 0.361827 0.632623 0.137325
H2    H     H_    0.425302 0.451433 0.155287 0.164701
H3    H     H_    0.363211 0.247424 0.785440 0.171606
H4    H     H_    0.698061 0.576994 0.761083 0.163532
H5    H     H_    0.234201 0.059527 0.297622 0.163020
H6    H     H_    0.578112 0.185002 0.544111 0.134533
H7    H     H_    0.873748 0.320933 0.466736 0.152592
H8    H     H_    0.666400 0.068025 0.627417 0.134321
H9    H     H_    0.128221 0.680553 0.528705 0.158607
H10   H     H_    0.782161 0.709538 0.877394 0.138947
H11   H     H_    0.767435 0.778198 0.044707 0.136331
N1    N     N_R   0.432930 0.222190 0.444670 -0.096899
N2    N     N_R   0.566370 0.776980 0.554790 -0.123695
O1    O     O_R   0.467970 0.366730 0.627150 -0.612912
O2    O     O_R   0.510820 0.544830 0.662520 -0.610190
O3    O     O_R   0.664630 0.410960 0.482340 -0.624793
O4    O     O_R   0.707470 0.589060 0.517710 -0.626040
O5    O     O_R   0.489180 0.455170 0.337480 -0.615894
O6    O     O_R   0.532030 0.633270 0.372850 -0.637713
O7    O     O_R   0.292530 0.410940 0.482290 -0.617970
O8    O     O_R   0.335370 0.589040 0.517660 -0.638340
Zn1   Zn    Zn3+2 0.471390 0.381080 0.476380 0.930767
Zn2   Zn    Zn3+2 0.528610 0.618920 0.523620 0.924732
C39   C     C_3   0.500926 0.278714 0.123641 -0.912333
H12   H     H_    0.574464 0.333122 0.166106 0.256072
H13   H     H_    0.407387 0.256772 0.166323 0.250767
H14   H     H_    0.539525 0.203966 0.122143 0.246490
C40   C     C_3   0.339796 0.145633 0.979749 -0.920843
H15   H     H_    0.287547 0.106043 0.915127 0.233634
H16   H     H_    0.406946 0.094095 0.013449 0.246490
H17   H     H_    0.266444 0.148308 0.038550 0.241163
C41   C     C_3   0.241204 0.258913 0.336913 -0.870004
H18   H     H_    0.292047 0.340953 0.303884 0.260778
H19   H     H_    0.180448 0.224049 0.273618 0.191374
H20   H     H_    0.172831 0.262825 0.398840 0.252722
C42   C     C_3   0.254007 0.862362 0.294214 -0.944141
H21   H     H_    0.247768 0.775490 0.284210 0.238712
H22   H     H_    0.156066 0.869880 0.317984 0.240702
H23   H     H_    0.280715 0.911692 0.218312 0.248506
H24   H     H_    0.705986 0.739488 0.664076 0.119171
H25   H     H_    0.767529 0.925896 0.711855 0.143688
H26   H     H_    0.396685 0.745833 0.405698 0.219218
H27   H     H_    0.062723 0.459520 0.329389 0.140378
H28   H     H_    0.951026 0.639524 0.363070 0.145521
C43   C     C_3   0.937799 0.548497 0.694562 -0.960599
H29   H     H_    0.026005 0.557276 0.743587 0.254057
H30   H     H_    0.903834 0.626232 0.685705 0.239473
H31   H     H_    0.861355 0.480851 0.731595 0.238095
H32   H     H_    0.678380 0.748761 0.220965 0.158775

loop_
_geom_bond_atom_site_label_1
_geom_bond_atom_site_label_2
_ccdc_geom_bond_type
C40   H16   S    
C8    C40   S    
C33   O7    A    
C34   C37   S    
C35   C36   S    
N2    Zn2   S    
C5    H11   S    
C7    C8    A    
O3    Zn1   S    
C11   C19   A    
C37   C38   S    
C42   H22   S    
C36   C37   S    
C22   H25   S    
C40   H17   S    
O7    Zn1   S    
C15   C16   A    
C33   C36   S    
C34   C35   S    
C1    O2    A    
C39   H13   S    
O1    Zn1   S    
O2    Zn2   S    
C39   H12   S    
C8    C9    A    
C42   H23   S    
C21   H24   S    
C41   H18   S    
C4    C12   S    
C9    C10   A    
C30   H26   S    
C40   H15   S    
C33   O8    A    
C13   C14   A    
C38   H28   S    
C37   H27   S    
C15   H10   S    
C6    C18   A    
C4    C34   S    
O8    Zn2   S    
C1    C19   S    
C31   H6    S    
C27   C31   A    
C9    C39   S    
C23   O5    A    
C24   C25   A    
C42   H21   S    
C32   C41   S    
C29   C42   S    
C20   C28   A    
C25   C26   A    
O5    Zn1   S    
C17   H2    S    
C35   H1    S    
C29   C30   A    
C11   C16   A    
C2    C38   S    
C43   H29   S    
C3    C35   S    
C41   H20   S    
C34   H7    S    
C32   N1    A    
C5    C14   A    
C43   H30   S    
C4    C38   S    
C26   C30   A    
C7    C19   A    
C3    C43   S    
C22   C24   A    
C31   N1    A    
C3    C4    S    
C16   H4    S    
C21   N2    A    
C20   H5    S    
C20   C32   A    
C2    C36   S    
C23   O6    A    
C6    C17   A    
C28   C29   A    
C39   H14   S    
C10   C13   A    
O6    Zn2   S    
C5    C18   A    
C2    H9    S    
C25   C27   A    
C18   H32   S    
C13   C17   A    
C24   H8    S    
C2    C3    S    
N1    Zn1   S    
C26   N2    A    
C6    C23   S    
O4    Zn2   S    
C7    H3    S    
C1    O1    A    
C12   O4    A    
C10   C11   A    
C43   H31   S    
C27   C28   A    
C14   C15   A    
C41   H19   S    
C21   C22   A    
C12   O3    A    
