data_mof_unit_42440.cif
_audit_creation_date              2012-12-10T18:57:43-0500
_audit_creation_method            fapswitch 2.2
_symmetry_space_group_name_H-M    P1
_symmetry_Int_Tables_number       1
_space_group_crystal_system       triclinic
_cell_length_a                    10.954726
_cell_length_b                    10.834367
_cell_length_c                    9.594923
_cell_angle_alpha                 90.146985
_cell_angle_beta                  91.506333
_cell_angle_gamma                 90.643039
_cell_volume                      1138.32773791

loop_
_atom_site_label
_atom_site_type_symbol
_atom_type_description
_atom_site_fract_x
_atom_site_fract_y
_atom_site_fract_z
_atom_type_partial_charge
C1    C     C_R   0.499874 0.262736 0.499584 0.799189
C2    C     C_R   0.504789 0.129804 0.496893 -0.089763
C3    C     C_R   0.459394 0.063984 0.380168 -0.214835
C4    C     C_R   0.456069 0.935523 0.382635 -0.230342
C5    C     C_R   0.501929 0.871361 0.499185 -0.090317
C6    C     C_R   0.557563 0.938095 0.608721 0.105448
C7    C     C_3   0.532341 0.935103 0.760774 -0.489118
C8    C     C_3   0.533845 0.074715 0.759388 -0.454765
C9    C     C_R   0.603222 0.526992 0.075577 0.264732
C10   C     C_R   0.400981 0.459989 0.071282 -0.107687
C11   C     C_R   0.399991 0.462411 0.922809 -0.077617
C12   C     C_R   0.265350 0.499872 0.497712 0.845470
C13   C     C_R   0.605853 0.518019 0.929613 0.218054
C14   C     C_3   0.693314 0.622990 0.919761 -0.520582
C15   C     C_3   0.681005 0.641999 0.076061 -0.121234
C16   C     C_R   0.498769 0.737603 0.500168 0.765766
C17   C     C_R   0.734371 0.510031 0.501302 0.819006
C18   C     C_2   0.930969 0.514522 0.392585 -0.184185
C19   C     C_2   0.863774 0.546758 0.502422 -0.086380
C20   C     C_2   0.062981 0.538206 0.386940 0.169526
C21   C     C_2   0.132973 0.490525 0.491269 -0.422447
C22   C     C_R   0.558227 0.065569 0.607745 0.120648
Cu1   Cu    Cu3+1 0.499990 0.499980 0.640670 0.928613
Cu2   Cu    Cu3+1 0.500010 0.500020 0.359330 0.922663
H1    H     H_    0.889507 0.463904 0.305255 0.146147
H2    H     H_    0.612381 0.115908 0.819493 0.193941
H3    H     H_    0.321055 0.426990 0.123662 0.132787
H4    H     H_    0.318123 0.433393 0.866104 0.142767
H5    H     H_    0.785369 0.590301 0.894625 0.165786
H6    H     H_    0.658471 0.697670 0.851840 0.225156
H7    H     H_    0.767691 0.628477 0.135399 0.139078
H8    H     H_    0.090255 0.442226 0.576840 0.142010
H9    H     H_    0.419728 0.111414 0.290923 0.159378
H10   H     H_    0.411213 0.886867 0.297277 0.164228
H11   H     H_    0.440883 0.895124 0.782237 0.209635
H12   H     H_    0.610035 0.897466 0.822664 0.203059
H13   H     H_    0.443467 0.115434 0.780836 0.204172
N1    N     N_R   0.500780 0.500930 0.147930 -0.183864
N2    N     N_R   0.500780 0.500890 0.852020 -0.181686
O1    O     O_R   0.500000 0.319640 0.618810 -0.578428
O2    O     O_R   0.500010 0.319680 0.381230 -0.581313
O3    O     O_R   0.321940 0.499980 0.618760 -0.586839
O4    O     O_R   0.321950 0.500020 0.381180 -0.592701
O5    O     O_R   0.499990 0.680320 0.618770 -0.585192
O6    O     O_R   0.500000 0.680360 0.381190 -0.588644
O7    O     O_R   0.678050 0.499980 0.618820 -0.577770
O8    O     O_R   0.678060 0.500020 0.381240 -0.595891
C23   C     C_3   0.620996 0.766770 0.109583 -0.297013
C24   C     C_3   0.487163 0.778772 0.060027 -0.802013
H14   H     H_    0.461304 0.877530 0.060510 0.218621
H15   H     H_    0.472171 0.742863 0.952845 0.252693
H16   H     H_    0.425332 0.727671 0.129434 0.265087
H17   H     H_    0.629891 0.785259 0.222756 0.216358
H18   H     H_    0.675332 0.841010 0.059853 0.181001
C25   C     C_3   0.912105 0.633372 0.617131 -0.387288
C26   C     C_3   0.842204 0.755465 0.616233 -0.341463
C27   C     C_3   0.891656 0.843790 0.728918 -0.880121
H19   H     H_    0.884450 0.801413 0.833665 0.256937
H20   H     H_    0.988760 0.867535 0.710310 0.256166
H21   H     H_    0.837856 0.930055 0.726626 0.244950
H22   H     H_    0.850591 0.800430 0.512806 0.214263
H23   H     H_    0.744009 0.738130 0.633705 0.224066
H24   H     H_    0.905181 0.585982 0.718440 0.187509
H25   H     H_    0.009703 0.657926 0.606139 0.219638
C28   C     C_3   0.115668 0.614298 0.268766 -0.316303
C29   C     C_3   0.020657 0.676445 0.174230 -0.906505
H26   H     H_    0.970514 0.605407 0.111200 0.240349
H27   H     H_    0.956435 0.731178 0.236612 0.259920
H28   H     H_    0.067227 0.739687 0.101249 0.244179
H29   H     H_    0.176107 0.687993 0.314187 0.197083
H30   H     H_    0.170310 0.554054 0.201753 0.206228

loop_
_geom_bond_atom_site_label_1
_geom_bond_atom_site_label_2
_ccdc_geom_bond_type
C10   H3    S    
C2    C22   A    
C8    C22   S    
Cu1   Cu2   S    
C15   H7    S    
C6    C7    S    
C8    H13   S    
C8    H2    S    
C7    H12   S    
C16   O5    A    
Cu2   N1    S    
C18   C19   D    
C14   C15   S    
C10   N1    A    
C24   H16   S    
C25   H25   S    
C25   C26   S    
C2    C3    A    
C9    C15   S    
C7    C8    S    
Cu1   O7    S    
C13   C14   S    
C17   O7    A    
C11   N2    A    
Cu2   O2    S    
Cu1   O3    S    
C27   H19   S    
C23   H17   S    
C18   H1    S    
C15   C23   S    
C14   H6    S    
Cu1   N2    S    
Cu2   O6    S    
C11   H4    S    
C1    O2    A    
C23   C24   S    
C17   C19   S    
C24   H14   S    
C12   O4    A    
C18   C20   S    
C28   C29   S    
C4    H10   S    
C5    C6    A    
C23   H18   S    
C21   H8    S    
C26   H23   S    
C27   H20   S    
C29   H28   S    
C13   N2    A    
C29   H27   S    
C3    H9    S    
C16   O6    A    
Cu1   O1    S    
C6    C22   A    
C17   O8    A    
C20   C28   S    
C27   H21   S    
C29   H26   S    
C20   C21   D    
C3    C4    A    
C1    C2    S    
C10   C11   A    
C19   C25   S    
C26   C27   S    
Cu2   O4    S    
C9    C13   A    
C26   H22   S    
C9    N1    A    
C5    C16   S    
C12   O3    A    
C14   H5    S    
C1    O1    A    
C28   H30   S    
Cu2   O8    S    
C7    H11   S    
C12   C21   S    
Cu1   O5    S    
C28   H29   S    
C4    C5    A    
C24   H15   S    
C25   H24   S    
