data_mof_unit_19746.cif
_audit_creation_date              2012-10-26T21:33:18-0400
_audit_creation_method            fapswitch 2.2
_symmetry_space_group_name_H-M    P1
_symmetry_Int_Tables_number       1
_space_group_crystal_system       triclinic
_cell_length_a                    28.208715
_cell_length_b                    18.443538
_cell_length_c                    17.058776
_cell_angle_alpha                 90.309221
_cell_angle_beta                  60.748833
_cell_angle_gamma                 90.462476
_cell_volume                      7743.17631745

loop_
_atom_site_label
_atom_site_type_symbol
_atom_type_description
_atom_site_fract_x
_atom_site_fract_y
_atom_site_fract_z
_atom_type_partial_charge
C1    C     C_R   0.701881 0.268845 0.675772 0.885509
C2    C     C_R   0.079585 0.498762 0.563695 0.066067
C3    C     C_R   0.189440 0.219480 0.905816 0.075232
C4    C     C_R   0.073865 0.100017 0.934277 0.912984
C5    C     C_R   0.926340 0.899634 0.065453 0.911197
C6    C     C_R   0.926193 0.099993 0.065846 0.911735
C7    C     C_R   0.074007 0.900293 0.933949 0.911036
C8    C     C_R   0.573662 0.600361 0.934540 0.911261
C9    C     C_R   0.425950 0.400207 0.065949 0.913665
C10   C     C_R   0.426079 0.599832 0.065970 0.910581
C11   C     C_R   0.573840 0.400041 0.934128 0.912196
C12   C     C_R   0.524082 0.121367 0.575631 0.116112
C13   C     C_R   0.406180 0.998636 0.480992 0.066484
C14   C     C_R   0.476291 0.878824 0.422877 0.108989
C15   C     C_R   0.428681 0.118101 0.561677 0.105602
C16   C     C_R   0.571584 0.881931 0.437309 0.113589
C17   C     C_R   0.021896 0.627620 0.584915 0.100990
C18   C     C_R   0.959376 0.370797 0.480313 0.114502
C19   C     C_R   0.927904 0.624859 0.566098 0.108110
C20   C     C_R   0.037511 0.367661 0.536772 0.107794
C21   C     C_R   0.488210 0.180124 0.605958 -0.194994
C22   C     C_R   0.512822 0.820782 0.390498 -0.233764
C23   C     C_R   0.440372 0.177965 0.600627 -0.206836
C24   C     C_R   0.593840 0.001202 0.518704 0.067543
C25   C     C_R   0.560418 0.822700 0.396707 -0.218338
C26   C     C_R   0.989958 0.689992 0.602987 -0.227943
C27   C     C_R   0.983997 0.305152 0.480868 -0.217257
C28   C     C_R   0.942587 0.688118 0.595721 -0.222810
C29   C     C_R   0.021219 0.303131 0.512529 -0.219991
C30   C     C_R   0.464734 0.059389 0.529608 0.030059
C31   C     C_R   0.535343 0.940417 0.469903 0.032019
C32   C     C_R   0.512049 0.060543 0.537863 0.028298
C33   C     C_R   0.488037 0.939284 0.461590 0.033311
C34   C     C_R   0.959546 0.562496 0.547901 0.035969
C35   C     C_R   0.077311 0.367479 0.562447 -0.263507
C36   C     C_R   0.014515 0.433607 0.533407 0.037700
C37   C     C_R   0.005053 0.563063 0.561389 0.033190
C38   C     C_R   0.972981 0.434520 0.510477 0.032346
C39   C     C_R   0.945157 0.499021 0.517958 -0.054854
C40   C     C_R   0.032705 0.498482 0.553846 -0.054391
C41   C     C_R   0.452901 0.998979 0.490994 -0.053617
C42   C     C_R   0.547099 0.000767 0.508744 -0.054125
C43   C     C_R   0.888178 0.435644 0.467311 0.063404
C44   C     C_R   0.102199 0.565191 0.571590 0.057609
C45   C     C_R   0.104647 0.432587 0.562349 0.054899
C46   C     C_R   0.882120 0.622991 0.554556 -0.253701
C47   C     C_R   0.871359 0.562892 0.512573 0.051811
C48   C     C_R   0.392113 0.936376 0.448142 0.063634
C49   C     C_R   0.607957 0.063575 0.551359 0.062061
C50   C     C_R   0.627440 0.939799 0.493990 0.048705
C51   C     C_R   0.372583 0.060054 0.505753 0.048524
C52   C     C_R   0.840739 0.435928 0.457164 -0.120768
C53   C     C_R   0.155736 0.564986 0.560890 -0.118393
C54   C     C_R   0.156703 0.434416 0.557354 -0.118250
C55   C     C_R   0.831053 0.563100 0.484607 -0.104102
C56   C     C_R   0.341508 0.935681 0.448722 -0.123852
C57   C     C_R   0.920575 0.373307 0.452080 -0.251772
C58   C     C_R   0.658520 0.064274 0.550959 -0.125339
C59   C     C_R   0.669179 0.937993 0.518012 -0.109247
C60   C     C_R   0.330831 0.061940 0.481804 -0.109361
C61   C     C_R   0.816773 0.500297 0.457270 -0.315926
C62   C     C_R   0.180195 0.499930 0.559495 -0.307939
C63   C     C_R   0.315592 0.999827 0.454661 -0.305732
C64   C     C_R   0.684389 0.000129 0.545164 -0.305904
C65   C     C_R   0.638369 0.200960 0.082789 0.107257
C66   C     C_R   0.601212 0.219361 0.172183 -0.175004
C67   C     C_R   0.548122 0.191888 0.213216 -0.120647
C68   C     C_R   0.070303 0.628582 0.589605 -0.265161
C69   C     C_R   0.531719 0.145759 0.165558 -0.106383
C70   C     C_R   0.568412 0.126871 0.076847 -0.137506
C71   C     C_R   0.621582 0.153967 0.035667 -0.120863
C72   C     C_R   0.363707 0.793662 0.912853 0.107923
C73   C     C_R   0.382364 0.841501 0.956515 -0.129799
C74   C     C_R   0.436423 0.865308 0.913188 -0.144462
C75   C     C_R   0.472195 0.841982 0.825887 -0.100520
C76   C     C_R   0.453944 0.794892 0.781697 -0.120986
C77   C     C_R   0.399923 0.770891 0.824791 -0.175541
C78   C     C_R   0.360464 0.200059 0.921685 0.116597
C79   C     C_R   0.618098 0.883072 0.446694 -0.251776
C80   C     C_R   0.404503 0.238929 0.854772 -0.170673
C81   C     C_R   0.457572 0.214361 0.823295 -0.123007
C82   C     C_R   0.466786 0.149628 0.855784 -0.099376
C83   C     C_R   0.422977 0.109990 0.921193 -0.132630
C84   C     C_R   0.369964 0.135410 0.954722 -0.130111
C85   C     C_R   0.653843 0.834874 0.046613 0.113432
C86   C     C_R   0.651487 0.877928 0.980814 -0.124616
C87   C     C_R   0.606388 0.921708 0.003207 -0.141378
C88   C     C_R   0.563436 0.923173 0.091395 -0.109128
C89   C     C_R   0.565615 0.881087 0.157372 -0.119913
C90   C     C_R   0.382036 0.116836 0.552785 -0.249058
C91   C     C_R   0.610677 0.837233 0.135365 -0.166630
C92   C     C_R   0.136678 0.708961 0.087326 0.106401
C93   C     C_R   0.100786 0.732951 0.174970 -0.175653
C94   C     C_R   0.046374 0.710619 0.218263 -0.120903
C95   C     C_R   0.027405 0.664000 0.174687 -0.102190
C96   C     C_R   0.062862 0.639411 0.087845 -0.139945
C97   C     C_R   0.117316 0.661519 0.044338 -0.127453
C98   C     C_R   0.862635 0.297833 0.915071 0.105195
C99   C     C_R   0.880361 0.345435 0.960291 -0.120431
C100  C     C_R   0.933890 0.371350 0.917592 -0.137251
C101  C     C_R   0.428432 0.877451 0.416865 -0.261480
C102  C     C_R   0.970030 0.350425 0.829385 -0.109687
C103  C     C_R   0.952717 0.303402 0.783812 -0.119762
C104  C     C_R   0.899246 0.277341 0.826216 -0.171726
C105  C     C_R   0.846370 0.665455 0.952645 0.112484
C106  C     C_R   0.889050 0.662719 0.863485 -0.167512
C107  C     C_R   0.934135 0.618762 0.840798 -0.118682
C108  C     C_R   0.936868 0.576946 0.906470 -0.109641
C109  C     C_R   0.894424 0.578800 0.995073 -0.142643
C110  C     C_R   0.849272 0.622674 0.018163 -0.124293
C111  C     C_R   0.137660 0.295950 0.084198 0.106056
C112  C     C_R   0.298185 0.731295 0.324199 0.886863
C113  C     C_R   0.571807 0.122698 0.581986 -0.252449
C114  C     C_R   0.119927 0.342878 0.039191 -0.127313
C115  C     C_R   0.066083 0.366659 0.081296 -0.138594
C116  C     C_R   0.029615 0.344217 0.168692 -0.106179
C117  C     C_R   0.046947 0.298022 0.214181 -0.119436
C118  C     C_R   0.100737 0.274079 0.172355 -0.169940
C119  C     C_R   0.719847 0.262500 0.954328 0.033924
C120  C     C_R   0.280699 0.738309 0.045135 0.035107
C121  C     C_R   0.279657 0.261967 0.046701 0.035686
C122  C     C_R   0.720845 0.737975 0.952720 0.031010
C123  C     C_R   0.219963 0.763042 0.954364 0.035694
C124  C     C_R   0.780695 0.238188 0.045015 0.034662
C125  C     C_R   0.779136 0.762063 0.047208 0.031336
C126  C     C_R   0.220263 0.238229 0.953849 0.036662
C127  C     C_R   0.774929 0.282722 0.915087 -0.236774
C128  C     C_R   0.298382 0.268224 0.324030 0.913045
C129  C     C_R   0.225040 0.720908 0.085808 -0.238291
C130  C     C_R   0.224895 0.282143 0.085412 -0.243392
C131  C     C_R   0.768700 0.699611 0.929946 -0.244047
C132  C     C_R   0.275611 0.780491 0.913711 -0.238970
C133  C     C_R   0.725616 0.217851 0.084183 -0.237085
C134  C     C_R   0.731262 0.800438 0.069977 -0.244706
C135  C     C_R   0.275150 0.217899 0.915264 -0.241510
C136  C     C_R   0.805536 0.271449 0.959139 0.019627
C137  C     C_R   0.194504 0.732354 0.041706 0.020123
C138  C     C_R   0.194883 0.270932 0.040280 0.020562
C139  C     C_R   0.701922 0.731100 0.675853 0.893560
C140  C     C_R   0.797872 0.710607 0.976593 0.019149
C141  C     C_R   0.306117 0.769238 0.957922 0.019459
C142  C     C_R   0.695091 0.228788 0.039901 0.019936
C143  C     C_R   0.702156 0.789508 0.023203 0.018735
C144  C     C_R   0.304691 0.228666 0.961096 0.012834
C145  C     C_R   0.642602 0.324869 0.947296 -0.169854
C146  C     C_R   0.357424 0.675068 0.052804 -0.169415
C147  C     C_R   0.356316 0.325423 0.054173 -0.172404
C148  C     C_R   0.642710 0.676604 0.947412 -0.177035
C149  C     C_R   0.143164 0.825995 0.946680 -0.170103
C150  C     C_R   0.201867 0.768799 0.675775 0.888609
C151  C     C_R   0.857759 0.175632 0.052374 -0.171129
C152  C     C_R   0.857282 0.823412 0.052558 -0.176604
C153  C     C_R   0.143236 0.175144 0.946614 -0.173065
C154  C     C_R   0.615948 0.346165 0.899117 -0.071821
C155  C     C_R   0.384000 0.653694 0.101024 -0.072159
C156  C     C_R   0.383735 0.346197 0.101298 -0.071875
C157  C     C_R   0.615817 0.654671 0.899563 -0.073452
C158  C     C_R   0.116288 0.846765 0.898744 -0.071886
C159  C     C_R   0.884206 0.154036 0.100761 -0.072564
C160  C     C_R   0.884177 0.845330 0.100418 -0.073422
C161  C     C_R   0.798151 0.231218 0.324192 0.890942
C162  C     C_R   0.116137 0.153944 0.899033 -0.072921
C163  C     C_R   0.632846 0.321320 0.813659 -0.271744
C164  C     C_R   0.367131 0.678564 0.186454 -0.268342
C165  C     C_R   0.367523 0.320671 0.186120 -0.264163
C166  C     C_R   0.632720 0.679037 0.814017 -0.263211
C167  C     C_R   0.133011 0.821610 0.813490 -0.268599
C168  C     C_R   0.867215 0.178745 0.186306 -0.268510
C169  C     C_R   0.867269 0.820961 0.185962 -0.263939
C170  C     C_R   0.132752 0.178860 0.813836 -0.267924
C171  C     C_R   0.679371 0.281165 0.771085 -0.050891
C172  C     C_R   0.798069 0.768918 0.324143 0.891897
C173  C     C_R   0.320809 0.719128 0.228826 -0.051085
C174  C     C_R   0.320908 0.280025 0.228834 -0.059871
C175  C     C_R   0.679737 0.718789 0.770882 -0.051361
C176  C     C_R   0.179431 0.781258 0.771035 -0.050842
C177  C     C_R   0.820776 0.219082 0.228770 -0.053656
C178  C     C_R   0.820238 0.781244 0.229107 -0.051308
C179  C     C_R   0.179528 0.219107 0.771018 -0.047172
C180  C     C_R   0.707362 0.259657 0.817224 -0.216707
C181  C     C_R   0.293088 0.741123 0.182429 -0.215400
C182  C     C_R   0.292623 0.257907 0.183025 -0.208880
C183  C     C_R   0.201810 0.231340 0.675920 0.875248
C184  C     C_R   0.708456 0.740066 0.816255 -0.224084
C185  C     C_R   0.207412 0.759758 0.817207 -0.214493
C186  C     C_R   0.792998 0.240935 0.182381 -0.216187
C187  C     C_R   0.791504 0.760000 0.183733 -0.225364
C188  C     C_R   0.207976 0.240796 0.816734 -0.222460
C189  C     C_R   0.691017 0.129679 0.536062 0.896604
C190  C     C_R   0.309001 0.870287 0.463815 0.897449
C191  C     C_R   0.303362 0.127703 0.482309 0.908405
C192  C     C_R   0.696659 0.872281 0.517603 0.908080
C193  C     C_R   0.190855 0.629603 0.536511 0.897619
C194  C     C_R   0.901993 0.499454 0.498218 0.065014
C195  C     C_R   0.808532 0.370875 0.466848 0.897409
C196  C     C_R   0.803568 0.627953 0.482233 0.909479
C197  C     C_R   0.191474 0.370694 0.534552 0.908851
C198  C     C_R   0.688750 0.280859 0.906572 0.072792
C199  C     C_R   0.311606 0.719684 0.093154 0.073533
C200  C     C_R   0.310738 0.279990 0.094402 0.088140
C201  C     C_R   0.689490 0.719811 0.905667 0.084849
C202  C     C_R   0.189044 0.781519 0.906323 0.072371
C203  C     C_R   0.811735 0.219872 0.092908 0.073273
C204  C     C_R   0.810485 0.780231 0.094295 0.084357
H1    H     H_    0.038983 0.251725 0.514345 0.134914
H2    H     H_    0.220527 0.500339 0.552440 0.197488
H3    H     H_    0.280606 0.000280 0.444264 0.195376
H4    H     H_    0.719333 0.999693 0.555677 0.195089
H5    H     H_    0.085843 0.315638 0.581349 0.176506
H6    H     H_    0.855188 0.668654 0.581000 0.180711
H7    H     H_    0.916580 0.326047 0.418036 0.166439
H8    H     H_    0.081579 0.678495 0.609873 0.172226
H9    H     H_    0.647098 0.840047 0.414635 0.174425
H10   H     H_    0.353105 0.159927 0.584849 0.174998
H11   H     H_    0.420830 0.831473 0.384732 0.161997
H12   H     H_    0.918376 0.736766 0.610590 0.136224
H13   H     H_    0.579404 0.168857 0.613867 0.157417
H14   H     H_    0.793838 0.309820 0.850492 0.153873
H15   H     H_    0.205554 0.695774 0.151611 0.153186
H16   H     H_    0.205814 0.308806 0.150398 0.153862
H17   H     H_    0.782520 0.659205 0.877018 0.154526
H18   H     H_    0.295056 0.805715 0.847960 0.152832
H19   H     H_    0.706750 0.190589 0.148666 0.152917
H20   H     H_    0.717417 0.840850 0.122899 0.154184
H21   H     H_    0.294532 0.190984 0.850433 0.151699
H22   H     H_    0.629066 0.344958 0.014710 0.153009
H23   H     H_    0.973278 0.255191 0.459434 0.131115
H24   H     H_    0.370823 0.654656 0.985571 0.153648
H25   H     H_    0.368761 0.347195 0.988048 0.148101
H26   H     H_    0.628985 0.657482 0.015150 0.148775
H27   H     H_    0.129878 0.846668 0.013767 0.154150
H28   H     H_    0.871331 0.155540 0.984951 0.152971
H29   H     H_    0.871021 0.842530 0.984814 0.148880
H30   H     H_    0.129904 0.154855 0.013748 0.153085
H31   H     H_    0.611945 0.337953 0.777675 0.173990
H32   H     H_    0.387884 0.661659 0.222573 0.175701
H33   H     H_    0.388833 0.337364 0.221734 0.177033
H34   H     H_    0.001443 0.740011 0.623071 0.140292
H35   H     H_    0.611469 0.662262 0.778334 0.176767
H36   H     H_    0.112035 0.838091 0.777574 0.175362
H37   H     H_    0.887952 0.161834 0.222447 0.175990
H38   H     H_    0.888530 0.837712 0.221638 0.176606
H39   H     H_    0.111479 0.162173 0.778156 0.176054
H40   H     H_    0.744232 0.228069 0.783387 0.154990
H41   H     H_    0.256460 0.773200 0.216074 0.154332
H42   H     H_    0.255792 0.225645 0.216705 0.152864
H43   H     H_    0.746016 0.770793 0.781983 0.151052
H44   H     H_    0.244089 0.727779 0.783531 0.154810
H45   H     H_    0.588082 0.777310 0.371006 0.135581
H46   H     H_    0.756173 0.272615 0.216144 0.154924
H47   H     H_    0.753933 0.729298 0.218015 0.151212
H48   H     H_    0.245034 0.272582 0.782846 0.152985
H49   H     H_    0.613274 0.255216 0.209912 0.126392
H50   H     H_    0.519693 0.206328 0.282019 0.135632
H51   H     H_    0.490631 0.124506 0.197442 0.125498
H52   H     H_    0.555743 0.090934 0.040073 0.117601
H53   H     H_    0.649748 0.137783 0.967386 0.126169
H54   H     H_    0.354978 0.860837 0.023722 0.126638
H55   H     H_    0.450520 0.902113 0.947172 0.120605
H56   H     H_    0.413163 0.223898 0.625012 0.134805
H57   H     H_    0.514004 0.860560 0.792379 0.128160
H58   H     H_    0.481659 0.777032 0.713974 0.135242
H59   H     H_    0.386406 0.734261 0.789759 0.126457
H60   H     H_    0.397836 0.289215 0.829214 0.117424
H61   H     H_    0.491645 0.245724 0.774158 0.113563
H62   H     H_    0.507875 0.130457 0.830681 0.118187
H63   H     H_    0.430135 0.060020 0.946651 0.120792
H64   H     H_    0.336367 0.105066 0.006713 0.124042
H65   H     H_    0.684830 0.878306 0.912475 0.124175
H66   H     H_    0.604855 0.954764 0.952265 0.119655
H67   H     H_    0.504756 0.774107 0.359864 0.140151
H68   H     H_    0.528531 0.957080 0.108713 0.117174
H69   H     H_    0.532312 0.882590 0.225507 0.142909
H70   H     H_    0.611795 0.804852 0.187204 0.129334
H71   H     H_    0.114832 0.769375 0.209438 0.126292
H72   H     H_    0.018896 0.729481 0.285621 0.134711
H73   H     H_    0.985277 0.646782 0.208308 0.128421
H74   H     H_    0.048194 0.603006 0.054322 0.123789
H75   H     H_    0.144414 0.641353 0.977424 0.128010
H76   H     H_    0.852648 0.363036 0.028174 0.126336
H77   H     H_    0.947280 0.407895 0.952815 0.116520
H78   H     H_    0.497339 0.228064 0.633040 0.131078
H79   H     H_    0.011408 0.370688 0.796309 0.123651
H80   H     H_    0.980720 0.287049 0.715628 0.131538
H81   H     H_    0.886464 0.240895 0.789987 0.126478
H82   H     H_    0.887518 0.694797 0.811775 0.132980
H83   H     H_    0.966994 0.616963 0.772353 0.145577
H84   H     H_    0.971797 0.542935 0.888591 0.117894
H85   H     H_    0.896367 0.545927 0.045788 0.120006
H86   H     H_    0.816281 0.622481 0.086796 0.124650
H87   H     H_    0.147835 0.361421 0.971837 0.127898
H88   H     H_    0.052677 0.402704 0.046251 0.121024
H89   H     H_    0.783806 0.500588 0.441672 0.192615
H90   H     H_    0.987968 0.362723 0.201247 0.121113
H91   H     H_    0.018676 0.280687 0.281838 0.124431
H92   H     H_    0.113487 0.238048 0.208389 0.125170
O1    O     O_R   0.746490 0.236330 0.638080 -0.636436
O2    O     O_R   0.325830 0.813840 0.483730 -0.628301
O3    O     O_R   0.325830 0.186160 0.483730 -0.642740
O4    O     O_R   0.674170 0.813840 0.516270 -0.641554
O5    O     O_R   0.174170 0.686160 0.516270 -0.631718
O6    O     O_R   0.825830 0.313840 0.483730 -0.637829
O7    O     O_R   0.825830 0.686160 0.483730 -0.646327
O8    O     O_R   0.174170 0.313840 0.516270 -0.641985
O9    O     O_R   0.739960 0.127620 0.525000 -0.624995
O10   O     O_R   0.260040 0.872380 0.475000 -0.625653
O11   O     O_R   0.260040 0.127620 0.475000 -0.631210
O12   O     O_R   0.253510 0.763670 0.361920 -0.636081
O13   O     O_R   0.739960 0.872380 0.525000 -0.630420
O14   O     O_R   0.239960 0.627620 0.525000 -0.626371
O15   O     O_R   0.760040 0.372380 0.475000 -0.622769
O16   O     O_R   0.760040 0.627620 0.475000 -0.628872
O17   O     O_R   0.239960 0.372380 0.525000 -0.627219
O18   O     O_R   0.680700 0.294870 0.629350 -0.634868
O19   O     O_R   0.319300 0.705130 0.370650 -0.633451
O20   O     O_R   0.319300 0.294870 0.370650 -0.623624
O21   O     O_R   0.680700 0.705130 0.629350 -0.627146
O22   O     O_R   0.180700 0.794870 0.629350 -0.634387
O23   O     O_R   0.253510 0.236330 0.361920 -0.634503
O24   O     O_R   0.819300 0.205130 0.370650 -0.632590
O25   O     O_R   0.819300 0.794870 0.370650 -0.627848
O26   O     O_R   0.180700 0.205130 0.629350 -0.638318
O27   O     O_R   0.062020 0.072840 0.007170 -0.627392
O28   O     O_R   0.937980 0.927160 0.992830 -0.627891
O29   O     O_R   0.937980 0.072840 0.992830 -0.627066
O30   O     O_R   0.062020 0.927160 0.007170 -0.626992
O31   O     O_R   0.562020 0.572840 0.007170 -0.627901
O32   O     O_R   0.437980 0.427160 0.992830 -0.629449
O33   O     O_R   0.437980 0.572840 0.992830 -0.627055
O34   O     O_R   0.746490 0.763670 0.638080 -0.649614
O35   O     O_R   0.562020 0.427160 0.007170 -0.626284
O36   O     O_R   0.947860 0.073950 0.109290 -0.622364
O37   O     O_R   0.052140 0.926050 0.890710 -0.624133
O38   O     O_R   0.052140 0.073950 0.890710 -0.623378
O39   O     O_R   0.947860 0.926050 0.109290 -0.621449
O40   O     O_R   0.447860 0.573950 0.109290 -0.623907
O41   O     O_R   0.552140 0.426050 0.890710 -0.623753
O42   O     O_R   0.552140 0.573950 0.890710 -0.621307
O43   O     O_R   0.447860 0.426050 0.109290 -0.622116
O44   O     O_R   0.246490 0.736330 0.638080 -0.635699
O45   O     O_R   0.753510 0.263670 0.361920 -0.635149
O46   O     O_R   0.753510 0.736330 0.361920 -0.648659
O47   O     O_R   0.246490 0.263670 0.638080 -0.650845
O48   O     O_R   0.674170 0.186160 0.516270 -0.630166
Zn1   Zn    Zn3+2 0.792340 0.208750 0.507670 0.932638
Zn2   Zn    Zn3+2 0.494040 0.500000 0.919480 0.931994
Zn3   Zn    Zn3+2 0.005960 0.000000 0.080520 0.936097
Zn4   Zn    Zn3+2 0.994040 0.000000 0.919480 0.932199
Zn5   Zn    Zn3+2 0.207660 0.791250 0.492330 0.936958
Zn6   Zn    Zn3+2 0.207660 0.208750 0.492330 0.928860
Zn7   Zn    Zn3+2 0.792340 0.791250 0.507670 0.926645
Zn8   Zn    Zn3+2 0.292340 0.708750 0.507670 0.941009
Zn9   Zn    Zn3+2 0.707660 0.291250 0.492330 0.937783
Zn10  Zn    Zn3+2 0.707660 0.708750 0.492330 0.931294
Zn11  Zn    Zn3+2 0.292340 0.291250 0.507670 0.932117
Zn12  Zn    Zn3+2 0.505960 0.500000 0.080520 0.935001

loop_
_geom_bond_atom_site_label_1
_geom_bond_atom_site_label_2
_ccdc_geom_bond_type
C28   H12   S    
C49   C113  A    
C105  C110  A    
C95   H73   S    
C31   C42   A    
O16   Zn10  S    
C169  H38   S    
C50   C79   A    
C14   C33   A    
C114  C115  A    
C19   C46   A    
C16   C31   A    
C124  C133  A    
C43   C194  A    
O2    Zn8   S    
C50   C59   A    
C122  C143  A    
C52   C61   A    
C181  H41   S    
C164  H32   S    
C106  C107  A    
C24   C42   A    
C108  C109  A    
C188  H48   S    
C131  C140  A    
C11   C154  S    
C134  C143  A    
C13   C51   A    
C25   H45   S    
C44   C53   A    
C9    C156  S    
C167  H36   S    
C6    O36   A    
O14   Zn8   S    
O26   Zn6   S    
C125  C140  A    
O40   Zn12  S    
C89   H69   S    
C147  C200  A    
C8    C157  S    
O34   Zn7   S    
C13   C41   A    
C158  C167  A    
O47   Zn11  S    
C190  O2    A    
C127  C136  A    
C70   H52   S    
C179  C188  A    
C46   H6    S    
C187  C204  A    
C1    C171  S    
C177  C186  A    
C34   C39   A    
C185  C202  A    
C75   C76   A    
C66   H49   S    
C112  O12   A    
C128  O23   A    
C7    O30   A    
O27   Zn3   S    
C164  C173  A    
C11   O41   A    
C130  H16   S    
C172  O25   A    
C134  H20   S    
C161  O24   A    
C161  C177  S    
C130  C138  A    
C90   H10   S    
C15   C30   A    
C145  H22   S    
C16   C25   A    
C76   H58   S    
C77   H59   S    
C102  H79   S    
O9    Zn1   S    
C72   C73   A    
C18   C38   A    
C65   C71   A    
C105  C140  S    
C147  H25   S    
C27   H23   S    
C101  H11   S    
C5    O28   A    
C48   C101  A    
C153  H30   S    
C193  O14   A    
C187  H47   S    
C69   C70   A    
O46   Zn10  S    
C180  C198  A    
C2    C40   A    
C129  C137  A    
C88   C89   A    
C98   C99   A    
C115  H88   S    
O7    Zn7   S    
C62   H2    S    
C127  H14   S    
C139  O21   A    
C22   H67   S    
C57   H7    S    
O37   Zn4   S    
C123  C132  A    
C27   C29   A    
C119  C198  S    
C121  C130  A    
O20   Zn11  S    
C174  C182  A    
C85   C86   A    
C133  C142  A    
O8    Zn6   S    
C117  H91   S    
C122  C201  S    
C118  H92   S    
C37   C40   A    
C51   C90   A    
C183  O47   A    
C38   C39   A    
C78   C80   A    
C43   C52   A    
C115  C116  A    
C120  C199  S    
C29   H1    S    
O44   Zn8   S    
C133  H19   S    
C20   C35   A    
C151  H28   S    
C2    C44   A    
C22   C25   A    
C107  C108  A    
C30   C41   A    
C89   C91   A    
C149  C158  A    
O48   Zn9   S    
C112  O19   A    
C66   C67   A    
C1    O18   A    
C81   H61   S    
C121  C144  A    
O18   Zn9   S    
O24   Zn1   S    
C92   C97   A    
C2    C45   A    
C58   C64   A    
C56   C190  S    
C124  C203  S    
C120  C129  A    
C170  H39   S    
C111  C118  A    
C161  O45   A    
C165  C174  A    
C151  C159  A    
C107  H83   S    
C108  H84   S    
C78   C144  S    
C83   C84   A    
C5    C160  S    
C19   C28   A    
C24   C50   A    
C145  C154  A    
C23   H56   S    
O43   Zn12  S    
C148  H26   S    
O41   Zn2   S    
C181  C199  A    
C122  C131  A    
C67   H50   S    
C172  C178  S    
C132  C141  A    
C196  O16   A    
C184  C201  A    
C135  H21   S    
C91   H70   S    
C120  C141  A    
C86   H65   S    
C10   C155  S    
O10   Zn5   S    
C197  O8    A    
C71   H53   S    
C123  C137  A    
C128  C174  S    
C170  C179  A    
C14   C22   A    
C97   H75   S    
C145  C198  A    
C117  C118  A    
C146  H24   S    
C55   C61   A    
O35   Zn12  S    
C186  C203  A    
C148  C157  A    
C102  C103  A    
C163  H31   S    
C43   C57   A    
O11   Zn6   S    
C183  O26   A    
O22   Zn5   S    
C10   O40   A    
C51   C60   A    
C149  C202  A    
C119  C127  A    
C125  C134  A    
C192  O4    A    
O1    Zn1   S    
C87   C88   A    
O13   Zn7   S    
C34   C37   A    
C53   C193  S    
C73   C74   A    
C103  H80   S    
C80   H60   S    
C85   C143  S    
C75   H57   S    
C3    C126  S    
C176  C185  A    
C125  C204  S    
O6    Zn1   S    
C109  H85   S    
O23   Zn6   S    
C116  H90   S    
C166  C175  A    
C54   C197  S    
C9    O43   A    
C132  H18   S    
C1    O1    A    
O3    Zn11  S    
O33   Zn2   S    
C93   H71   S    
C182  H42   S    
C87   H66   S    
C94   H72   S    
C92   C137  S    
C195  O6    A    
C168  C177  A    
O17   Zn11  S    
C84   H64   S    
C8    O31   A    
C146  C155  A    
O21   Zn10  S    
C100  H77   S    
C4    O27   A    
C160  C169  A    
C70   C71   A    
O29   Zn4   S    
C163  C171  A    
O39   Zn3   S    
C73   H54   S    
C173  C181  A    
C63   H3    S    
C59   C192  S    
C52   C195  S    
C6    C159  S    
C72   C141  S    
C124  C136  A    
C149  H27   S    
C182  C200  A    
C86   C87   A    
C14   C101  A    
C152  H29   S    
C54   C62   A    
C166  H35   S    
C21   H78   S    
C121  C200  S    
C189  O9    A    
O32   Zn2   S    
C26   H34   S    
C18   C57   A    
C191  O3    A    
C168  H37   S    
C162  C170  A    
C9    O32   A    
C114  H87   S    
C131  H17   S    
C147  C156  A    
C195  O15   A    
C185  H44   S    
C172  O46   A    
C178  C187  A    
C126  C135  A    
C61   H89   S    
C21   C23   A    
C184  H43   S    
C4    C162  S    
C150  O22   A    
C17   C26   A    
C46   C47   A    
C17   C68   A    
C106  H82   S    
C189  O48   A    
C105  C106  A    
C165  H33   S    
C153  C162  A    
C16   C79   A    
C33   C41   A    
C36   C38   A    
C129  H15   S    
C109  C110  A    
C156  C165  A    
C92   C93   A    
O28   Zn4   S    
C111  C114  A    
C94   C95   A    
C186  H46   S    
O45   Zn9   S    
C20   C36   A    
O25   Zn7   S    
C82   C83   A    
C103  C104  A    
C119  C142  A    
C32   C42   A    
C152  C204  A    
C111  C138  S    
C175  C184  A    
C150  C176  S    
C152  C160  A    
C4    O38   A    
C93   C94   A    
C197  O17   A    
C47   C194  A    
C139  C175  S    
O30   Zn3   S    
O5    Zn5   S    
C3    C188  A    
C81   C82   A    
C85   C91   A    
C7    C158  S    
C74   H55   S    
C116  C117  A    
C64   H4    S    
C59   C64   A    
C60   C63   A    
C192  O13   A    
C98   C136  S    
C3    C153  A    
C191  O11   A    
C159  C168  A    
C146  C199  A    
C193  O5    A    
O4    Zn10  S    
C88   H68   S    
C31   C33   A    
C104  H81   S    
C15   C23   A    
C112  C173  S    
C110  H86   S    
C11   O35   A    
C12   C32   A    
C113  H13   S    
C196  O7    A    
C148  C201  A    
C179  C183  S    
C20   C29   A    
C180  H40   S    
C39   C194  A    
C74   C75   A    
C154  C163  A    
C36   C40   A    
C76   C77   A    
C82   H62   S    
O38   Zn4   S    
C128  O20   A    
C12   C21   A    
C49   C58   A    
C67   C69   A    
C6    O29   A    
C72   C77   A    
C99   H76   S    
C99   C100  A    
C96   C97   A    
O15   Zn9   S    
C58   C189  S    
C100  C102  A    
C56   C63   A    
O12   Zn5   S    
C17   C37   A    
C8    O42   A    
C135  C144  A    
C45   C54   A    
C10   O33   A    
C171  C180  A    
C44   C68   A    
O19   Zn8   S    
C169  C178  A    
C69   H51   S    
C47   C55   A    
C12   C113  A    
C24   C49   A    
C48   C56   A    
C126  C138  A    
C123  C202  S    
C18   C27   A    
C151  C203  A    
C80   C81   A    
C19   C34   A    
C150  O44   A    
C157  C166  A    
C190  O10   A    
C13   C48   A    
C155  C164  A    
C5    O39   A    
O31   Zn12  S    
C26   C28   A    
O42   Zn2   S    
C68   H8    S    
C7    O37   A    
C96   H74   S    
C83   H63   S    
C35   H5    S    
C15   C90   A    
C30   C32   A    
C65   C142  S    
C60   C191  S    
C98   C104  A    
C55   C196  S    
O36   Zn3   S    
C78   C84   A    
C79   H9    S    
C53   C62   A    
C65   C66   A    
C95   C96   A    
C167  C176  A    
C139  O34   A    
C35   C45   A    
