data_mof_unit_14557.cif
_audit_creation_date              2012-12-11T15:08:39-0500
_audit_creation_method            fapswitch 2.2
_symmetry_space_group_name_H-M    P1
_symmetry_Int_Tables_number       1
_space_group_crystal_system       triclinic
_cell_length_a                    26.826776
_cell_length_b                    7.07451
_cell_length_c                    11.975088
_cell_angle_alpha                 89.751671
_cell_angle_beta                  103.344058
_cell_angle_gamma                 89.49009
_cell_volume                      2211.21307948

loop_
_atom_site_label
_atom_site_type_symbol
_atom_type_description
_atom_site_fract_x
_atom_site_fract_y
_atom_site_fract_z
_atom_type_partial_charge
O1    O     O_R   0.437360 0.505910 0.042120 -0.536279
O2    O     O_R   0.562640 0.005910 0.957880 -0.531316
O3    O     O_R   0.542480 0.176660 0.157100 -0.541173
O4    O     O_R   0.457520 0.676660 0.842900 -0.532292
C1    C     C_R   0.556682 0.343481 0.197956 0.773841
C2    C     C_R   0.443703 0.845740 0.801919 0.773859
O5    O     O_R   0.436520 0.176250 0.054800 -0.537375
O6    O     O_R   0.563480 0.676250 0.945200 -0.542245
O7    O     O_R   0.455920 0.005040 0.854840 -0.537039
O8    O     O_R   0.544080 0.505040 0.145160 -0.528918
C3    C     C_R   0.417520 0.345394 0.063499 0.807114
C4    C     C_R   0.582538 0.843992 0.936633 0.805573
O9    O     O_3   0.506490 0.338900 0.934520 -0.387170
O10   O     O_3   0.493510 0.838900 0.065480 -0.386931
V1    V     V_3+5 0.498800 0.064400 0.012150 1.555055
V2    V     V_3+5 0.501200 0.564400 0.987850 1.560170
C5    C     C_R   0.681141 0.813911 0.760309 0.694292
C6    C     C_R   0.319178 0.408879 0.238158 0.693574
H1    H     H_    0.599311 0.796558 0.725802 0.158785
H2    H     H_    0.401159 0.415805 0.272588 0.157952
C7    C     C_R   0.632053 0.847961 0.904632 -0.221156
C8    C     C_R   0.367968 0.356713 0.094957 -0.218765
C9    C     C_R   0.868255 0.855414 0.211885 -0.171407
C10   C     C_R   0.131643 0.353765 0.787931 -0.169594
C11   C     C_R   0.822767 0.837399 0.247310 -0.173528
C12   C     C_R   0.177240 0.359506 0.752058 -0.172876
C13   C     C_R   0.776068 0.831868 0.166961 0.031119
C14   C     C_R   0.223998 0.366122 0.832130 0.027429
C15   C     C_R   0.773433 0.849810 0.047720 0.123568
C16   C     C_R   0.226574 0.360605 0.951781 0.121938
C17   C     C_R   0.820577 0.856278 0.011984 -0.038699
C18   C     C_R   0.179411 0.364953 0.987581 -0.038109
C19   C     C_R   0.725977 0.851170 0.962645 -0.190099
C20   C     C_R   0.274040 0.361255 0.036853 -0.186388
C21   C     C_R   0.727207 0.833283 0.844519 -0.230012
C22   C     C_R   0.272959 0.389638 0.154359 -0.226915
C23   C     C_R   0.774297 0.835862 0.812260 0.713546
C24   C     C_R   0.225863 0.397183 0.186507 0.696398
C25   C     C_R   0.819882 0.852497 0.894355 -0.213452
C26   C     C_R   0.180153 0.380470 0.104869 -0.199102
C27   C     C_R   0.677193 0.871198 0.989480 0.653228
C28   C     C_R   0.322687 0.332743 0.010701 0.651152
C29   C     C_R   0.634240 0.816161 0.791158 -0.406844
C30   C     C_R   0.366064 0.397199 0.207580 -0.407862
C31   C     C_R   0.867787 0.861858 0.095078 -0.042662
C32   C     C_R   0.132141 0.359052 0.904731 -0.044575
H3    H     H_    0.904168 0.858754 0.275792 0.165567
H4    H     H_    0.095671 0.350986 0.724194 0.170686
H5    H     H_    0.743178 0.804019 0.201236 0.221475
H6    H     H_    0.257009 0.385138 0.796886 0.221629
H7    H     H_    0.823703 0.824734 0.337936 0.158365
H8    H     H_    0.176351 0.362949 0.661190 0.158078
H9    H     H_    0.855017 0.856720 0.864550 0.149636
H10   H     H_    0.144997 0.384828 0.134648 0.152092
C33   C     C_R   0.092041 0.854630 0.310257 -0.274506
C34   C     C_R   0.908251 0.360465 0.688885 -0.281519
C35   C     C_R   0.409425 0.860695 0.687940 -0.163175
C36   C     C_R   0.591049 0.345203 0.312505 -0.164765
C37   C     C_R   0.107815 0.796866 0.513813 -0.167958
C38   C     C_R   0.894520 0.318444 0.484266 -0.166917
C39   C     C_R   0.074124 0.804063 0.406631 0.560435
C40   C     C_R   0.927784 0.332441 0.591723 0.562123
C41   C     C_R   0.144227 0.889546 0.319811 0.508347
C42   C     C_R   0.855165 0.373014 0.678837 0.510656
C43   C     C_R   0.180267 0.865347 0.426894 0.006007
C44   C     C_R   0.820385 0.343218 0.571202 -0.001639
C45   C     C_R   0.160223 0.829810 0.524987 -0.133987
C46   C     C_R   0.841291 0.323626 0.473137 -0.138965
C47   C     C_R   0.234848 0.878757 0.441833 0.069409
C48   C     C_R   0.765983 0.330845 0.556947 0.071802
C49   C     C_R   0.267317 0.870132 0.555220 -0.065848
C50   C     C_R   0.733320 0.330342 0.443894 -0.067387
C51   C     C_R   0.243985 0.869255 0.649895 0.690033
C52   C     C_R   0.756280 0.303404 0.349662 0.687250
C53   C     C_R   0.191976 0.837668 0.634533 -0.237409
C54   C     C_R   0.809150 0.302102 0.364750 -0.236334
C55   C     C_R   0.258400 0.897956 0.348185 0.018534
C56   C     C_R   0.743449 0.300630 0.651095 0.019246
C57   C     C_R   0.310537 0.929320 0.364778 -0.103360
C58   C     C_R   0.690908 0.281753 0.636202 -0.097977
C59   C     C_R   0.342391 0.919645 0.474186 0.100359
C60   C     C_R   0.658415 0.299816 0.527710 0.100950
C61   C     C_R   0.321832 0.872846 0.569683 -0.011473
C62   C     C_R   0.678843 0.336197 0.430521 -0.011669
C63   C     C_R   0.395109 0.949302 0.488233 -0.109085
C64   C     C_R   0.605505 0.277963 0.515384 -0.110250
C65   C     C_R   0.428104 0.927629 0.595772 -0.279140
C66   C     C_R   0.572340 0.292886 0.407614 -0.277794
C67   C     C_R   0.357099 0.824379 0.673989 0.684915
C68   C     C_R   0.643580 0.377210 0.324789 0.686810
H11   H     H_    0.175939 0.828552 0.709632 0.166159
H12   H     H_    0.825169 0.278558 0.290625 0.167678
H13   H     H_    0.468478 0.957428 0.606438 0.131365
H14   H     H_    0.531882 0.266349 0.398526 0.131459
H15   H     H_    0.326398 0.953392 0.290474 0.107316
H16   H     H_    0.675576 0.252107 0.710608 0.105196
H17   H     H_    0.092857 0.766177 0.588591 0.169879
H18   H     H_    0.910434 0.299699 0.409599 0.170549
H19   H     H_    0.238193 0.887520 0.260098 0.189959
H20   H     H_    0.765665 0.274634 0.736832 0.177099
H21   H     H_    0.410715 0.990935 0.416091 0.125765
H22   H     H_    0.589932 0.244061 0.588836 0.125413
O11   O     O_R   0.955980 0.206520 0.854760 -0.545903
O12   O     O_R   0.044020 0.706520 0.145240 -0.543124
O13   O     O_R   0.063490 0.536770 0.945200 -0.545510
O14   O     O_R   0.936510 0.036770 0.054800 -0.545544
C69   C     C_R   0.082721 0.367898 0.937563 0.697775
C70   C     C_R   0.917214 0.869011 0.062231 0.692076
O15   O     O_R   0.957530 0.536190 0.842880 -0.535730
O16   O     O_R   0.042470 0.036190 0.157120 -0.533320
O17   O     O_R   0.937350 0.707210 0.042130 -0.531986
O18   O     O_R   0.062650 0.207210 0.957870 -0.530080
C71   C     C_R   0.943074 0.368501 0.802612 0.857246
C72   C     C_R   0.056628 0.866716 0.197512 0.860158
O19   O     O_3   0.993540 0.373870 0.065440 -0.380157
O20   O     O_3   0.006460 0.873870 0.934560 -0.382210
V3    V     V_3+5 0.001200 0.648440 0.987860 1.544768
V4    V     V_3+5 0.998800 0.148440 0.012140 1.546101
F1    F     F_    0.342481 0.727194 0.758927 -0.625558
F2    F     F_    0.658712 0.460076 0.235751 -0.624600
F3    F     F_    0.023642 0.769357 0.397454 -0.673933
F4    F     F_    0.979124 0.320668 0.600934 -0.676176
F5    F     F_    0.157435 0.957542 0.224747 -0.716806
F6    F     F_    0.839014 0.425843 0.773569 -0.705456
F7    F     F_    0.269618 0.918221 0.756997 -0.608433
F8    F     F_    0.728905 0.249928 0.244989 -0.606422
F9    F     F_    0.776693 0.825084 0.700379 -0.625923
F10   F     F_    0.223548 0.418322 0.297901 -0.633336
F11   F     F_    0.681131 0.789741 0.647845 -0.628348
F12   F     F_    0.319384 0.441202 0.349981 -0.631477
F13   F     F_    0.671983 0.923071 0.095146 -0.644678
F14   F     F_    0.327604 0.270240 0.906813 -0.650314

loop_
_geom_bond_atom_site_label_1
_geom_bond_atom_site_label_2
_ccdc_geom_bond_type
C44   C46   A    
C41   C43   A    
C9    C31   A    
C13   C15   A    
C50   C52   A    
C69   O18   A    
C65   H13   S    
C47   C55   A    
O1    C3    A    
O2    C4    A    
O16   V4    S    
C2    O7    A    
C5    C29   A    
O3    V1    S    
O8    V2    S    
C44   C48   A    
O5    C3    A    
O13   C69   A    
C52   C54   A    
C1    C36   S    
C39   F3    S    
C24   C26   A    
C10   C12   A    
C6    C30   A    
C56   C58   A    
C48   C56   A    
C15   C19   A    
O20   V3    S    
C38   C40   A    
C47   C49   A    
C37   C45   A    
C7    C29   A    
C14   H6    S    
C8    C30   A    
C67   F1    S    
O20   V4    S    
C20   C28   A    
O19   V3    S    
C33   C41   A    
C8    C28   A    
C34   C71   S    
C34   C42   A    
C58   H16   S    
O16   C72   A    
C20   C22   A    
C31   C70   S    
O15   C71   A    
C34   C40   A    
O5    V1    S    
O6    V2    S    
O14   V4    S    
C51   C53   A    
C2    C35   S    
O13   V3    S    
C62   C68   A    
C12   C14   A    
C59   C61   A    
H1    C29   S    
C49   C61   A    
C63   C65   A    
C61   C67   A    
C66   H14   S    
C37   C39   A    
C9    H3    S    
C16   C20   A    
C5    F11   S    
C10   H4    S    
C58   C60   A    
C49   C51   A    
C28   F14   S    
C43   C45   A    
C60   C64   A    
C4    C7    S    
C35   C65   A    
C68   F2    S    
O4    V2    S    
C11   H7    S    
C57   H15   S    
C52   F8    S    
C16   C18   A    
C12   H8    S    
C41   F5    S    
O6    C4    A    
O19   V4    S    
C38   H18   S    
C32   C69   S    
C55   C57   A    
O1    V2    S    
O2    V1    S    
C36   C68   A    
C50   C62   A    
C35   C67   A    
C54   H12   S    
C7    C27   A    
O4    C2    A    
H2    C30   S    
C60   C62   A    
C56   H20   S    
C37   H17   S    
O12   C72   A    
O15   V3    S    
O11   V4    S    
C11   C13   A    
C64   H22   S    
C40   F4    S    
C63   H21   S    
C21   C23   A    
C27   F13   S    
O12   V3    S    
C43   C47   A    
O11   C71   A    
C18   C32   A    
O3    C1    A    
C36   C66   A    
C24   F10   S    
C57   C59   A    
C33   C72   S    
C53   H11   S    
C46   C54   A    
C3    C8    S    
C26   H10   S    
C70   O17   A    
O17   V3    S    
C19   C27   A    
C22   C24   A    
O7    V1    S    
C10   C32   A    
C1    O8    A    
C23   C25   A    
C42   F6    S    
O18   V4    S    
C25   H9    S    
O14   C70   A    
C51   F7    S    
C33   C39   A    
C14   C16   A    
C19   C21   A    
C17   C25   A    
C55   H19   S    
C64   C66   A    
C18   C26   A    
C6    F12   S    
C9    C11   A    
C45   C53   A    
C38   C46   A    
C15   C17   A    
C17   C31   A    
O9    V2    S    
O10   V1    S    
C48   C50   A    
C5    C21   A    
C6    C22   A    
C59   C63   A    
C13   H5    S    
C42   C44   A    
C23   F9    S    
