data_mof_unit_13874.cif
_audit_creation_date              2012-12-10T17:40:56-0500
_audit_creation_method            fapswitch 2.2
_symmetry_space_group_name_H-M    P1
_symmetry_Int_Tables_number       1
_space_group_crystal_system       triclinic
_cell_length_a                    14.931464
_cell_length_b                    15.180219
_cell_length_c                    9.937393
_cell_angle_alpha                 89.571871
_cell_angle_beta                  89.993168
_cell_angle_gamma                 90.022649
_cell_volume                      2252.37517674

loop_
_atom_site_label
_atom_site_type_symbol
_atom_type_description
_atom_site_fract_x
_atom_site_fract_y
_atom_site_fract_z
_atom_type_partial_charge
C1    C     C_R   0.382690 0.878075 0.500541 0.858080
C2    C     C_R   0.382591 0.121866 0.499577 0.858272
C3    C     C_R   0.882585 0.378147 0.500488 0.857820
C4    C     C_R   0.882688 0.621959 0.499549 0.857207
C5    C     C_R   0.244620 0.181124 0.577062 -0.206295
C6    C     C_R   0.243346 0.820271 0.426804 -0.218403
C7    C     C_R   0.745372 0.681844 0.578434 -0.215478
C8    C     C_R   0.744463 0.319085 0.423373 -0.212194
C9    C     C_R   0.681835 0.746364 0.580158 -0.205660
C10   C     C_R   0.680845 0.254578 0.421667 -0.198402
C11   C     C_R   0.181019 0.245616 0.578656 -0.199358
C12   C     C_R   0.179657 0.755819 0.424801 -0.204238
C13   C     C_R   0.693634 0.821810 0.501883 -0.099952
C14   C     C_R   0.693352 0.178456 0.498085 -0.101292
C15   C     C_R   0.193398 0.321571 0.501764 -0.098627
C16   C     C_R   0.193138 0.678674 0.498356 -0.096109
C17   C     C_R   0.336056 0.002265 0.139327 -0.154873
C18   C     C_R   0.836319 0.500642 0.139682 -0.161504
C19   C     C_R   0.254985 0.004913 0.069360 0.132709
C20   C     C_R   0.755090 0.500783 0.070314 0.127897
C21   C     C_R   0.255791 0.004319 0.929355 -0.240660
C22   C     C_R   0.755627 0.500097 0.930226 -0.230516
C23   C     C_R   0.336518 0.001413 0.860079 -0.176647
C24   C     C_R   0.836348 0.499689 0.860474 -0.179899
C25   C     C_R   0.419386 0.000757 0.927737 0.171357
C26   C     C_R   0.919360 0.499988 0.927846 0.171213
C27   C     C_R   0.419311 0.000947 0.072079 0.126751
C28   C     C_R   0.919372 0.500228 0.072162 0.130896
C29   C     C_R   0.577112 0.999144 0.071422 -0.100867
C30   C     C_R   0.077120 0.499871 0.071408 -0.100661
C31   C     C_R   0.621862 0.117495 0.499555 0.842928
C32   C     C_R   0.621993 0.882629 0.500382 0.842615
C33   C     C_R   0.121790 0.617567 0.499590 0.843229
C34   C     C_R   0.121900 0.382535 0.500364 0.843561
C35   C     C_R   0.577074 0.999201 0.928467 -0.105620
C36   C     C_R   0.077083 0.499939 0.928447 -0.105862
C37   C     C_R   0.418320 0.285888 0.354102 -0.182119
C38   C     C_R   0.419653 0.712740 0.641344 -0.182559
C39   C     C_R   0.917448 0.785192 0.350972 -0.185577
C40   C     C_R   0.918406 0.213963 0.645301 -0.178563
C41   C     C_R   0.433497 0.365548 0.287094 -0.143457
C42   C     C_R   0.435436 0.632388 0.706048 -0.145701
C43   C     C_R   0.932198 0.864510 0.282805 -0.143888
C44   C     C_R   0.933612 0.134189 0.711935 -0.143756
C45   C     C_R   0.868249 0.931002 0.287343 -0.125733
C46   C     C_R   0.869481 0.067790 0.707708 -0.128234
C47   C     C_R   0.369345 0.431880 0.291055 -0.127903
C48   C     C_R   0.371137 0.566115 0.702051 -0.126809
C49   C     C_R   0.789066 0.918107 0.359160 -0.191218
C50   C     C_R   0.789713 0.081204 0.637650 -0.188579
C51   C     C_R   0.289599 0.418525 0.361261 -0.189401
C52   C     C_R   0.290651 0.580215 0.634124 -0.190892
C53   C     C_R   0.772423 0.837407 0.427090 0.093301
C54   C     C_R   0.772683 0.162324 0.571204 0.093928
C55   C     C_R   0.272635 0.337561 0.428244 0.094051
C56   C     C_R   0.273156 0.661829 0.569435 0.092239
C57   C     C_R   0.337809 0.271043 0.425738 0.103637
C58   C     C_R   0.338448 0.728275 0.572020 0.102270
C59   C     C_R   0.837500 0.770796 0.424276 0.101496
C60   C     C_R   0.837847 0.228879 0.573895 0.104427
C61   C     C_R   0.321034 0.192613 0.499018 -0.090615
C62   C     C_R   0.320940 0.807509 0.501399 -0.092454
C63   C     C_R   0.821202 0.692785 0.498923 -0.096044
C64   C     C_R   0.820986 0.307436 0.501055 -0.099397
H1    H     H_    0.233295 0.121119 0.634535 0.141672
H2    H     H_    0.231369 0.881302 0.372652 0.143109
H3    H     H_    0.734411 0.622213 0.636985 0.143057
H4    H     H_    0.733086 0.379221 0.366308 0.163247
H5    H     H_    0.331034 0.999683 0.753536 0.210034
H6    H     H_    0.830793 0.499047 0.753855 0.209227
H7    H     H_    0.640157 0.998584 0.874902 0.144975
H8    H     H_    0.140168 0.499908 0.874868 0.145484
H9    H     H_    0.470553 0.237005 0.350590 0.152887
H10   H     H_    0.471785 0.761772 0.644936 0.151157
H11   H     H_    0.969607 0.736259 0.346931 0.154466
H12   H     H_    0.970626 0.262896 0.648960 0.152717
H13   H     H_    0.495640 0.376164 0.233198 0.141304
H14   H     H_    0.498090 0.621240 0.758305 0.127986
H15   H     H_    0.993888 0.874753 0.227592 0.128329
H16   H     H_    0.995768 0.123537 0.765734 0.129226
H17   H     H_    0.880315 0.993026 0.235992 0.138648
H18   H     H_    0.881844 0.005444 0.757927 0.136652
H19   H     H_    0.381682 0.494133 0.240520 0.137113
H20   H     H_    0.383877 0.503378 0.750897 0.137415
H21   H     H_    0.742432 0.972464 0.363038 0.144122
H22   H     H_    0.742873 0.026972 0.634010 0.143034
H23   H     H_    0.242749 0.472718 0.364636 0.142982
H24   H     H_    0.243528 0.526205 0.630861 0.142325
H25   H     H_    0.622402 0.736354 0.640522 0.145179
H26   H     H_    0.620823 0.265095 0.362878 0.148128
H27   H     H_    0.121096 0.235216 0.637766 0.144017
H28   H     H_    0.118858 0.767163 0.368209 0.142286
H29   H     H_    0.640217 0.998452 0.124915 0.144221
H30   H     H_    0.140228 0.499749 0.124899 0.144437
N1    N     N_R   0.498810 0.000000 0.142780 -0.117369
N2    N     N_R   0.998810 0.500000 0.142780 -0.117465
N3    N     N_R   0.498740 0.000000 0.857170 -0.118382
N4    N     N_R   0.998740 0.500000 0.857170 -0.118425
O1    O     O_R   0.408390 0.908380 0.614690 -0.642783
O2    O     O_R   0.408390 0.091620 0.614690 -0.626977
O3    O     O_R   0.908390 0.408380 0.614690 -0.642680
O4    O     O_R   0.908390 0.591620 0.614690 -0.625623
O5    O     O_R   0.408370 0.908380 0.385360 -0.627438
O6    O     O_R   0.408370 0.091620 0.385360 -0.640683
O7    O     O_R   0.908370 0.408380 0.385360 -0.624471
O8    O     O_R   0.908370 0.591620 0.385360 -0.646192
O9    O     O_R   0.591620 0.091610 0.614640 -0.610558
O10   O     O_R   0.591620 0.908390 0.614640 -0.629461
O11   O     O_R   0.091620 0.591610 0.614640 -0.611046
O12   O     O_R   0.091620 0.408390 0.614640 -0.629656
O13   O     O_R   0.591610 0.091610 0.385310 -0.628906
O14   O     O_R   0.591610 0.908390 0.385310 -0.612381
O15   O     O_R   0.091610 0.591610 0.385310 -0.629787
O16   O     O_R   0.091610 0.408390 0.385310 -0.609286
Zn1   Zn    Zn3+2 0.500010 1.000000 0.653130 0.932617
Zn2   Zn    Zn3+2 0.000010 0.500000 0.653130 0.932628
Zn3   Zn    Zn3+2 0.499980 1.000000 0.346870 0.932662
Zn4   Zn    Zn3+2 0.999980 0.500000 0.346870 0.932750
H31   H     H_    0.193618 0.005531 0.873176 0.139964
H32   H     H_    0.693339 0.499933 0.874332 0.139766
H33   H     H_    0.330940 0.001645 0.246039 0.208196
H34   H     H_    0.831412 0.500873 0.246343 0.206635
N5    N     N_3   0.172230 0.008484 0.142601 -0.459892
H35   H     H_    0.161185 0.946003 0.184103 0.165957
H36   H     H_    0.118835 0.020685 0.076958 0.181280
N6    N     N_3   0.672558 0.500612 0.144487 -0.481102
H37   H     H_    0.668503 0.560420 0.195650 0.185992
H38   H     H_    0.617908 0.498684 0.078757 0.178805

loop_
_geom_bond_atom_site_label_1
_geom_bond_atom_site_label_2
_ccdc_geom_bond_type
C58   C62   A    
C29   H29   S    
N6    H37   S    
C40   C60   A    
C23   H5    S    
C13   C32   S    
C27   N1    A    
C14   C31   S    
C1    C62   S    
C1    O1    A    
C53   C59   A    
C24   H6    S    
N5    H35   S    
C54   C60   A    
C3    C64   S    
N1    Zn3   S    
C22   H32   S    
C4    C63   S    
C19   N5    S    
C50   C54   A    
C6    H2    S    
O10   Zn1   S    
N2    Zn4   S    
C19   C21   A    
C24   C26   A    
C5    C11   A    
O1    Zn1   S    
O14   Zn3   S    
N5    H36   S    
C43   H15   S    
C7    H3    S    
C39   C59   A    
C9    C13   A    
C30   N2    A    
O11   Zn2   S    
C46   H18   S    
C11   C15   A    
C12   C16   A    
C4    O4    A    
C40   C44   A    
C47   H19   S    
N3    Zn1   S    
C1    O5    A    
C15   C34   S    
C51   C55   A    
C2    C61   S    
C3    O3    A    
C35   H7    S    
C38   C58   A    
O8    Zn4   S    
O5    Zn3   S    
O2    Zn1   S    
C31   O9    A    
C6    C12   A    
C44   C46   A    
C46   C50   A    
C13   C53   A    
C59   C63   A    
C17   C27   A    
C49   H21   S    
C44   H16   S    
C18   C28   A    
C5    H1    S    
C10   C14   A    
C9    H25   S    
C29   N1    A    
C39   C43   A    
C4    O8    A    
C3    O7    A    
C48   H20   S    
C60   C64   A    
C15   C55   A    
C16   C56   A    
C20   N6    S    
C11   H27   S    
C16   C33   S    
N4    Zn2   S    
C45   C49   A    
O9    Zn1   S    
C41   C47   A    
C5    C61   A    
C42   C48   A    
C57   C61   A    
C43   C45   A    
C7    C63   A    
O16   Zn4   S    
C8    C64   A    
C25   N3    A    
C14   C54   A    
C26   N4    A    
C2    O6    A    
C8    H4    S    
C39   H11   S    
C21   C23   A    
C34   O12   A    
C22   C24   A    
O7    Zn4   S    
C34   O16   A    
C51   H23   S    
O12   Zn2   S    
O6    Zn3   S    
C38   H10   S    
C17   H33   S    
C7    C9    A    
C37   H9    S    
N6    H38   S    
C32   O14   A    
C26   C28   A    
C12   H28   S    
C8    C10   A    
C45   H17   S    
C20   C22   A    
C47   C51   A    
C42   H14   S    
C30   C36   A    
C25   C27   A    
C18   H34   S    
C29   C35   A    
C33   O15   A    
O13   Zn3   S    
C28   N2    A    
C6    C62   A    
C55   C57   A    
C21   H31   S    
C41   H13   S    
C52   C56   A    
C49   C53   A    
C17   C19   A    
C56   C58   A    
C18   C20   A    
C23   C25   A    
C37   C41   A    
C52   H24   S    
O4    Zn2   S    
C50   H22   S    
C2    O2    A    
O15   Zn4   S    
C38   C42   A    
C40   H12   S    
C48   C52   A    
C33   O11   A    
C10   H26   S    
C30   H30   S    
C32   O10   A    
O3    Zn2   S    
C31   O13   A    
C36   N4    A    
C35   N3    A    
C37   C57   A    
C36   H8    S    
