data_mof_unit_22127.cif
_audit_creation_date              2013-03-05T16:43:03-0500
_audit_creation_method            fapswitch 2.2
_symmetry_space_group_name_H-M    P1
_symmetry_Int_Tables_number       1
_space_group_crystal_system       triclinic
_cell_length_a                    10.663432
_cell_length_b                    10.68907
_cell_length_c                    9.863209
_cell_angle_alpha                 90.518154
_cell_angle_beta                  89.662393
_cell_angle_gamma                 89.908791
_cell_volume                      1124.16296638

loop_
_atom_site_label
_atom_site_type_symbol
_atom_site_description
_atom_site_fract_x
_atom_site_fract_y
_atom_site_fract_z
_atom_type_partial_charge
O1    O     O_R   0.500020 0.316790 0.614690 -0.607361
O2    O     O_R   0.500000 0.316760 0.385350 -0.626986
C1    C     C_R   0.497723 0.259895 0.499240 0.912147
O3    O     O_R   0.314800 0.500000 0.614670 -0.598419
O4    O     O_R   0.314790 0.499960 0.385330 -0.631380
C2    C     C_R   0.257468 0.498522 0.500071 0.902393
Zn1   Zn    Zn3+2 0.500010 0.500020 0.653130 0.965357
Zn2   Zn    Zn3+2 0.499990 0.499980 0.346870 0.946200
O5    O     O_R   0.500000 0.683240 0.614650 -0.621991
O6    O     O_R   0.499980 0.683210 0.385310 -0.627782
O7    O     O_R   0.685210 0.500040 0.614670 -0.630107
O8    O     O_R   0.685200 0.500000 0.385330 -0.631248
C3    C     C_R   0.492837 0.740037 0.500579 0.902558
C4    C     C_R   0.742019 0.496273 0.499431 0.866654
C5    C     C_3   0.070382 0.395032 0.600073 0.185994
H1    H     H_    0.102183 0.419230 0.703918 0.147986
C6    C     C_3   0.926023 0.397608 0.601802 -0.432885
H2    H     H_    0.886202 0.303798 0.578026 0.195285
H3    H     H_    0.893297 0.422700 0.706016 0.183125
H4    H     H_    0.885337 0.654649 0.639768 0.217173
C7    C     C_3   0.068778 0.629341 0.538631 0.137113
C8    C     C_3   0.071594 0.467215 0.354438 -0.419707
C9    C     C_3   0.120546 0.496444 0.499926 -0.089307
H5    H     H_    0.099790 0.543328 0.284423 0.172837
H6    H     H_    0.112177 0.379341 0.312446 0.237149
C10   C     C_3   0.877885 0.495028 0.498614 0.057887
C11   C     C_3   0.924292 0.627180 0.538859 -0.446037
C12   C     C_3   0.928995 0.459686 0.355467 -0.374295
H7    H     H_    0.898929 0.363267 0.327162 0.208996
H8    H     H_    0.892068 0.524545 0.277379 0.188014
H9    H     H_    0.099131 0.695084 0.457562 0.120156
H10   H     H_    0.888831 0.697083 0.465205 0.150236
C13   C     C_R   0.448398 0.066198 0.614870 0.175256
C14   C     C_R   0.478086 0.128664 0.496389 -0.088357
C15   C     C_R   0.478487 0.063060 0.372895 -0.201407
H11   H     H_    0.491732 0.109808 0.276863 0.174097
C16   C     C_R   0.474659 0.933929 0.374258 -0.204923
H12   H     H_    0.487037 0.884313 0.278816 0.177083
C17   C     C_R   0.468718 0.871331 0.499151 -0.137245
C18   C     C_R   0.437006 0.939080 0.616783 0.171597
C19   C     C_3   0.478201 0.935528 0.762945 -0.024834
C20   C     C_3   0.498822 0.076185 0.754755 -0.536561
H13   H     H_    0.565214 0.880887 0.782149 0.158109
H14   H     H_    0.437287 0.133438 0.822531 0.230959
H15   H     H_    0.599630 0.102684 0.755804 0.185696
C21   C     C_R   0.425942 0.418346 0.070854 0.224926
N1    N     N_R   0.499150 0.499140 0.142800 -0.107693
C22   C     C_R   0.585165 0.568130 0.072199 -0.139353
H16   H     H_    0.651072 0.626373 0.126710 0.150158
C23   C     C_R   0.585694 0.567525 0.928003 -0.152249
H17   H     H_    0.651739 0.625618 0.873784 0.156318
N2    N     N_R   0.499150 0.499180 0.857150 -0.116066
C24   C     C_R   0.426301 0.417965 0.928355 0.207171
C25   C     C_3   0.287296 0.409455 0.923133 -0.487273
C26   C     C_3   0.286738 0.411266 0.076656 -0.520500
H18   H     H_    0.244187 0.494119 0.878990 0.257651
H19   H     H_    0.255365 0.318869 0.879799 0.236822
H20   H     H_    0.244269 0.497960 0.119295 0.220807
H21   H     H_    0.253497 0.322222 0.121644 0.213649
N3    N     N_2   0.374534 0.910009 0.855267 -0.272512
H22   H     H_    0.287445 0.942728 0.827126 0.298221
C27   C     C_3   0.374313 0.790647 0.921786 -0.637733
H23   H     H_    0.291642 0.784336 0.990354 0.236070
H24   H     H_    0.459817 0.782084 0.984304 0.210774
H25   H     H_    0.369056 0.713956 0.845686 0.284513
N4    N     N_R   0.118271 0.268972 0.567633 0.203335
O9    O     O_R   0.194920 0.214609 0.650612 -0.433264
O10   O     O_R   0.076298 0.205449 0.464280 -0.407831
N5    N     N_R   0.116987 0.678124 0.667640 0.209551
O11   O     O_R   0.075997 0.636213 0.783148 -0.457294
O12   O     O_R   0.187977 0.776809 0.666845 -0.417421

loop_
_geom_bond_atom_site_label_1
_geom_bond_atom_site_label_2
_geom_bond_distance
_ccdc_geom_bond_type
C21   C26   1.487232 S    
O4    Zn2   2.008775 S    
C23   N2    1.369036 A    
O6    C3    1.285959 A    
C20   H15   1.112173 S    
C5    C6    1.539562 S    
C16   H12   1.083579 S    
H4    C11   1.113014 S    
C26   H21   1.111450 S    
C19   H13   1.113670 S    
C19   C20   1.522631 S    
C10   C12   1.553646 S    
N1    C22   1.368911 A    
C27   H25   1.108171 S    
C6    H2    1.113132 S    
Zn2   O8    2.013267 S    
C5    C9    1.565837 S    
C8    H5    1.112511 S    
C12   H8    1.114126 S    
C23   H17   1.081906 S    
C7    C11   1.540915 S    
Zn2   N1    2.012797 S    
C16   C17   1.408286 A    
C8    C12   1.522822 S    
C24   C25   1.486365 S    
C4    C10   1.448815 S    
Zn1   O7    2.008773 S    
C7    H9    1.116158 S    
C12   H7    1.113470 S    
C10   C11   1.546681 S    
C27   H23   1.110438 S    
C20   H14   1.112705 S    
O3    Zn1   2.013270 S    
O4    C2    1.283287 A    
C6    C10   1.551556 S    
C21   C24   1.405452 A    
C22   C23   1.422167 A    
C22   H16   1.081837 S    
C6    H3    1.113891 S    
O8    C4    1.282182 A    
Zn1   N2    2.012360 S    
C13   C14   1.386404 A    
O2    C1    1.282172 A    
C7    C9    1.566409 S    
N5    O11   1.301419 A    
C14   C15   1.399956 A    
O7    C4    1.285102 A    
C25   H18   1.108162 S    
C3    C17   1.426597 S    
C13   C18   1.364676 A    
N4    O10   1.301672 A    
C13   C20   1.486731 S    
C5    H1    1.109296 S    
Zn1   O5    1.998254 S    
N4    O9    1.300208 A    
N2    C24   1.362737 A    
N3    C27   1.439937 S    
O3    C2    1.288203 A    
C21   N1    1.362489 A    
C26   H20   1.109084 S    
C17   C18   1.401535 A    
N5    O12   1.299395 A    
C2    C9    1.460271 S    
O5    C3    1.285886 A    
C25   C26   1.514160 S    
C18   C19   1.510330 S    
O1    Zn1   1.991549 S    
C27   H24   1.107844 S    
C1    C14   1.418665 S    
C15   C16   1.381150 A    
C11   H10   1.114097 S    
C8    C9    1.559011 S    
C5    N4    1.472042 S    
C8    H6    1.109342 S    
Zn2   O6    1.991549 S    
O2    Zn2   1.998254 S    
C15   H11   1.083517 S    
C19   N3    1.455740 S    
C7    N5    1.466918 S    
N3    H22   1.032251 S    
O1    C1    1.286453 A    
C25   H19   1.109713 S    
