data_mof_unit_11110.cif
_audit_creation_date              2013-03-05T15:40:48-0500
_audit_creation_method            fapswitch 2.2
_symmetry_space_group_name_H-M    P1
_symmetry_Int_Tables_number       1
_space_group_crystal_system       triclinic
_cell_length_a                    7.842519
_cell_length_b                    8.850466
_cell_length_c                    14.904087
_cell_angle_alpha                 91.081512
_cell_angle_beta                  86.832131
_cell_angle_gamma                 92.732462
_cell_volume                      1031.59991454

loop_
_atom_site_label
_atom_site_type_symbol
_atom_site_description
_atom_site_fract_x
_atom_site_fract_y
_atom_site_fract_z
_atom_type_partial_charge
O1    O     O_R   0.389250 0.738570 0.505970 -0.599123
O2    O     O_R   0.610750 0.261430 0.494030 -0.599124
O3    O     O_R   0.678390 0.711620 0.490370 -0.584494
O4    O     O_R   0.321610 0.288380 0.509630 -0.584494
C1    C     C_R   0.544119 0.793419 0.497645 0.918461
C2    C     C_R   0.455881 0.206581 0.502355 0.918465
O5    O     O_R   0.355420 0.513510 0.639950 -0.597441
O6    O     O_R   0.644580 0.486490 0.360050 -0.597443
O7    O     O_R   0.644560 0.486560 0.624350 -0.619677
O8    O     O_R   0.355440 0.513440 0.375650 -0.619676
C3    C     C_R   0.502732 0.496905 0.672380 0.943940
C4    C     C_R   0.497268 0.503095 0.327620 0.943943
Zn1   Zn    Zn3+2 0.306940 0.517990 0.510420 1.130768
Zn2   Zn    Zn3+2 0.693060 0.482010 0.489580 1.130767
C5    C     C_R   0.468963 0.367010 0.186684 0.262913
C6    C     C_R   0.531037 0.632990 0.813316 0.262916
C7    C     C_R   0.490077 0.504252 0.232230 -0.225469
C8    C     C_R   0.509923 0.495748 0.767770 -0.225467
C9    C     C_R   0.516239 0.640344 0.187266 0.120098
C10   C     C_R   0.483761 0.359656 0.812734 0.120098
C11   C     C_R   0.544198 0.636822 0.093489 -0.052775
C12   C     C_R   0.455804 0.363178 0.906511 -0.052774
C13   C     C_R   0.498528 0.501035 0.046844 -0.024983
C14   C     C_R   0.501474 0.498964 0.953156 -0.024983
C15   C     C_R   0.448941 0.367485 0.094267 -0.077649
C16   C     C_R   0.551061 0.632514 0.905732 -0.077654
C17   C     C_R   0.619949 0.761237 0.045289 0.245660
C18   C     C_R   0.380053 0.238762 0.954711 0.245663
C19   C     C_R   0.625554 0.757790 0.951150 0.139602
C20   C     C_R   0.374448 0.242210 0.048849 0.139600
C21   C     C_2   0.568030 0.954575 0.494843 0.030016
C22   C     C_2   0.431970 0.045425 0.505158 0.030017
N1    N     N_2   0.950330 0.457950 0.475660 0.009929
N2    N     N_2   0.049670 0.542050 0.524340 0.009930
N3    N     N_R   0.498317 0.230445 0.232110 0.212743
O9    O     O_R   0.393768 0.187705 0.298468 -0.391254
O10   O     O_R   0.653693 0.184856 0.229475 -0.275189
N4    N     N_R   0.501682 0.769555 0.767890 0.212746
O11   O     O_R   0.606239 0.812298 0.701536 -0.391249
O12   O     O_R   0.346303 0.815132 0.770516 -0.275196
I1    I     I_    0.485160 0.842759 0.264326 -0.026879
I2    I     I_    0.514839 0.157241 0.735674 -0.026878
N5    N     N_R   0.715401 0.879245 0.090158 0.236601
O13   O     O_R   0.838882 0.845656 0.140010 -0.310376
O14   O     O_R   0.690156 0.020349 0.074695 -0.323850
N6    N     N_R   0.284599 0.120755 0.909841 0.236600
O15   O     O_R   0.161117 0.154345 0.859991 -0.310377
O16   O     O_R   0.309850 0.979650 0.925300 -0.323853
I3    I     I_    0.797970 0.915878 0.880760 0.049097
I4    I     I_    0.202035 0.084119 0.119240 0.049091
N7    N     N_R   0.741468 0.011921 0.480031 0.233568
O17   O     O_R   0.822871 0.983804 0.403589 -0.268099
O18   O     O_R   0.827579 0.057268 0.548467 -0.274678
N8    N     N_R   0.258532 0.988079 0.519969 0.233568
O19   O     O_R   0.177128 0.016196 0.596411 -0.268099
O20   O     O_R   0.172421 0.942732 0.451533 -0.274678
I5    I     I_    0.036184 0.318085 0.372005 0.118539
I6    I     I_    0.963816 0.681915 0.627995 0.118543

loop_
_geom_bond_atom_site_label_1
_geom_bond_atom_site_label_2
_geom_bond_distance
_ccdc_geom_bond_type
C4    C7    1.426192 S    
C1    C21   1.430778 S    
C2    C22   1.430778 S    
O7    Zn2   2.023570 S    
C3    C8    1.426190 S    
C5    C7    1.387705 A    
N1    I5    2.065104 S    
C17   C19   1.401109 A    
N5    O14   1.300533 A    
C5    N3    1.430693 S    
C10   I2    2.126232 S    
C21   C22   1.366668 D    
O6    C4    1.292479 A    
C13   C14   1.395043 A    
Zn2   N1    2.037722 S    
C18   C20   1.401108 A    
N1    N2    1.293896 D    
C11   C17   1.414852 A    
Zn1   N2    2.037722 S    
C12   C18   1.414851 A    
N4    O12   1.300058 A    
O7    C3    1.295078 A    
C18   N6    1.432778 S    
O2    C2    1.286705 A    
O3    Zn2   2.040653 S    
O8    C4    1.295078 A    
O1    C1    1.286706 A    
C22   N8    1.435850 S    
C21   N7    1.435850 S    
C9    C11   1.402728 A    
C14   C16   1.416054 A    
O5    C3    1.292478 A    
C8    C10   1.390566 A    
C11   C13   1.418017 A    
N5    O13   1.301355 A    
C6    C16   1.395008 A    
N4    O11   1.299396 A    
O2    Zn2   2.027886 S    
C12   C14   1.418017 A    
C5    C15   1.395009 A    
O4    C2    1.304546 A    
O1    Zn1   2.027884 S    
C20   I4    2.145896 S    
N7    O18   1.300893 A    
N7    O17   1.300597 A    
N6    O16   1.300532 A    
C17   N5    1.432777 S    
O5    Zn1   1.989601 S    
C13   C15   1.416055 A    
N3    O10   1.300060 A    
C16   C19   1.407995 A    
C6    C8    1.387706 A    
C6    N4    1.430695 S    
C15   C20   1.407995 A    
N2    I6    2.065103 S    
N6    O15   1.301355 A    
C19   I3    2.145900 S    
O6    Zn2   1.989602 S    
C7    C9    1.390565 A    
N8    O19   1.300597 A    
O8    Zn1   2.023571 S    
C9    I1    2.126231 S    
O4    Zn1   2.040655 S    
C10   C12   1.402727 A    
N8    O20   1.300893 A    
O3    C1    1.304546 A    
N3    O9    1.299398 A    
