data_mof_unit_43039.cif
_audit_creation_date              2012-12-10T17:29:16-0500
_audit_creation_method            fapswitch 2.2
_symmetry_space_group_name_H-M    P1
_symmetry_Int_Tables_number       1
_space_group_crystal_system       triclinic
_cell_length_a                    12.114861
_cell_length_b                    12.796239
_cell_length_c                    13.073876
_cell_angle_alpha                 86.10178
_cell_angle_beta                  114.282947
_cell_angle_gamma                 94.238577
_cell_volume                      1840.82708976

loop_
_atom_site_label
_atom_site_type_symbol
_atom_type_description
_atom_site_fract_x
_atom_site_fract_y
_atom_site_fract_z
_atom_type_partial_charge
C1    C     C_R   0.474744 0.300123 0.493655 0.953768
C2    C     C_R   0.535980 0.480204 0.973737 -0.020058
C3    C     C_R   0.531533 0.536459 0.875768 0.050558
C4    C     C_R   0.446952 0.498877 0.012978 0.111941
C5    C     C_R   0.342200 0.552126 0.943730 0.132446
C6    C     C_R   0.337752 0.605093 0.845818 -0.294590
C7    C     C_R   0.438483 0.608426 0.819779 0.031499
C8    C     C_R   0.469972 0.482233 0.125396 -0.161262
C9    C     C_R   0.269226 0.536272 0.092023 -0.014026
C10   C     C_R   0.614971 0.513437 0.831922 -0.108936
C11   C     C_R   0.538789 0.811630 0.500414 -0.080041
C12   C     C_R   0.568791 0.503719 0.709097 0.943102
C13   C     C_R   0.454069 0.189187 0.481037 -0.081695
C14   C     C_R   0.348465 0.037451 0.379323 -0.232969
C15   C     C_R   0.352098 0.144284 0.393286 -0.028215
C16   C     C_R   0.545882 0.128022 0.555149 -0.231101
C17   C     C_R   0.543953 0.021540 0.540762 0.121663
C18   C     C_R   0.445596 0.976723 0.447863 0.120720
C19   C     C_R   0.446443 0.872149 0.425040 0.058478
C20   C     C_R   0.637486 0.855181 0.589295 -0.244215
C21   C     C_R   0.640688 0.959736 0.612358 -0.021792
C22   C     C_R   0.016683 0.612686 0.402537 -0.123574
C23   C     C_R   0.522211 0.700224 0.498402 0.964987
C24   C     C_R   0.136009 0.599124 0.414911 -0.099102
C25   C     C_R   0.149462 0.446699 0.531287 0.294083
C26   C     C_R   0.025119 0.451363 0.513179 -0.013546
C27   C     C_R   0.961947 0.541749 0.460200 -0.055053
C28   C     C_R   0.847509 0.555333 0.466674 0.036416
C29   C     C_R   0.857068 0.388907 0.562013 0.067109
C30   C     C_R   0.961938 0.368784 0.546663 0.022571
C31   C     C_R   0.431577 0.502593 0.290366 0.943204
C32   C     C_R   0.250519 0.563454 0.980530 -0.140625
C33   C     C_R   0.385828 0.503981 0.167429 -0.134563
C34   C     C_R   0.726818 0.472556 0.905157 -0.124104
C35   C     C_R   0.732649 0.416332 0.003469 0.121978
C36   C     C_R   0.629998 0.408858 0.028775 0.134149
H1    H     H_    0.707614 0.805196 0.646066 0.187359
H2    H     H_    0.270504 0.003412 0.311743 0.171145
H3    H     H_    0.621387 0.166421 0.620941 0.204803
H4    H     H_    0.176423 0.651866 0.370308 0.170161
H5    H     H_    0.262960 0.654623 0.798173 0.141091
H6    H     H_    0.166776 0.597865 0.923714 0.191478
H7    H     H_    0.560213 0.462445 0.183010 0.202107
N1    N     N_R   0.798200 0.480260 0.519790 -0.132883
N2    N     N_R   0.201820 0.519740 0.480210 -0.127720
O1    O     O_R   0.579910 0.341070 0.505280 -0.628480
O2    O     O_R   0.388440 0.353740 0.492580 -0.559677
O3    O     O_R   0.643280 0.490550 0.663120 -0.540022
O4    O     O_R   0.451810 0.503220 0.650420 -0.624582
O5    O     O_R   0.611560 0.646260 0.507420 -0.614807
O6    O     O_R   0.420090 0.658930 0.494720 -0.630979
O7    O     O_R   0.548190 0.496780 0.349580 -0.578332
O8    O     O_R   0.356720 0.509450 0.336880 -0.617984
Zn1   Zn    Zn3+2 0.627850 0.491540 0.508480 1.046554
Zn2   Zn    Zn3+2 0.372150 0.508460 0.491520 1.001985
C37   C     C_2   0.167777 0.546121 0.126137 0.445109
H8    H     H_    0.160627 0.497903 0.194598 0.140856
O9    O     O_2   0.087911 0.606717 0.075312 -0.536863
C38   C     C_2   0.744028 0.997235 0.714621 0.442356
H9    H     H_    0.832333 0.965314 0.739155 0.084301
O10   O     O_2   0.730538 0.057624 0.776468 -0.522784
C39   C     C_2   0.251060 0.204266 0.309577 0.455646
H10   H     H_    0.162784 0.164796 0.266771 0.099539
O11   O     O_2   0.265730 0.295538 0.282631 -0.586335
C40   C     C_2   0.788470 0.655448 0.427737 0.562843
H11   H     H_    0.832635 0.726421 0.470735 -0.004553
O12   O     O_2   0.693707 0.660766 0.344058 -0.503502
C41   C     C_2   0.816292 0.310627 0.628833 0.496129
H12   H     H_    0.815405 0.227508 0.617418 0.063116
O13   O     O_2   0.788844 0.337669 0.702391 -0.568918
C42   C     C_2   0.951599 0.694109 0.317776 0.434985
H13   H     H_    0.994366 0.771871 0.318976 0.073885
O14   O     O_2   0.854610 0.672533 0.240578 -0.481083
I1    I     I_    0.987498 0.208566 0.524413 -0.316599
I2    I     I_    0.264006 0.345497 0.663710 -0.254348
C43   C     C_2   0.835977 0.489095 0.880263 0.630699
H14   H     H_    0.907818 0.434406 0.912647 0.086155
O15   O     O_2   0.848761 0.566728 0.825695 -0.542516
I3    I     I_    0.606753 0.272270 0.124971 -0.230084
I4    I     I_    0.894920 0.343223 0.114620 -0.249313
C44   C     C_2   0.448851 0.694995 0.742481 0.465270
H15   H     H_    0.368273 0.732273 0.683042 0.059868
O16   O     O_2   0.548006 0.728856 0.748356 -0.579747
I5    I     I_    0.318306 0.805382 0.271609 -0.324532

loop_
_geom_bond_atom_site_label_1
_geom_bond_atom_site_label_2
_ccdc_geom_bond_type
C14   C18   A    
C35   C36   A    
C8    H7    S    
C31   O7    A    
C12   O3    A    
C12   O4    A    
O3    Zn1   S    
C11   C19   A    
C26   C27   A    
O5    Zn1   S    
C24   N2    A    
C43   O15   D    
C21   C38   S    
C3    C7    A    
C5    C6    A    
C30   I1    S    
C1    O1    A    
C35   I4    S    
C37   H8    S    
C18   C19   A    
C39   O11   D    
C9    C32   A    
C41   H12   S    
C16   C17   A    
C40   O12   D    
C6    H5    S    
C31   C33   S    
C4    C8    A    
C5    C32   A    
C38   H9    S    
C9    C33   A    
C34   C35   A    
C44   O16   D    
O7    Zn1   S    
C44   H15   S    
O8    Zn2   S    
C11   C20   A    
C38   O10   D    
C43   H14   S    
C42   O14   D    
C1    O2    A    
C23   O5    A    
C25   C26   A    
O4    Zn2   S    
C28   N1    A    
C17   C21   A    
C25   I2    S    
C2    C4    A    
C29   C30   A    
C14   H2    S    
C29   C41   S    
C23   O6    A    
O1    Zn1   S    
C39   H10   S    
C17   C18   A    
C10   C34   A    
C9    C37   S    
C31   O8    A    
C10   C12   S    
C7    C44   S    
C26   C30   A    
C22   C27   A    
C13   C15   A    
C29   N1    A    
C22   C24   A    
C1    C13   S    
C19   I5    S    
C25   N2    A    
C22   C42   S    
O2    Zn2   S    
C2    C36   A    
C4    C5    A    
C36   I3    S    
C6    C7    A    
C2    C3    A    
C42   H13   S    
C3    C10   A    
C20   H1    S    
C11   C23   S    
C24   H4    S    
C15   C39   S    
C37   O9    D    
C28   C40   S    
O6    Zn2   S    
C8    C33   A    
C16   H3    S    
N1    Zn1   S    
C20   C21   A    
N2    Zn2   S    
C41   O13   D    
C40   H11   S    
C13   C16   A    
C27   C28   A    
C32   H6    S    
C14   C15   A    
C34   C43   S    
