data_mof_unit_59554.cif
_audit_creation_date              2012-12-11T14:40:59-0500
_audit_creation_method            fapswitch 2.2
_symmetry_space_group_name_H-M    P1
_symmetry_Int_Tables_number       1
_space_group_crystal_system       triclinic
_cell_length_a                    6.93633
_cell_length_b                    17.671631
_cell_length_c                    18.976228
_cell_angle_alpha                 89.955923
_cell_angle_beta                  89.999929
_cell_angle_gamma                 89.999841
_cell_volume                      2326.03444959

loop_
_atom_site_label
_atom_site_type_symbol
_atom_type_description
_atom_site_fract_x
_atom_site_fract_y
_atom_site_fract_z
_atom_type_partial_charge
O1    O     O_R   0.377350 0.828520 0.186660 -0.531493
O2    O     O_R   0.622650 0.171480 0.813340 -0.531609
O3    O     O_R   0.122650 0.171480 0.686660 -0.533076
O4    O     O_R   0.877350 0.828520 0.313340 -0.530574
O5    O     O_R   0.877350 0.671480 0.313340 -0.531610
O6    O     O_R   0.122650 0.328520 0.686660 -0.531493
O7    O     O_R   0.622650 0.328520 0.813340 -0.530573
O8    O     O_R   0.377350 0.671480 0.186660 -0.533075
O9    O     O_R   0.707090 0.671930 0.178410 -0.543611
O10   O     O_R   0.292910 0.328070 0.821590 -0.542587
O11   O     O_R   0.792910 0.328070 0.678410 -0.541617
O12   O     O_R   0.207090 0.671930 0.321590 -0.539897
O13   O     O_R   0.207090 0.828070 0.321590 -0.542587
O14   O     O_R   0.792910 0.171930 0.678410 -0.543611
O15   O     O_R   0.292910 0.171930 0.821590 -0.539899
O16   O     O_R   0.707090 0.828070 0.178410 -0.541618
C1    C     C_R   0.537010 0.644509 0.162515 0.713132
C2    C     C_R   0.462589 0.355632 0.837202 0.707168
C3    C     C_R   0.962537 0.355593 0.662732 0.706588
C4    C     C_R   0.037567 0.644567 0.337468 0.701897
C5    C     C_R   0.037411 0.855633 0.337202 0.707167
C6    C     C_R   0.962991 0.144509 0.662515 0.713130
C7    C     C_R   0.462433 0.144567 0.837468 0.701895
C8    C     C_R   0.537462 0.855593 0.162733 0.706586
O17   O     O_3   0.543850 0.750000 0.294270 -0.363283
O18   O     O_3   0.456150 0.250000 0.705730 -0.367112
O19   O     O_3   0.956150 0.250000 0.794270 -0.363283
O20   O     O_3   0.043850 0.750000 0.205730 -0.367112
V1    V     V_3+5 0.818700 0.750000 0.241790 1.410652
V2    V     V_3+5 0.181300 0.250000 0.758210 1.412539
V3    V     V_3+5 0.681300 0.250000 0.741790 1.410652
V4    V     V_3+5 0.318700 0.750000 0.258210 1.412541
C9    C     C_R   0.980984 0.420139 0.612489 -0.063441
C10   C     C_R   0.019871 0.580090 0.387839 -0.059964
C11   C     C_R   0.516054 0.580394 0.111723 -0.072998
C12   C     C_R   0.481793 0.420090 0.887456 -0.065575
C13   C     C_R   0.480131 0.080089 0.887839 -0.059970
C14   C     C_R   0.519014 0.920139 0.112489 -0.063446
C15   C     C_R   0.018204 0.920090 0.387455 -0.065578
C16   C     C_R   0.983949 0.080394 0.611723 -0.073000
C17   C     C_R   0.866032 0.461473 0.424209 -0.173632
C18   C     C_R   0.136333 0.538470 0.576034 -0.173038
C19   C     C_R   0.649771 0.534914 0.926009 -0.174197
C20   C     C_R   0.349055 0.465205 0.073218 -0.165316
C21   C     C_R   0.363643 0.038465 0.076030 -0.173040
C22   C     C_R   0.633993 0.961478 0.924213 -0.173633
C23   C     C_R   0.150960 0.965208 0.573215 -0.165319
C24   C     C_R   0.850214 0.034911 0.426012 -0.174199
C25   C     C_R   0.904542 0.515779 0.371796 0.161955
C26   C     C_R   0.098588 0.483937 0.628344 0.162693
C27   C     C_R   0.607456 0.481859 0.872943 0.162013
C28   C     C_R   0.385103 0.520012 0.125354 0.155601
C29   C     C_R   0.401393 0.983934 0.128342 0.162692
C30   C     C_R   0.595478 0.015782 0.871799 0.161953
C31   C     C_R   0.114911 0.020014 0.625352 0.155604
C32   C     C_R   0.892530 0.981857 0.372945 0.162013
C33   C     C_R   0.099683 0.586190 0.455794 -0.268005
C34   C     C_R   0.900651 0.414267 0.544626 -0.268469
C35   C     C_R   0.394284 0.415864 0.954197 -0.270274
C36   C     C_R   0.608246 0.583334 0.045723 -0.267653
C37   C     C_R   0.599362 0.914270 0.044628 -0.268471
C38   C     C_R   0.400304 0.086186 0.955791 -0.268006
C39   C     C_R   0.891747 0.083332 0.545725 -0.267654
C40   C     C_R   0.105722 0.915866 0.454195 -0.270275
C41   C     C_R   0.060211 0.531332 0.508016 0.113282
C42   C     C_R   0.940866 0.468961 0.492364 0.113965
C43   C     C_R   0.435842 0.469935 0.006808 0.113005
C44   C     C_R   0.566416 0.529340 0.993004 0.114132
C45   C     C_R   0.559144 0.968963 0.992365 0.113965
C46   C     C_R   0.439780 0.031330 0.008015 0.113282
C47   C     C_R   0.933579 0.029339 0.493005 0.114132
C48   C     C_R   0.064164 0.969936 0.506807 0.113005
H1    H     H_    0.812989 0.365403 0.531689 0.119236
H2    H     H_    0.186730 0.635210 0.468763 0.119252
H3    H     H_    0.705578 0.629755 0.034270 0.121294
H4    H     H_    0.298941 0.368894 0.965966 0.121295
H5    H     H_    0.313243 0.135204 0.968759 0.119256
H6    H     H_    0.687037 0.865409 0.031693 0.119239
H7    H     H_    0.201075 0.868898 0.465963 0.121297
H8    H     H_    0.794406 0.129750 0.534274 0.121297
H9    H     H_    0.776578 0.413007 0.411529 0.122593
H10   H     H_    0.226738 0.586694 0.588609 0.122433
H11   H     H_    0.747638 0.581205 0.914590 0.122307
H12   H     H_    0.248752 0.419545 0.083900 0.116956
H13   H     H_    0.273224 0.086685 0.088604 0.122434
H14   H     H_    0.723462 0.913015 0.911535 0.122592
H15   H     H_    0.251271 0.919550 0.583895 0.116957
H16   H     H_    0.752339 0.081200 0.414594 0.122307
C49   C     C_3   0.186492 0.497101 0.700019 -0.785702
H17   H     H_    0.144618 0.554040 0.719456 0.202063
H18   H     H_    0.139286 0.455637 0.740151 0.204867
H19   H     H_    0.345887 0.494546 0.695800 0.208059
C50   C     C_3   0.820267 0.501708 0.299766 -0.784447
H20   H     H_    0.865787 0.445049 0.280726 0.201818
H21   H     H_    0.660903 0.502926 0.303452 0.204021
H22   H     H_    0.866424 0.543439 0.259724 0.204663
C51   C     C_3   0.278865 0.513412 0.194436 -0.757884
H23   H     H_    0.207329 0.457510 0.200205 0.195784
H24   H     H_    0.379828 0.520247 0.239186 0.192351
H25   H     H_    0.165609 0.557544 0.197343 0.214378
C52   C     C_3   0.698772 0.494328 0.801760 -0.778621
H26   H     H_    0.672114 0.553360 0.784146 0.200161
H27   H     H_    0.856439 0.485212 0.806009 0.207917
H28   H     H_    0.640277 0.456724 0.760312 0.204008
C53   C     C_3   0.679770 0.001715 0.799771 -0.784422
H29   H     H_    0.634292 0.945049 0.780733 0.201812
H30   H     H_    0.633585 0.043438 0.759726 0.204658
H31   H     H_    0.839133 0.002950 0.803458 0.204017
C54   C     C_3   0.313475 0.997094 0.200015 -0.785688
H32   H     H_    0.355315 0.054038 0.219450 0.202061
H33   H     H_    0.154083 0.994526 0.195794 0.208057
H34   H     H_    0.360701 0.955638 0.240149 0.204863
C55   C     C_3   0.801202 0.994324 0.301764 -0.778615
H35   H     H_    0.827843 0.053357 0.284151 0.200161
H36   H     H_    0.859703 0.956723 0.260315 0.204005
H37   H     H_    0.643540 0.985201 0.306015 0.207914
C56   C     C_3   0.221160 0.013416 0.694431 -0.757880
H38   H     H_    0.292707 0.957516 0.700198 0.195784
H39   H     H_    0.334410 0.057551 0.697337 0.214377
H40   H     H_    0.120202 0.020248 0.739184 0.192350

loop_
_geom_bond_atom_site_label_1
_geom_bond_atom_site_label_2
_ccdc_geom_bond_type
C9    C34   A    
C19   H11   S    
O13   V4    S    
C18   H10   S    
O14   V3    S    
C12   C35   A    
C19   C27   A    
C13   C38   A    
O5    C4    A    
O6    C3    A    
C53   H30   S    
O11   C3    A    
C50   H20   S    
C16   C39   A    
O20   V1    S    
C54   H33   S    
C37   C45   A    
C28   C51   S    
C38   C46   A    
C22   C45   A    
C38   H5    S    
C35   C43   A    
C34   C42   A    
C19   C44   A    
C18   C41   A    
C8    C14   S    
C32   C55   S    
C24   H16   S    
C49   H18   S    
O4    V1    S    
O9    V1    S    
C14   C37   A    
C4    C10   S    
C20   C28   A    
O17   V4    S    
O15   C7    A    
O11   V3    S    
O18   V3    S    
O16   C8    A    
O12   V4    S    
O19   V2    S    
C22   C30   A    
C17   C25   A    
C51   H24   S    
C51   H23   S    
O5    V1    S    
C39   H8    S    
O17   V1    S    
C53   H31   S    
O7    V3    S    
C20   C43   A    
O19   V3    S    
C43   C44   A    
O8    V4    S    
C52   H26   S    
O20   V4    S    
C3    C9    S    
C54   H34   S    
C6    C16   S    
C9    C26   A    
C7    C13   S    
O1    V4    S    
C55   H36   S    
C11   C36   A    
C23   H15   S    
C33   H2    S    
O3    V2    S    
C21   H13   S    
C15   C40   A    
C10   C33   A    
O10   V2    S    
C26   C49   S    
C15   C32   A    
C5    C15   S    
C37   H6    S    
O7    C2    A    
C17   H9    S    
O12   C4    A    
O13   C5    A    
C49   H19   S    
C12   C27   A    
C18   C26   A    
C13   C30   A    
O9    C1    A    
O6    V2    S    
C39   C47   A    
O18   V2    S    
C50   H22   S    
C40   H7    S    
C56   H40   S    
C24   C47   A    
O2    C7    A    
C51   H25   S    
O15   V2    S    
C23   C31   A    
C55   H35   S    
C31   C56   S    
C29   C54   S    
C24   C32   A    
C10   C25   A    
C30   C53   S    
C21   C46   A    
C33   C41   A    
C20   H12   S    
C16   C31   A    
C17   C42   A    
C27   C52   S    
C53   H29   S    
C36   H3    S    
O8    C1    A    
C52   H27   S    
C55   H37   S    
C56   H39   S    
O16   V1    S    
C47   C48   A    
C54   H32   S    
O4    C5    A    
O14   C6    A    
C14   C29   A    
O10   C2    A    
C40   C48   A    
C45   C46   A    
C23   C48   A    
C21   C29   A    
C36   C44   A    
O1    C8    A    
C50   H21   S    
C41   C42   A    
C11   C28   A    
O2    V3    S    
O3    C6    A    
C52   H28   S    
C1    C11   S    
C25   C50   S    
C49   H17   S    
C56   H38   S    
C2    C12   S    
C35   H4    S    
C34   H1    S    
C22   H14   S    
