data_mof_unit_29991.cif
_audit_creation_date              2012-12-10T17:44:32-0500
_audit_creation_method            fapswitch 2.2
_symmetry_space_group_name_H-M    P1
_symmetry_Int_Tables_number       1
_space_group_crystal_system       triclinic
_cell_length_a                    9.924821
_cell_length_b                    10.637285
_cell_length_c                    15.489173
_cell_angle_alpha                 92.464201
_cell_angle_beta                  68.464493
_cell_angle_gamma                 89.889273
_cell_volume                      1519.40234519

loop_
_atom_site_label
_atom_site_type_symbol
_atom_type_description
_atom_site_fract_x
_atom_site_fract_y
_atom_site_fract_z
_atom_type_partial_charge
C1    C     C_R   0.500462 0.739280 0.498920 0.829055
C2    C     C_R   0.402427 0.564730 0.917814 0.123663
C3    C     C_R   0.257060 0.535010 0.971066 0.162779
C4    C     C_R   0.500556 0.593999 0.962747 0.010790
C5    C     C_R   0.460052 0.568291 0.057351 0.091671
C6    C     C_R   0.312308 0.547958 0.110074 -0.093247
C7    C     C_R   0.211900 0.533303 0.067406 -0.241804
C8    C     C_R   0.636810 0.648284 0.916880 -0.220757
C9    C     C_R   0.734489 0.668423 0.961604 0.287489
C10   C     C_R   0.703204 0.624651 0.050899 0.025277
C11   C     C_R   0.567885 0.567815 0.096850 -0.107086
C12   C     C_R   0.409490 0.503126 0.675851 0.851774
C13   C     C_R   0.803770 0.635289 0.095468 -0.158982
C14   C     C_R   0.771426 0.589499 0.183502 -0.324930
C15   C     C_R   0.546547 0.507742 0.179357 0.616408
C16   C     C_R   0.483194 0.854224 0.337701 -0.232376
C17   C     C_R   0.476454 0.911625 0.260381 -0.284465
C18   C     C_R   0.480824 0.041929 0.256750 0.292727
C19   C     C_R   0.491292 0.115615 0.331011 0.546319
C20   C     C_R   0.495844 0.058629 0.411280 -0.098901
C21   C     C_R   0.492955 0.926779 0.413832 0.044833
C22   C     C_R   0.504372 0.870953 0.491866 -0.040934
C23   C     C_R   0.502718 0.260373 0.495544 0.978299
C24   C     C_R   0.522715 0.940690 0.564456 -0.177137
C25   C     C_R   0.523836 0.068983 0.562962 -0.185351
C26   C     C_R   0.507574 0.127407 0.488594 -0.090270
C27   C     C_R   0.795265 0.677258 0.614699 -0.293052
C28   C     C_R   0.836627 0.769414 0.666041 0.620812
C29   C     C_R   0.976280 0.768349 0.665847 -0.209223
C30   C     C_R   0.074505 0.674273 0.615532 -0.251489
C31   C     C_R   0.039841 0.586105 0.556957 0.152148
C32   C     C_R   0.895535 0.586827 0.556642 0.111469
C33   C     C_R   0.960049 0.417352 0.445332 -0.108313
C34   C     C_R   0.590204 0.501800 0.324396 1.007888
C35   C     C_R   0.103152 0.417517 0.445240 -0.064885
C36   C     C_R   0.353184 0.517442 0.777240 -0.069099
C37   C     C_R   0.642065 0.526387 0.225811 -0.166439
C38   C     C_R   0.159832 0.504439 0.927012 -0.147123
C39   C     C_R   0.207593 0.496163 0.830366 -0.142039
C40   C     C_R   0.448322 0.554019 0.821015 -0.225096
H1    H     H_    0.100105 0.515230 0.109544 0.154996
H2    H     H_    0.906135 0.681386 0.064189 0.202961
H3    H     H_    0.533073 0.895532 0.623257 0.183148
H4    H     H_    0.482600 0.752778 0.336400 0.165258
H5    H     H_    0.469698 0.854316 0.202639 0.193834
H6    H     H_    0.534524 0.123289 0.620958 0.169268
H7    H     H_    0.932151 0.349851 0.400638 0.159434
H8    H     H_    0.684103 0.679689 0.622769 0.216111
H9    H     H_    0.008007 0.839129 0.706601 0.219664
H10   H     H_    0.175947 0.672561 0.624575 0.230917
H11   H     H_    0.182619 0.350135 0.400432 0.203887
H12   H     H_    0.845662 0.606156 0.219281 0.189239
H13   H     H_    0.048222 0.483023 0.967178 0.160492
H14   H     H_    0.131968 0.469742 0.797394 0.175782
H15   H     H_    0.560426 0.567318 0.778555 0.157519
H16   H     H_    0.271477 0.547143 0.185015 0.194126
H17   H     H_    0.666775 0.681655 0.847710 0.201524
N1    N     N_R   0.856800 0.501200 0.500850 -0.104258
N2    N     N_R   0.142390 0.501280 0.500880 -0.117263
O1    O     O_R   0.385310 0.683220 0.500000 -0.644998
O2    O     O_R   0.614640 0.683250 0.500010 -0.630795
O3    O     O_R   0.319840 0.499980 0.632240 -0.635351
O4    O     O_R   0.549160 0.500000 0.632250 -0.630581
O5    O     O_R   0.385360 0.316750 0.499990 -0.580292
O6    O     O_R   0.614690 0.316780 0.500000 -0.615460
O7    O     O_R   0.450840 0.500000 0.367750 -0.545155
O8    O     O_R   0.680160 0.500020 0.367760 -0.627005
Zn1   Zn    Zn3+2 0.346880 0.499980 0.499990 0.987278
Zn2   Zn    Zn3+2 0.653120 0.500020 0.500010 0.956804
Br1   Br    Br    0.475744 0.118567 0.148437 -0.349059
F1    F     F_    0.502341 0.241363 0.321832 -0.640872
F2    F     F_    0.739342 0.858493 0.718116 -0.659240
F3    F     F_    0.436961 0.425424 0.213217 -0.620811
Br2   Br    Br    0.911421 0.752317 0.896209 -0.541502

loop_
_geom_bond_atom_site_label_1
_geom_bond_atom_site_label_2
_ccdc_geom_bond_type
C27   H8    S    
C18   Br1   S    
O7    Zn1   S    
C16   C21   A    
C34   C37   S    
C19   F1    S    
C19   C20   A    
C32   N1    A    
C4    C8    A    
C34   O7    A    
C29   H9    S    
C33   N1    A    
C5    C6    A    
O5    Zn1   S    
C28   C29   A    
C17   H5    S    
C5    C11   A    
C3    C7    A    
C30   C31   A    
C8    H17   S    
C39   H14   S    
C35   N2    A    
C18   C19   A    
C23   C26   S    
C31   N2    A    
C15   C37   A    
C11   C15   A    
C14   H12   S    
O4    Zn2   S    
C3    C38   A    
C8    C9    A    
C12   C36   S    
C9    C10   A    
C16   H4    S    
C30   H10   S    
C1    C22   S    
C21   C22   A    
C28   F2    S    
C13   H2    S    
C36   C40   A    
C24   C25   A    
C1    O1    A    
C12   O4    A    
C16   C17   A    
C25   C26   A    
O8    Zn2   S    
C2    C4    A    
C29   C30   A    
N2    Zn1   S    
C12   O3    A    
C31   C32   A    
C40   H15   S    
C17   C18   A    
C23   O5    A    
C15   F3    S    
C35   H11   S    
C33   H7    S    
C22   C24   A    
C9    Br2   S    
O2    Zn2   S    
C27   C32   A    
C36   C39   A    
C6    H16   S    
C4    C5    A    
C10   C13   A    
C1    O2    A    
C34   O8    A    
N1    Zn2   S    
C6    C7    A    
O3    Zn1   S    
C23   O6    A    
C2    C3    A    
C14   C37   A    
C38   C39   A    
C38   H13   S    
C20   C26   A    
O6    Zn2   S    
C33   C35   A    
C7    H1    S    
C10   C11   A    
C2    C40   A    
C20   C21   A    
O1    Zn1   S    
C27   C28   A    
C24   H3    S    
C13   C14   A    
C25   H6    S    
