data_mof_unit_44758.cif
_audit_creation_date              2012-12-10T19:11:31-0500
_audit_creation_method            fapswitch 2.2
_symmetry_space_group_name_H-M    P1
_symmetry_Int_Tables_number       1
_space_group_crystal_system       triclinic
_cell_length_a                    10.618797
_cell_length_b                    9.722535
_cell_length_c                    10.495871
_cell_angle_alpha                 90.510088
_cell_angle_beta                  90.049572
_cell_angle_gamma                 90.059398
_cell_volume                      1083.56684411

loop_
_atom_site_label
_atom_site_type_symbol
_atom_type_description
_atom_site_fract_x
_atom_site_fract_y
_atom_site_fract_z
_atom_type_partial_charge
C1    C     C_R   0.257678 0.500220 0.499918 0.828877
C2    C     C_3   0.927615 0.425136 0.378982 -0.415492
C3    C     C_3   0.379931 0.080561 0.446433 -0.235504
C4    C     C_3   0.380007 0.918251 0.446251 -0.241735
C5    C     C_3   0.602858 0.080572 0.417311 -0.237927
C6    C     C_3   0.603046 0.918195 0.417584 -0.239852
C7    C     C_3   0.516575 0.082258 0.627367 -0.234995
C8    C     C_3   0.516289 0.920187 0.627368 -0.208744
C9    C     C_R   0.499069 0.499331 0.257412 0.913040
C10   C     C_R   0.742506 0.500318 0.499667 0.842915
C11   C     C_R   0.501624 0.500710 0.742699 0.929143
C12   C     C_3   0.499391 0.498127 0.122967 -0.098037
C13   C     C_3   0.402093 0.576279 0.043306 -0.234838
C14   C     C_3   0.487140 0.368180 0.039353 -0.199904
C15   C     C_3   0.391147 0.447150 0.956392 -0.302026
C16   C     C_3   0.501618 0.502062 0.877688 -0.101465
C17   C     C_3   0.513176 0.628611 0.963817 0.531108
C18   C     C_3   0.596294 0.425256 0.959760 0.495355
C19   C     C_3   0.611120 0.553411 0.045371 -0.416882
C20   C     C_3   0.549449 0.854811 0.017442 0.081730
C21   C     C_3   0.561375 0.999544 0.966111 -0.847466
C22   C     C_3   0.782382 0.312102 0.000102 0.107069
C23   C     C_3   0.071655 0.651513 0.499234 -0.400303
C24   C     C_3   0.880314 0.214815 0.944251 -0.873428
C25   C     C_3   0.072211 0.428131 0.620582 -0.430912
C26   C     C_3   0.928746 0.651604 0.499006 -0.401973
C27   C     C_3   0.927697 0.428266 0.620431 -0.387012
C28   C     C_3   0.072187 0.425027 0.379145 -0.400650
C29   C     C_3   0.121306 0.501135 0.499716 0.205513
C30   C     C_3   0.878791 0.501296 0.499498 0.191314
H1    H     H_    0.302807 0.404490 0.915315 0.153066
H2    H     H_    0.606445 0.121048 0.668866 0.172948
H3    H     H_    0.605877 0.882009 0.669122 0.172292
H4    H     H_    0.440065 0.120672 0.690619 0.154961
H5    H     H_    0.439349 0.883141 0.690235 0.188977
H6    H     H_    0.695365 0.118932 0.452489 0.144078
H7    H     H_    0.695485 0.881149 0.453290 0.142182
H8    H     H_    0.323510 0.638547 0.082926 0.129483
H9    H     H_    0.474623 0.263317 0.077662 0.142078
H10   H     H_    0.699072 0.595531 0.087676 0.119015
H11   H     H_    0.106193 0.706558 0.413375 0.164271
H12   H     H_    0.892350 0.476525 0.291528 0.142813
H13   H     H_    0.106658 0.320067 0.623472 0.171022
H14   H     H_    0.106039 0.708711 0.584926 0.170273
H15   H     H_    0.107592 0.481660 0.707778 0.155042
H16   H     H_    0.894356 0.709004 0.584485 0.172970
H17   H     H_    0.892431 0.481857 0.707552 0.179440
H18   H     H_    0.894472 0.706477 0.412930 0.163713
H19   H     H_    0.892884 0.320255 0.623193 0.183277
H20   H     H_    0.107596 0.476357 0.291755 0.151452
H21   H     H_    0.106655 0.316902 0.376936 0.168284
H22   H     H_    0.640006 0.829349 0.065095 0.139170
H23   H     H_    0.892794 0.317067 0.376612 0.166351
H24   H     H_    0.471781 0.853480 0.088709 0.137026
H25   H     H_    0.469380 0.035035 0.928329 0.244271
H26   H     H_    0.592366 0.069135 0.044191 0.203482
H27   H     H_    0.632686 0.002121 0.889008 0.259544
H28   H     H_    0.736366 0.260559 0.082246 0.128834
H29   H     H_    0.832442 0.405896 0.034512 0.134638
H30   H     H_    0.931544 0.265746 0.865475 0.252348
H31   H     H_    0.949094 0.186004 0.019155 0.204941
H32   H     H_    0.834329 0.120119 0.907047 0.253550
H33   H     H_    0.363726 0.118380 0.348032 0.142321
H34   H     H_    0.364030 0.878719 0.347739 0.139355
H35   H     H_    0.299441 0.118324 0.504697 0.143590
H36   H     H_    0.299431 0.881321 0.504283 0.144014
H37   H     H_    0.593414 0.117767 0.317814 0.138650
H38   H     H_    0.594143 0.878703 0.318225 0.137909
N1    N     N_3   0.499750 0.138610 0.497240 -0.034106
N2    N     N_3   0.499750 0.861390 0.497240 -0.040221
O1    O     O_R   0.314910 0.616040 0.499970 -0.639941
O2    O     O_3   0.693925 0.345971 0.905056 -0.617483
O3    O     O_R   0.314910 0.383960 0.499970 -0.638935
O4    O     O_R   0.500080 0.616020 0.313900 -0.636222
O5    O     O_R   0.500080 0.383980 0.313900 -0.635432
O6    O     O_R   0.685320 0.616040 0.499930 -0.639462
O7    O     O_R   0.685320 0.383960 0.499930 -0.630534
O8    O     O_R   0.500150 0.616060 0.686000 -0.599550
O9    O     O_R   0.500150 0.383940 0.686000 -0.612040
O10   O     O_3   0.524821 0.762943 0.915723 -0.618771
Zn1   Zn    Zn3+2 0.500150 0.654960 0.499940 0.907144
Zn2   Zn    Zn3+2 0.500150 0.345040 0.499940 0.907002

loop_
_geom_bond_atom_site_label_1
_geom_bond_atom_site_label_2
_ccdc_geom_bond_type
C24   H31   S    
C14   C18   S    
C5    H37   S    
C25   H13   S    
C4    N2    S    
C7    C8    S    
C1    O1    A    
C23   C29   S    
C28   C29   S    
C3    N1    S    
C5    C6    S    
C28   H21   S    
C15   C16   S    
C5    H6    S    
C18   C19   S    
C23   C26   S    
N2    Zn1   S    
C5    N1    S    
N1    Zn2   S    
C14   H9    S    
C10   O6    A    
C16   C17   S    
C26   H18   S    
C6    H38   S    
C27   C30   S    
C18   O2    S    
C3    H35   S    
C28   H20   S    
C22   O2    S    
C10   O7    A    
C25   C29   S    
C20   O10   S    
C20   H24   S    
C22   H29   S    
C21   H25   S    
C17   O10   S    
C23   H14   S    
C8    H5    S    
C21   H27   S    
C11   O8    A    
C21   H26   S    
C11   C16   S    
C10   C30   S    
C24   H30   S    
C1    C29   S    
C6    H7    S    
C12   C13   S    
C13   H8    S    
C11   O9    A    
C12   C14   S    
C26   C30   S    
C13   C15   S    
C7    H4    S    
C22   C24   S    
C9    O4    A    
O4    Zn1   S    
C3    C4    S    
C25   H15   S    
O3    Zn2   S    
C27   H17   S    
C6    N2    S    
C24   H32   S    
C7    H2    S    
C2    H23   S    
O6    Zn1   S    
C22   H28   S    
O9    Zn2   S    
O5    Zn2   S    
C15   H1    S    
C3    H33   S    
C25   C27   S    
C4    H34   S    
C8    N2    S    
C23   H11   S    
C13   C17   S    
C2    C30   S    
C1    O3    A    
C7    N1    S    
C20   H22   S    
C4    H36   S    
O8    Zn1   S    
O7    Zn2   S    
C2    H12   S    
C12   C19   S    
C17   C19   S    
C8    H3    S    
C9    C12   S    
C19   H10   S    
C26   H16   S    
C20   C21   S    
C16   C18   S    
C14   C15   S    
C2    C28   S    
C9    O5    A    
C27   H19   S    
O1    Zn1   S    
