data_mof_unit_29151.cif
_audit_creation_date              2012-10-26T20:42:29-0400
_audit_creation_method            fapswitch 2.2
_symmetry_space_group_name_H-M    P1
_symmetry_Int_Tables_number       1
_space_group_crystal_system       triclinic
_cell_length_a                    10.858732
_cell_length_b                    9.641509
_cell_length_c                    11.007356
_cell_angle_alpha                 87.445215
_cell_angle_beta                  93.698492
_cell_angle_gamma                 88.988759
_cell_volume                      1148.62367828

loop_
_atom_site_label
_atom_site_type_symbol
_atom_type_description
_atom_site_fract_x
_atom_site_fract_y
_atom_site_fract_z
_atom_type_partial_charge
C1    C     C_R   0.263804 0.501001 0.512641 0.535939
C2    C     C_R   0.942201 0.376091 0.543710 0.223423
C3    C     C_R   0.873058 0.495419 0.497720 -0.097506
C4    C     C_R   0.130726 0.504966 0.531818 -0.110697
C5    C     C_R   0.935120 0.619130 0.469808 0.237524
C6    C     C_R   0.060114 0.627501 0.500949 0.244182
C7    C     C_R   0.412693 0.078456 0.429266 0.237566
C8    C     C_R   0.578187 0.067514 0.579126 0.220894
C9    C     C_R   0.415884 0.929533 0.426926 0.234782
C10   C     C_R   0.586242 0.920517 0.570451 0.250117
C11   C     C_3   0.272776 0.274475 0.949010 -0.305163
C12   C     C_R   0.737794 0.498531 0.497044 0.538139
C13   C     C_3   0.545245 0.153077 0.114785 -0.329343
C14   C     C_3   0.189306 0.127914 0.382618 -0.254335
C15   C     C_3   0.584730 0.113813 0.792786 -0.300038
C16   C     C_3   0.349381 0.890830 0.215752 -0.286028
C17   C     C_3   0.723396 0.815884 0.739046 -0.254422
C18   C     C_R   0.500277 0.502760 0.265464 0.527361
C19   C     C_R   0.507114 0.496209 0.733622 0.506700
C20   C     C_2   0.460269 0.414081 0.936672 0.231092
C21   C     C_2   0.500529 0.398516 0.066455 0.222185
C22   C     C_2   0.536885 0.481670 0.864032 0.263191
C23   C     C_2   0.483453 0.510329 0.132520 0.240273
C24   C     C_R   0.069368 0.382798 0.566217 0.210919
Cu1   Cu    Cu3+1 0.500000 0.640660 0.500000 1.002416
Cu2   Cu    Cu3+1 0.500000 0.359340 0.500000 0.931851
H1    H     H_    0.302970 0.424965 0.811244 0.235982
H2    H     H_    0.495402 0.705382 0.104177 0.321025
H3    H     H_    0.207078 0.296241 0.664482 0.328785
H4    H     H_    0.848011 0.221756 0.492453 0.332595
H5    H     H_    0.814025 0.703315 0.351817 0.324783
H6    H     H_    0.166605 0.761529 0.573946 0.331154
H7    H     H_    0.332515 0.246610 0.315177 0.291013
H8    H     H_    0.182180 0.065828 0.469338 0.215410
H9    H     H_    0.139183 0.228203 0.387462 0.179067
H10   H     H_    0.143068 0.073226 0.306349 0.137585
H11   H     H_    0.676117 0.224791 0.662721 0.331317
H12   H     H_    0.310959 0.178589 0.912352 0.131153
H13   H     H_    0.490660 0.161013 0.783629 0.172014
H14   H     H_    0.641008 0.165295 0.864869 0.175881
H15   H     H_    0.573914 0.003972 0.822325 0.125401
H16   H     H_    0.245437 0.860146 0.364588 0.293732
H17   H     H_    0.304132 0.991388 0.185413 0.128107
H18   H     H_    0.302846 0.810123 0.161976 0.201311
H19   H     H_    0.448420 0.894324 0.197236 0.136168
H20   H     H_    0.774542 0.894065 0.572692 0.292606
H21   H     H_    0.765832 0.904592 0.785792 0.159396
H22   H     H_    0.791577 0.728519 0.749617 0.144979
H23   H     H_    0.172486 0.281609 0.921982 0.177358
H24   H     H_    0.638266 0.784730 0.782469 0.175821
H25   H     H_    0.283641 0.269107 0.050133 0.149823
H26   H     H_    0.653460 0.315999 0.174979 0.263934
H27   H     H_    0.497702 0.124224 0.027880 0.132501
H28   H     H_    0.480961 0.144757 0.188298 0.163360
H29   H     H_    0.623922 0.079204 0.136892 0.150659
H30   H     H_    0.704168 0.540279 0.842363 0.311428
N1    N     N_R   0.500000 0.852070 0.500000 -0.228625
N2    N     N_R   0.500000 0.147940 0.500000 -0.246768
N3    N     N_2   0.332889 0.394992 0.899262 -0.528735
N4    N     N_2   0.590203 0.292604 0.105295 -0.516591
N5    N     N_2   0.316622 0.152883 0.357705 -0.530719
N6    N     N_2   0.644456 0.126991 0.678789 -0.487968
N7    N     N_2   0.335985 0.859334 0.343766 -0.441781
N8    N     N_2   0.699050 0.850539 0.610694 -0.433204
O1    O     O_R   0.319640 0.618740 0.499990 -0.466786
O2    O     O_3   0.440339 0.632346 0.073524 -0.717647
O3    O     O_3   0.129809 0.267073 0.621473 -0.654387
O4    O     O_3   0.888125 0.251475 0.570250 -0.636320
O5    O     O_3   0.876530 0.735209 0.413509 -0.641527
O6    O     O_3   0.109617 0.757684 0.500130 -0.663586
O7    O     O_R   0.680360 0.618740 0.500010 -0.455508
O8    O     O_R   0.319620 0.381170 0.499990 -0.488538
O9    O     O_R   0.680380 0.381170 0.500010 -0.516031
O10   O     O_R   0.500000 0.618750 0.321940 -0.475881
O11   O     O_R   0.500000 0.618750 0.678060 -0.500467
O12   O     O_R   0.499970 0.381180 0.321940 -0.541038
O13   O     O_R   0.500030 0.381180 0.678060 -0.540372
O14   O     O_3   0.652405 0.518431 0.911234 -0.722893

loop_
_geom_bond_atom_site_label_1
_geom_bond_atom_site_label_2
_ccdc_geom_bond_type
Cu2   O8    S    
C17   H22   S    
H11   N6    S    
C13   N4    S    
C23   O2    S    
C2    O4    S    
C17   N8    S    
C14   H10   S    
C5    C6    A    
C4    C24   A    
Cu2   O9    S    
H30   O14   S    
C6    O6    S    
Cu1   O10   S    
C19   O13   A    
C7    N5    S    
C5    O5    S    
C3    C12   S    
H26   N4    S    
C24   O3    S    
C8    N2    A    
H3    O3    S    
C1    O1    A    
Cu1   O7    S    
C16   N7    S    
C16   H18   S    
C7    N2    A    
C18   O10   A    
C12   O9    A    
Cu1   N1    S    
C11   N3    S    
C13   H27   S    
Cu2   O13   S    
C18   C23   S    
C1    O8    A    
C10   N1    A    
Cu1   O1    S    
C15   H15   S    
C21   N4    S    
C4    C6    A    
C14   H9    S    
H6    O6    S    
Cu1   Cu2   S    
C14   N5    S    
H20   N8    S    
Cu1   O11   S    
C16   H19   S    
C11   H12   S    
H2    O2    S    
C11   H23   S    
Cu2   O12   S    
C19   C22   S    
C20   N3    S    
Cu2   N2    S    
C16   H17   S    
C15   H13   S    
C8    C10   A    
C12   O7    A    
C20   C22   D    
C21   C23   D    
C2    C24   A    
C13   H28   S    
C7    C9    A    
C18   O12   A    
C9    N7    S    
C10   N8    S    
C17   H21   S    
C3    C5    A    
C17   H24   S    
C14   H8    S    
C1    C4    S    
C19   O11   A    
C2    C3    A    
H1    N3    S    
C22   O14   S    
C15   N6    S    
C9    N1    A    
C15   H14   S    
C11   H25   S    
H5    O5    S    
C20   C21   S    
H7    N5    S    
H16   N7    S    
H4    O4    S    
C8    N6    S    
C13   H29   S    
