data_mof_unit_58267.cif
_audit_creation_date              2012-12-10T17:24:12-0500
_audit_creation_method            fapswitch 2.2
_symmetry_space_group_name_H-M    P1
_symmetry_Int_Tables_number       1
_space_group_crystal_system       triclinic
_cell_length_a                    19.331773
_cell_length_b                    10.94917
_cell_length_c                    9.611462
_cell_angle_alpha                 88.516851
_cell_angle_beta                  88.895733
_cell_angle_gamma                 94.255094
_cell_volume                      2027.68234599

loop_
_atom_site_label
_atom_site_type_symbol
_atom_type_description
_atom_site_fract_x
_atom_site_fract_y
_atom_site_fract_z
_atom_type_partial_charge
C1    C     C_R   0.502149 0.262956 0.502284 0.843720
C2    C     C_R   0.291458 0.515085 0.499838 -0.144576
C3    C     C_R   0.931440 0.543170 0.479153 0.407627
C4    C     C_R   0.072171 0.552121 0.476281 0.439040
C5    C     C_R   0.818639 0.547911 0.609420 -0.156653
C6    C     C_R   0.746381 0.536304 0.614655 -0.206627
C7    C     C_R   0.708892 0.509840 0.494254 -0.023390
C8    C     C_R   0.745026 0.495145 0.368354 -0.195440
C9    C     C_R   0.817349 0.506194 0.363099 -0.161093
C10   C     C_R   0.854904 0.532959 0.483590 0.058144
C11   C     C_R   0.535966 0.112329 0.757470 -0.272927
C12   C     C_R   0.367419 0.503292 0.501010 0.821029
C13   C     C_R   0.528668 0.046663 0.886561 0.518993
C14   C     C_R   0.492464 0.931582 0.888122 -0.164209
C15   C     C_R   0.472967 0.876209 0.764349 -0.208948
C16   C     C_R   0.490869 0.934438 0.634019 0.044074
C17   C     C_R   0.509419 0.061151 0.634090 0.050368
C18   C     C_R   0.503949 0.129629 0.508012 -0.187322
C19   C     C_R   0.499602 0.068272 0.383074 -0.274497
C20   C     C_R   0.509855 0.944796 0.382243 0.480841
C21   C     C_R   0.496467 0.872557 0.504797 -0.222787
C22   C     C_R   0.602013 0.646071 0.133965 -0.121367
C23   C     C_R   0.498545 0.737911 0.500072 0.800543
C24   C     C_R   0.657390 0.703856 0.057328 -0.231008
C25   C     C_R   0.654309 0.712414 0.914353 -0.204933
C26   C     C_R   0.598599 0.654672 0.847326 -0.143457
C27   C     C_R   0.548018 0.576709 0.920790 0.182520
C28   C     C_R   0.548931 0.574496 0.069975 0.207282
C29   C     C_R   0.455203 0.424766 0.078647 -0.120606
C30   C     C_R   0.456467 0.421931 0.930935 0.007791
C31   C     C_R   0.632556 0.501984 0.498550 0.748024
C32   C     C_R   0.254241 0.560643 0.613534 0.454976
C33   C     C_R   0.184164 0.581396 0.599479 -0.225063
C34   C     C_R   0.148207 0.547023 0.479841 -0.014284
C35   C     C_R   0.184788 0.500769 0.368175 -0.156462
C36   C     C_R   0.255605 0.486538 0.377501 -0.236654
Cu1   Cu    Cu3+1 0.500000 0.499990 0.640660 0.937038
Cu2   Cu    Cu3+1 0.500000 0.500010 0.359340 0.936105
H1    H     H_    0.566310 0.198636 0.749609 0.159833
H2    H     H_    0.481989 0.881857 0.986079 0.188728
H3    H     H_    0.443808 0.788385 0.773884 0.205926
H4    H     H_    0.419448 0.361955 0.138267 0.145970
H5    H     H_    0.602044 0.661014 0.242362 0.193318
H6    H     H_    0.701102 0.748478 0.109457 0.141501
H7    H     H_    0.694748 0.765531 0.855028 0.149729
H8    H     H_    0.598701 0.672133 0.738040 0.196163
H9    H     H_    0.157410 0.621406 0.685075 0.166056
H10   H     H_    0.158633 0.474844 0.273773 0.165385
H11   H     H_    0.282372 0.451731 0.288773 0.168374
H12   H     H_    0.845981 0.568314 0.704294 0.153646
H13   H     H_    0.720028 0.549741 0.712668 0.155403
H14   H     H_    0.717450 0.475223 0.273742 0.151553
H15   H     H_    0.843721 0.494178 0.264532 0.154235
H16   H     H_    0.501238 0.118489 0.284427 0.201485
N1    N     N_R   0.036220 0.518092 0.361850 -0.239171
N2    N     N_R   0.967212 0.513980 0.363168 -0.241110
N3    N     N_R   0.967452 0.578519 0.592851 -0.241948
N4    N     N_R   0.036354 0.582816 0.591452 -0.242658
N5    N     N_R   0.500660 0.501210 0.147910 -0.203354
N6    N     N_R   0.500680 0.501290 0.852040 -0.223633
O1    O     O_R   0.499990 0.319640 0.618810 -0.574632
O2    O     O_R   0.500000 0.319660 0.381240 -0.595540
O3    O     O_R   0.400140 0.499970 0.618820 -0.551961
O4    O     O_R   0.400150 0.500000 0.381250 -0.580115
O5    O     O_R   0.500000 0.680340 0.618760 -0.613003
O6    O     O_R   0.500010 0.680360 0.381190 -0.553161
O7    O     O_R   0.599850 0.500000 0.618750 -0.608829
O8    O     O_R   0.599860 0.500030 0.381180 -0.610084
O9    O     O_3   0.285662 0.590842 0.737254 -0.609024
C37   C     C_3   0.281769 0.486212 0.827648 0.092344
H17   H     H_    0.325116 0.498846 0.900853 0.171330
H18   H     H_    0.288498 0.400111 0.771091 0.152727
C38   C     C_3   0.214313 0.472394 0.915242 -0.395969
H19   H     H_    0.210800 0.553593 0.981351 0.233940
H20   H     H_    0.168598 0.464751 0.847409 0.225208
C39   C     C_3   0.211869 0.356367 0.007330 -0.891939
H21   H     H_    0.257266 0.358309 0.076304 0.244153
H22   H     H_    0.212235 0.274193 0.941968 0.268984
H23   H     H_    0.163524 0.348810 0.072084 0.260107
O10   O     O_3   0.555531 0.085748 0.013478 -0.607971
C40   C     C_3   0.584494 0.208246 0.013513 0.043600
H24   H     H_    0.580821 0.241075 0.121485 0.165320
H25   H     H_    0.554419 0.271557 0.952078 0.144226
C41   C     C_3   0.661386 0.216679 0.969417 -0.374130
H26   H     H_    0.691556 0.171222 0.050315 0.226649
H27   H     H_    0.668790 0.168901 0.870348 0.217837
C42   C     C_3   0.689488 0.350034 0.950137 -0.896026
H28   H     H_    0.661084 0.395356 0.866433 0.267566
H29   H     H_    0.745426 0.354439 0.920490 0.258095
H30   H     H_    0.683192 0.399834 0.048146 0.254088
O11   O     O_3   0.543868 0.903479 0.267415 -0.583544
C43   C     C_3   0.616913 0.910394 0.289178 0.082681
H31   H     H_    0.641190 0.900094 0.186005 0.197974
H32   H     H_    0.630431 0.833895 0.359405 0.103773
C44   C     C_3   0.650617 0.032252 0.343116 -0.410954
H33   H     H_    0.633524 0.110690 0.280988 0.238065
H34   H     H_    0.635775 0.042677 0.454103 0.213171
C45   C     C_3   0.729656 0.035372 0.333977 -0.908225
H35   H     H_    0.748442 0.958793 0.397447 0.259458
H36   H     H_    0.752322 0.123372 0.374270 0.266721
H37   H     H_    0.747526 0.027758 0.224235 0.251863
C46   C     C_1   0.415548 0.324943 0.866229 0.254835
N7    N     N_1   0.382996 0.245663 0.815494 -0.300847

loop_
_geom_bond_atom_site_label_1
_geom_bond_atom_site_label_2
_ccdc_geom_bond_type
C42   H28   S    
C16   C21   A    
C29   H4    S    
C44   H33   S    
C38   H19   S    
C19   C20   A    
C39   H23   S    
N1    N2    A    
C2    C12   S    
C1    O2    A    
C40   H24   S    
C44   C45   S    
C7    C8    A    
C31   O7    A    
C1    C18   S    
Cu1   Cu2   S    
C23   O6    A    
C39   H22   S    
C18   C19   A    
C27   N6    A    
C5    C6    A    
C12   O4    A    
C15   C16   A    
C2    C32   A    
C34   C35   A    
Cu1   O3    S    
C29   N5    A    
C8    C9    A    
Cu1   O5    S    
C41   C42   S    
C24   C25   A    
C37   H17   S    
C6    H13   S    
C9    C10   A    
C8    H14   S    
C13   O10   S    
C22   C28   A    
C13   C14   A    
C38   H20   S    
C46   N7    T    
C35   H10   S    
C40   H25   S    
C33   C34   A    
Cu2   O4    S    
C31   O8    A    
C20   O11   S    
C4    C34   S    
C7    C31   S    
Cu2   O6    S    
C41   H26   S    
C15   H3    S    
O11   C43   S    
C12   O3    A    
C16   C17   A    
C25   C26   A    
C43   C44   S    
C30   N6    A    
C35   C36   A    
C29   C30   A    
C3    N2    A    
C22   H5    S    
C30   C46   S    
C37   C38   S    
C43   H32   S    
C17   C18   A    
C26   C27   A    
C39   H21   S    
C11   H1    S    
C32   O9    S    
C3    N3    A    
C19   H16   S    
Cu2   O8    S    
C45   H36   S    
C21   C23   S    
C4    N1    A    
C33   H9    S    
C38   C39   S    
C22   C24   A    
C5    H12   S    
C9    H15   S    
C25   H7    S    
C40   C41   S    
C28   N5    A    
C2    C36   A    
C11   C17   A    
C41   H27   S    
O10   C40   S    
C1    O1    A    
Cu1   O1    S    
C44   H34   S    
C6    C7    A    
C45   H37   S    
C32   C33   A    
C23   O5    A    
C42   H29   S    
C5    C10   A    
C3    C10   S    
C11   C13   A    
N3    N4    A    
C24   H6    S    
Cu1   O7    S    
C43   H31   S    
O9    C37   S    
Cu1   N6    S    
C26   H8    S    
C14   H2    S    
Cu2   N5    S    
C20   C21   A    
C45   H35   S    
C42   H30   S    
C4    N4    A    
C27   C28   A    
C14   C15   A    
C37   H18   S    
C36   H11   S    
Cu2   O2    S    
