data_mof_unit_57368.cif
_audit_creation_date              2012-12-11T15:42:39-0500
_audit_creation_method            fapswitch 2.2
_symmetry_space_group_name_H-M    P1
_symmetry_Int_Tables_number       1
_space_group_crystal_system       triclinic
_cell_length_a                    6.929139
_cell_length_b                    14.556733
_cell_length_c                    16.224617
_cell_angle_alpha                 90.504914
_cell_angle_beta                  89.574092
_cell_angle_gamma                 90.229737
_cell_volume                      1636.38466985

loop_
_atom_site_label
_atom_site_type_symbol
_atom_type_description
_atom_site_fract_x
_atom_site_fract_y
_atom_site_fract_z
_atom_type_partial_charge
O1    O     O_R   0.505810 0.583360 0.413880 -0.540292
O2    O     O_R   0.175870 0.595480 0.585520 -0.543886
O3    O     O_R   0.005540 0.416640 0.586120 -0.542392
C1    C     C_R   0.344762 0.617679 0.614656 0.686386
O4    O     O_R   0.176100 0.594390 0.414490 -0.543473
O5    O     O_R   0.005770 0.415540 0.413870 -0.540732
C2    C     C_R   0.345663 0.616508 0.385749 0.686079
O6    O     O_R   0.505580 0.584460 0.586130 -0.540488
O7    O     O_3   0.339190 0.441320 0.500000 -0.368161
V1    V     V_3+5 0.064350 0.510890 0.500000 1.396558
O8    O     O_R   0.676050 0.404520 0.414480 -0.544215
C3    C     C_R   0.845387 0.382026 0.385927 0.697104
O9    O     O_R   0.675830 0.405610 0.585510 -0.535421
C4    C     C_R   0.843289 0.384273 0.614034 0.748867
V2    V     V_3+5 0.564340 0.489110 0.500000 1.399388
O10   O     O_3   0.839370 0.558680 0.500000 -0.372259
C5    C     C_2   0.732336 0.207754 0.785496 -0.152855
C6    C     C_2   0.893898 0.164157 0.810122 -0.009183
H1    H     H_    0.601175 0.200725 0.822093 0.119353
C7    C     C_2   0.714719 0.261013 0.707943 0.181043
C8    C     C_2   0.850829 0.324040 0.686724 -0.316748
H2    H     H_    0.974592 0.334210 0.726341 0.121331
C9    C     C_R   0.036123 0.236714 0.207635 -0.217993
H3    H     H_    0.168613 0.231460 0.172120 0.153800
C10   C     C_R   0.026826 0.301273 0.271903 -0.160331
H4    H     H_    0.152649 0.343420 0.284319 0.129933
C11   C     C_R   0.856643 0.312509 0.318465 -0.075430
C12   C     C_R   0.697068 0.256513 0.300341 -0.195822
H5    H     H_    0.565999 0.263377 0.336665 0.119512
C13   C     C_R   0.705528 0.189852 0.237040 0.218219
C14   C     C_R   0.876507 0.180604 0.188603 -0.064670
C15   C     C_R   0.188288 0.724181 0.718910 -0.157636
H6    H     H_    0.047423 0.706424 0.694968 0.115825
C16   C     C_R   0.199858 0.786412 0.785188 -0.150842
H7    H     H_    0.067213 0.814908 0.809904 0.117814
C17   C     C_R   0.379604 0.811641 0.818894 -0.046648
C18   C     C_R   0.547445 0.772879 0.784186 -0.156319
H8    H     H_    0.688313 0.790652 0.808117 0.115376
C19   C     C_R   0.535877 0.710657 0.717902 -0.149873
H9    H     H_    0.668530 0.682193 0.693166 0.118145
C20   C     C_R   0.356121 0.685356 0.684247 -0.048302
C21   C     C_R   0.188687 0.722872 0.284333 -0.154441
H10   H     H_    0.047855 0.704120 0.308306 0.116513
C22   C     C_R   0.199414 0.786000 0.219660 -0.152165
H11   H     H_    0.066505 0.814014 0.196041 0.116280
C23   C     C_R   0.378876 0.812609 0.186077 -0.051344
C24   C     C_R   0.547318 0.774309 0.219238 -0.158357
H12   H     H_    0.688144 0.793088 0.195274 0.115593
C25   C     C_R   0.536591 0.711170 0.283909 -0.150932
H13   H     H_    0.669496 0.683164 0.307538 0.117999
C26   C     C_R   0.357112 0.684488 0.317435 -0.047663
O11   O     O_R   0.230120 0.912300 0.917180 -0.543540
O12   O     O_R   0.559740 0.902430 0.088770 -0.543860
O13   O     O_R   0.729930 0.081310 0.089370 -0.515220
C27   C     C_R   0.390235 0.880412 0.117634 0.693159
O14   O     O_R   0.559840 0.901330 0.917750 -0.545324
O15   O     O_R   0.730030 0.080210 0.917120 -0.549113
C28   C     C_R   0.390954 0.879194 0.888571 0.678850
O16   O     O_R   0.230020 0.913400 0.089430 -0.540944
O17   O     O_3   0.396460 0.055470 0.003290 -0.357634
V3    V     V_3+5 0.671360 0.985960 0.003250 1.418115
O18   O     O_R   0.059740 0.091300 0.917690 -0.538973
C29   C     C_R   0.892903 0.109356 0.886773 0.730047
O19   O     O_R   0.059640 0.092400 0.088720 -0.542505
C30   C     C_R   0.890014 0.113427 0.118656 0.707145
V4    V     V_3+5 0.171350 0.007820 0.003190 1.421702
O20   O     O_3   0.896380 0.938200 0.003220 -0.378089
C31   C     C_3   0.075393 0.160834 0.757395 -0.776845
H14   H     H_    0.154831 0.095748 0.767184 0.201282
H15   H     H_    0.042099 0.162608 0.690623 0.219836
H16   H     H_    0.172291 0.218733 0.774357 0.204857
C32   C     C_3   0.537137 0.243482 0.656802 -0.727976
H17   H     H_    0.457158 0.182346 0.679393 0.192502
H18   H     H_    0.438649 0.303370 0.660535 0.213803
H19   H     H_    0.578607 0.229486 0.591651 0.199926
N1    N     N_3   0.542199 0.130474 0.223409 -0.648328
H20   H     H_    0.581108 0.064631 0.242273 0.211409
H21   H     H_    0.425293 0.150144 0.260566 0.213474

loop_
_geom_bond_atom_site_label_1
_geom_bond_atom_site_label_2
_ccdc_geom_bond_type
C27   O16   A    
C1    O6    A    
C24   C25   A    
O13   C30   A    
O18   C29   A    
C4    C8    S    
C17   C18   A    
N1    H21   S    
C17   C28   S    
O16   V4    S    
O5    C3    A    
C13   C14   A    
C6    C29   S    
C1    C20   S    
C6    C31   S    
V2    O10   S    
C5    C7    S    
C16   H7    S    
O12   V3    S    
C31   H14   S    
C25   C26   A    
C23   C27   S    
C15   C20   A    
O1    V2    S    
O7    V1    S    
C21   C26   A    
V4    O20   S    
O17   V4    S    
O9    C4    A    
C21   C22   A    
C32   H19   S    
C22   C23   A    
O15   C29   A    
O12   C27   A    
O18   V4    S    
C3    C11   S    
N1    H20   S    
C32   H18   S    
C19   H9    S    
O4    C2    A    
C10   H4    S    
O17   V3    S    
C9    C14   A    
O2    C1    A    
C18   H8    S    
C13   N1    S    
V3    O20   S    
C24   H12   S    
C9    H3    S    
C5    C6    D    
O19   V4    S    
O3    C4    A    
O11   C28   A    
O6    V2    S    
O8    V2    S    
O9    V2    S    
C21   H10   S    
O2    V1    S    
O11   V4    S    
C22   H11   S    
C14   C30   S    
C23   C24   A    
C12   H5    S    
O1    C2    A    
C32   H17   S    
O5    V1    S    
O8    C3    A    
O15   V3    S    
O13   V3    S    
C10   C11   A    
C15   H6    S    
C12   C13   A    
O7    V2    S    
C2    C26   S    
O4    V1    S    
C18   C19   A    
O3    V1    S    
V1    O10   S    
O19   C30   A    
C31   H16   S    
C5    H1    S    
O14   C28   A    
C16   C17   A    
C9    C10   A    
C7    C8    D    
C19   C20   A    
C31   H15   S    
C25   H13   S    
C11   C12   A    
O14   V3    S    
C7    C32   S    
C8    H2    S    
C15   C16   A    
