data_mof_unit_28958.cif
_audit_creation_date              2012-12-10T18:32:56-0500
_audit_creation_method            fapswitch 2.2
_symmetry_space_group_name_H-M    P1
_symmetry_Int_Tables_number       1
_space_group_crystal_system       triclinic
_cell_length_a                    15.060822
_cell_length_b                    15.401024
_cell_length_c                    15.731121
_cell_angle_alpha                 90.233952
_cell_angle_beta                  104.777481
_cell_angle_gamma                 82.404039
_cell_volume                      3495.5431384

loop_
_atom_site_label
_atom_site_type_symbol
_atom_type_description
_atom_site_fract_x
_atom_site_fract_y
_atom_site_fract_z
_atom_type_partial_charge
C1    C     C_R   0.442255 0.662370 0.490013 0.857758
C2    C     C_R   0.594564 0.246152 0.538135 -0.045515
C3    C     C_R   0.297520 0.869722 0.531443 -0.206052
C4    C     C_R   0.501180 0.500598 0.661516 0.903493
C5    C     C_R   0.320207 0.783511 0.508276 -0.197534
C6    C     C_R   0.475995 0.812264 0.516210 -0.264748
C7    C     C_R   0.457107 0.896233 0.546237 0.090961
C8    C     C_R   0.365362 0.926467 0.550084 0.179679
C9    C     C_R   0.526353 0.952213 0.567323 0.073307
C10   C     C_R   0.499345 0.042631 0.575568 0.061915
C11   C     C_R   0.407939 0.070997 0.582104 -0.262349
C12   C     C_3   0.405146 0.515233 0.023117 -0.429644
C13   C     C_R   0.342656 0.013079 0.571276 -0.235312
C14   C     C_R   0.621446 0.920867 0.578786 -0.233230
C15   C     C_R   0.685770 0.978368 0.582920 -0.241302
C16   C     C_R   0.558154 0.337967 0.515451 0.873593
C17   C     C_R   0.656653 0.068147 0.573760 0.177491
C18   C     C_R   0.563638 0.101261 0.572199 0.075774
C19   C     C_R   0.718493 0.124997 0.562526 -0.216908
C20   C     C_R   0.687086 0.213543 0.543064 -0.207828
C21   C     C_R   0.535653 0.191307 0.557979 -0.271227
C22   C     C_R   0.840599 0.642078 0.627417 -0.325521
C23   C     C_3   0.504151 0.495013 0.083858 0.240382
C24   C     C_R   0.752273 0.617689 0.606205 0.014216
C25   C     C_R   0.794732 0.509078 0.511285 -0.062412
C26   C     C_R   0.886217 0.530044 0.530712 -0.003472
C27   C     C_R   0.907964 0.598659 0.589530 0.179900
C28   C     C_R   0.498887 0.499295 0.338402 0.916608
C29   C     C_R   0.955744 0.486086 0.493480 0.083573
C30   C     C_R   0.046025 0.513158 0.513814 0.085098
C31   C     C_R   0.064148 0.582205 0.572370 -0.240173
C32   C     C_R   0.996367 0.623644 0.609759 -0.215690
C33   C     C_R   0.937855 0.415537 0.436980 -0.241855
C34   C     C_3   0.548158 0.403216 0.060024 -0.174310
C35   C     C_R   0.004688 0.374190 0.399497 -0.218693
C36   C     C_R   0.091746 0.400942 0.416878 0.173433
C37   C     C_R   0.114842 0.469887 0.474685 -0.002125
C38   C     C_R   0.156137 0.357860 0.376701 -0.356492
C39   C     C_R   0.244342 0.381629 0.393888 0.129226
C40   C     C_3   0.409211 0.511433 0.926431 -0.390532
C41   C     C_R   0.206279 0.491474 0.490471 -0.086886
C42   C     C_3   0.560693 0.578759 0.968887 0.015904
C43   C     C_3   0.559781 0.568970 0.068620 -0.392611
C44   C     C_1   0.497135 0.496766 0.249083 -0.174852
C45   C     C_3   0.563744 0.409844 0.966020 -0.183882
C46   C     C_3   0.511919 0.499964 0.919815 0.188264
C47   C     C_R   0.634093 0.361109 0.129601 0.136790
C48   C     C_R   0.625425 0.291436 0.183420 -0.142037
C49   C     C_R   0.701059 0.252793 0.249327 -0.124386
C50   C     C_R   0.786926 0.282393 0.262060 -0.131019
C51   C     C_R   0.797240 0.350785 0.208933 -0.135528
C52   C     C_R   0.721628 0.390041 0.143203 -0.149199
C53   C     C_R   0.309708 0.330923 0.350971 0.173638
C54   C     C_R   0.320066 0.360163 0.270101 -0.112199
C55   C     C_R   0.374826 0.307343 0.225142 -0.161672
C56   C     C_1   0.498676 0.495201 0.174128 -0.088986
C57   C     C_R   0.416775 0.223893 0.259153 -0.131979
C58   C     C_R   0.403174 0.192803 0.337512 -0.127577
C59   C     C_R   0.348364 0.245466 0.382342 -0.149530
C60   C     C_R   0.661701 0.584836 0.964795 0.037557
C61   C     C_R   0.708008 0.650411 0.013796 -0.147449
C62   C     C_R   0.798149 0.661354 0.012152 -0.130700
C63   C     C_R   0.844183 0.607955 0.960808 -0.112405
C64   C     C_R   0.799991 0.543755 0.910798 -0.127897
C65   C     C_R   0.709825 0.532284 0.912199 -0.169689
C66   C     C_2   0.505375 0.665341 0.926261 0.378434
C67   C     C_1   0.508056 0.501390 0.827064 -0.132164
C68   C     C_R   0.543691 0.328826 0.910794 0.156355
C69   C     C_R   0.460731 0.291793 0.899780 -0.146827
C70   C     C_R   0.444243 0.219998 0.846064 -0.138894
C71   C     C_R   0.509728 0.184114 0.802448 -0.112482
C72   C     C_R   0.592120 0.219720 0.812604 -0.124304
C73   C     C_R   0.609267 0.291187 0.866535 -0.158271
C74   C     C_1   0.504477 0.501410 0.750992 -0.175075
C75   C     C_R   0.410083 0.754640 0.500841 -0.056344
H1    H     H_    0.372615 0.581483 0.036130 0.214357
H2    H     H_    0.542386 0.790554 0.503624 0.161371
H3    H     H_    0.369075 0.572140 0.890638 0.191150
H4    H     H_    0.385224 0.137324 0.597013 0.145306
H5    H     H_    0.647853 0.851869 0.584854 0.146290
H6    H     H_    0.789790 0.100247 0.564437 0.135504
H7    H     H_    0.013212 0.676211 0.654597 0.142982
H8    H     H_    0.230494 0.542228 0.534041 0.133026
H9    H     H_    0.988196 0.320230 0.356488 0.134006
H10   H     H_    0.856006 0.694500 0.672755 0.143471
H11   H     H_    0.699522 0.650821 0.634967 0.135550
H12   H     H_    0.372480 0.457769 0.893699 0.174232
H13   H     H_    0.770492 0.459514 0.466292 0.131730
H14   H     H_    0.130340 0.605904 0.590965 0.137924
H15   H     H_    0.872944 0.389604 0.420412 0.142186
H16   H     H_    0.138140 0.305094 0.332249 0.148926
H17   H     H_    0.531157 0.631276 0.093613 0.210914
H18   H     H_    0.630805 0.555330 0.112213 0.150397
H19   H     H_    0.638296 0.412328 0.975432 0.128397
H20   H     H_    0.494397 0.359757 0.057388 0.125194
H21   H     H_    0.559693 0.267209 0.174852 0.109528
H22   H     H_    0.693018 0.199760 0.290509 0.130800
H23   H     H_    0.360453 0.467266 0.035842 0.155999
H24   H     H_    0.845447 0.251998 0.312905 0.117348
H25   H     H_    0.864008 0.373425 0.218414 0.135672
H26   H     H_    0.732977 0.441921 0.102917 0.130449
H27   H     H_    0.285698 0.423661 0.241922 0.126834
H28   H     H_    0.383748 0.330672 0.163435 0.120975
H29   H     H_    0.458218 0.182510 0.223976 0.125191
H30   H     H_    0.433871 0.127443 0.362835 0.146110
H31   H     H_    0.334860 0.219455 0.440906 0.122142
H32   H     H_    0.673807 0.693725 0.053609 0.144075
H33   H     H_    0.832163 0.711689 0.050550 0.130078
H34   H     H_    0.273219 0.037051 0.576188 0.144967
H35   H     H_    0.913963 0.616603 0.959412 0.122965
H36   H     H_    0.835640 0.502707 0.870428 0.130946
H37   H     H_    0.680197 0.481806 0.871592 0.134921
H38   H     H_    0.505777 0.682400 0.859455 0.076193
H39   H     H_    0.408373 0.317131 0.932597 0.107759
H40   H     H_    0.380418 0.192130 0.838225 0.131532
H41   H     H_    0.496753 0.128559 0.760986 0.140482
H42   H     H_    0.642746 0.192028 0.778486 0.141974
H43   H     H_    0.673539 0.317854 0.872676 0.112595
H44   H     H_    0.466529 0.219927 0.557606 0.156645
H45   H     H_    0.734475 0.255981 0.530385 0.155451
H46   H     H_    0.757485 0.952238 0.588158 0.144795
H47   H     H_    0.227440 0.891759 0.535642 0.134641
H48   H     H_    0.268298 0.739421 0.497648 0.154184
N1    N     N_R   0.731690 0.552720 0.548990 -0.100176
N2    N     N_R   0.268300 0.447240 0.450950 -0.115118
O1    O     O_R   0.383120 0.605620 0.475300 -0.620668
O2    O     O_R   0.531890 0.639510 0.506740 -0.622210
O3    O     O_R   0.425580 0.483050 0.607130 -0.613006
O4    O     O_R   0.574360 0.516930 0.638570 -0.618239
O5    O     O_R   0.468110 0.360490 0.493260 -0.610773
O6    O     O_R   0.616880 0.394380 0.524700 -0.622640
O7    O     O_R   0.425640 0.483070 0.361430 -0.614353
O8    O     O_R   0.574420 0.516950 0.392870 -0.607550
O9    O     O_2   0.460252 0.716006 0.964297 -0.594077
Zn1   Zn    Zn3+2 0.400660 0.477370 0.479010 0.944224
Zn2   Zn    Zn3+2 0.599340 0.522630 0.520990 0.940836

loop_
_geom_bond_atom_site_label_1
_geom_bond_atom_site_label_2
_ccdc_geom_bond_type
C5    C75   A    
C8    C13   A    
C39   N2    A    
C66   H38   S    
C55   H28   S    
C18   C21   A    
C19   C20   A    
C53   C59   A    
C23   C56   S    
C39   C53   S    
C45   C46   S    
C40   C46   S    
C12   C23   S    
C50   H24   S    
C62   C63   A    
C40   H12   S    
C36   C37   A    
C30   C31   A    
C62   H33   S    
C41   H8    S    
C29   C33   A    
C24   N1    A    
C23   C43   S    
C15   C17   A    
C42   C46   S    
C22   H10   S    
C16   O6    A    
C13   H34   S    
C43   H18   S    
C66   O9    D    
O5    Zn1   S    
C68   C69   A    
C31   H14   S    
C72   H42   S    
O8    Zn2   S    
C70   C71   A    
C14   H5    S    
C16   O5    A    
C9    C10   A    
C12   H23   S    
C3    H47   S    
N2    Zn1   S    
C37   C41   A    
C61   C62   A    
C45   C68   S    
C45   H19   S    
C25   C26   A    
C50   C51   A    
C69   H39   S    
C52   H26   S    
C59   H31   S    
C4    O3    A    
C2    C20   A    
C51   C52   A    
C1    C75   S    
C41   N2    A    
C7    C8    A    
O2    Zn2   S    
C3    C8    A    
O3    Zn1   S    
C42   C60   S    
C67   C74   T    
N1    Zn2   S    
C17   C19   A    
C64   H36   S    
C3    C5    A    
C58   C59   A    
C53   C54   A    
C38   H16   S    
C28   C44   S    
C25   H13   S    
C28   O8    A    
C30   C37   A    
C60   C61   A    
C28   O7    A    
C35   C36   A    
C12   C40   S    
C47   C52   A    
C9    C14   A    
C65   H37   S    
C29   C30   A    
O4    Zn2   S    
C44   C56   T    
C47   C48   A    
C23   C34   S    
C2    C21   A    
C17   C18   A    
C26   C27   A    
C34   C45   S    
C34   H20   S    
C4    O4    A    
C11   H4    S    
C48   C49   A    
O1    Zn1   S    
O6    Zn2   S    
C22   C27   A    
C55   C57   A    
C1    O1    A    
C40   H3    S    
C42   C43   S    
C20   H45   S    
C2    C16   S    
C51   H25   S    
C7    C9    A    
C57   H29   S    
C54   C55   A    
C73   H43   S    
C48   H21   S    
C27   C32   A    
C4    C74   S    
C54   H27   S    
C31   C32   A    
C1    O2    A    
C72   C73   A    
C6    H2    S    
C60   C65   A    
C35   H9    S    
C6    C7    A    
C70   H40   S    
C32   H7    S    
C5    H48   S    
C43   H17   S    
C58   H30   S    
C64   C65   A    
C63   H35   S    
C12   H1    S    
C68   C73   A    
C71   C72   A    
C21   H44   S    
C33   H15   S    
C11   C13   A    
C57   C58   A    
C38   C39   A    
C10   C18   A    
O7    Zn1   S    
C36   C38   A    
C33   C35   A    
C71   H41   S    
C22   C24   A    
C15   H46   S    
C69   C70   A    
C61   H32   S    
C25   N1    A    
C10   C11   A    
C49   H22   S    
C63   C64   A    
C46   C67   S    
C26   C29   A    
C49   C50   A    
C42   C66   S    
C14   C15   A    
C34   C47   S    
C19   H6    S    
C24   H11   S    
C6    C75   A    
