data_mof_unit_31254.cif
_audit_creation_date              2012-12-10T18:03:58-0500
_audit_creation_method            fapswitch 2.2
_symmetry_space_group_name_H-M    P1
_symmetry_Int_Tables_number       1
_space_group_crystal_system       triclinic
_cell_length_a                    10.831909
_cell_length_b                    9.596541
_cell_length_c                    10.87069
_cell_angle_alpha                 90.005375
_cell_angle_beta                  91.971507
_cell_angle_gamma                 90.000287
_cell_volume                      1129.32692412

loop_
_atom_site_label
_atom_site_type_symbol
_atom_type_description
_atom_site_fract_x
_atom_site_fract_y
_atom_site_fract_z
_atom_type_partial_charge
C1    C     C_R   0.262291 0.499963 0.499792 0.795142
C2    C     C_R   0.737709 0.499964 0.500206 0.795499
C3    C     C_R   0.409209 0.072691 0.436424 0.299785
C4    C     C_R   0.590811 0.072709 0.563542 0.299909
C5    C     C_R   0.409667 0.923719 0.436657 0.427316
C6    C     C_R   0.590378 0.923739 0.563275 0.425901
C7    C     C_R   0.499202 0.499874 0.262830 0.813355
C8    C     C_R   0.500673 0.499885 0.737171 0.814153
C9    C     C_R   0.499152 0.620480 0.062046 0.094084
C10   C     C_R   0.501539 0.620481 0.938035 0.093125
C11   C     C_R   0.498475 0.498223 0.130113 -0.101551
C12   C     C_R   0.500849 0.498234 0.869878 -0.101263
C13   C     C_R   0.498195 0.371168 0.064483 -0.207795
C14   C     C_R   0.499218 0.371177 0.935408 -0.208054
C15   C     C_3   0.503320 0.775492 0.929246 0.136398
C16   C     C_3   0.500739 0.775474 0.071078 0.135451
C17   C     C_R   0.063868 0.373382 0.499955 -0.167509
C18   C     C_R   0.936133 0.373382 0.500090 -0.167580
C19   C     C_R   0.871682 0.499985 0.500152 -0.026542
C20   C     C_R   0.128318 0.499984 0.499843 -0.026537
C21   C     C_R   0.936130 0.626597 0.500038 -0.161912
C22   C     C_R   0.063869 0.626597 0.499902 -0.162079
Cu1   Cu    Cu3+1 0.500000 0.640660 0.500000 1.051089
Cu2   Cu    Cu3+1 0.500000 0.359340 0.500000 0.957030
H1    H     H_    0.497342 0.272042 0.112088 0.165053
H2    H     H_    0.498743 0.272054 0.887730 0.165386
H3    H     H_    0.420458 0.819586 0.879774 0.129776
H4    H     H_    0.584573 0.817197 0.120573 0.129513
H5    H     H_    0.111807 0.274340 0.499999 0.191844
H6    H     H_    0.888194 0.274340 0.500087 0.191848
H7    H     H_    0.888188 0.725641 0.499995 0.178384
H8    H     H_    0.111811 0.725640 0.499900 0.178425
N1    N     N_R   0.500000 0.852070 0.500000 -0.244944
N2    N     N_R   0.500000 0.147940 0.500000 -0.269571
O1    O     O_R   0.319640 0.618740 0.499990 -0.537265
O2    O     O_R   0.680360 0.618740 0.500010 -0.537007
O3    O     O_R   0.319620 0.381170 0.499990 -0.579224
O4    O     O_R   0.680380 0.381170 0.500010 -0.579168
O5    O     O_R   0.499990 0.618810 0.319660 -0.526064
O6    O     O_R   0.500010 0.618810 0.680340 -0.526571
O7    O     O_R   0.499960 0.381240 0.319650 -0.622900
O8    O     O_R   0.500040 0.381240 0.680350 -0.622952
O9    O     O_3   0.616118 0.823362 0.886634 -0.690892
H9    H     H_    0.610164 0.926557 0.886792 0.322462
O10   O     O_3   0.389044 0.826440 0.113815 -0.691051
H10   H     H_    0.397374 0.929367 0.114095 0.321846
O11   O     O_3   0.313956 0.137758 0.372348 -0.757286
H11   H     H_    0.346064 0.223456 0.336378 0.375725
O12   O     O_3   0.686056 0.137791 0.627632 -0.757598
H12   H     H_    0.653936 0.223475 0.663628 0.375862
O13   O     O_3   0.321464 0.847618 0.371172 -0.655445
H13   H     H_    0.259793 0.910149 0.330931 0.360187
O14   O     O_3   0.678677 0.847662 0.628625 -0.655581
H14   H     H_    0.740638 0.910186 0.668437 0.359792

loop_
_geom_bond_atom_site_label_1
_geom_bond_atom_site_label_2
_ccdc_geom_bond_type
C16   O10   S    
C16   H4    S    
Cu2   O4    S    
O9    H9    S    
C18   H6    S    
C13   C14   A    
C8    C12   S    
C17   H5    S    
C9    C10   A    
C2    O4    A    
C15   H3    S    
O11   H11   S    
C6    N1    A    
C1    O3    A    
C4    O12   S    
Cu1   Cu2   S    
C17   C20   A    
C17   C18   A    
C12   C14   A    
C15   O9    S    
O13   H13   S    
O14   H14   S    
C14   H2    S    
C7    C11   S    
Cu2   O7    S    
C21   H7    S    
C13   H1    S    
C10   C12   A    
Cu1   O5    S    
C9    C11   A    
C3    O11   S    
C19   C21   A    
C9    C16   S    
C8    O8    A    
Cu2   O3    S    
Cu1   O1    S    
C10   C15   S    
C7    O7    A    
C4    N2    A    
C6    O14   S    
C15   C16   S    
Cu1   O2    S    
O10   H10   S    
C11   C13   A    
C22   H8    S    
Cu2   O8    S    
C1    O1    A    
C4    C6    A    
C18   C19   A    
C2    O2    A    
O12   H12   S    
C7    O5    A    
C5    O13   S    
C1    C20   S    
C8    O6    A    
C3    N2    A    
Cu1   N1    S    
C2    C19   S    
C21   C22   A    
Cu2   N2    S    
Cu1   O6    S    
C20   C22   A    
C3    C5    A    
C5    N1    A    
