data_mof_unit_13081.cif
_audit_creation_date              2012-12-10T17:03:42-0500
_audit_creation_method            fapswitch 2.2
_symmetry_space_group_name_H-M    P1
_symmetry_Int_Tables_number       1
_space_group_crystal_system       triclinic
_cell_length_a                    10.067147
_cell_length_b                    10.806651
_cell_length_c                    13.057798
_cell_angle_alpha                 89.157082
_cell_angle_beta                  69.623043
_cell_angle_gamma                 88.682919
_cell_volume                      1331.30263336

loop_
_atom_site_label
_atom_site_type_symbol
_atom_type_description
_atom_site_fract_x
_atom_site_fract_y
_atom_site_fract_z
_atom_type_partial_charge
C1    C     C_R   0.497543 0.736865 0.502336 0.887770
C2    C     C_R   0.417897 0.474143 0.991358 0.067769
C3    C     C_R   0.440120 0.434721 0.884437 -0.003390
C4    C     C_R   0.528169 0.449619 0.033897 0.062307
C5    C     C_R   0.641450 0.364904 0.980417 -0.015792
C6    C     C_R   0.633123 0.297556 0.890573 -0.028635
C7    C     C_R   0.532714 0.332472 0.842903 0.059656
C8    C     C_R   0.532098 0.512849 0.125207 -0.242523
C9    C     C_R   0.745096 0.403919 0.121084 0.120737
C10   C     C_R   0.364771 0.495431 0.824657 -0.127905
C11   C     C_2   0.614384 0.059718 0.497810 0.024361
C12   C     C_R   0.420322 0.497876 0.704885 0.861269
C13   C     C_2   0.516208 0.132756 0.478128 -0.343441
C14   C     C_2   0.610817 0.929396 0.480295 -0.198018
C15   C     C_2   0.489347 0.867649 0.516432 -0.066869
C16   C     C_2   0.107745 0.437713 0.431401 -0.156215
C17   C     C_2   0.953209 0.420165 0.447469 0.124094
C18   C     C_R   0.503307 0.262942 0.496870 0.893856
C19   C     C_R   0.579308 0.499128 0.294849 0.885614
C20   C     C_R   0.755955 0.350522 0.020993 0.060495
C21   C     C_R   0.627019 0.478571 0.176544 -0.113167
C22   C     C_R   0.244326 0.567548 0.879246 -0.254224
C23   C     C_R   0.200537 0.581975 0.991942 0.021928
C24   C     C_R   0.286246 0.535291 0.049647 0.049468
H1    H     H_    0.442025 0.094620 0.443731 0.169911
H2    H     H_    0.712060 0.882004 0.440824 0.164161
H3    H     H_    0.187730 0.390786 0.364278 0.175268
H4    H     H_    0.071848 0.523171 0.571867 0.171627
H5    H     H_    0.458035 0.587073 0.161465 0.181898
H6    H     H_    0.184231 0.612349 0.833980 0.165690
N1    N     N_2   0.148270 0.498670 0.498870 -0.191966
N2    N     N_2   0.852610 0.498640 0.498840 -0.145732
O1    O     O_R   0.386950 0.680940 0.500020 -0.612403
O2    O     O_R   0.613110 0.680900 0.499980 -0.617884
O3    O     O_R   0.330780 0.500000 0.653640 -0.612223
O4    O     O_R   0.556930 0.499960 0.653610 -0.604938
O5    O     O_R   0.386890 0.319100 0.500020 -0.600582
O6    O     O_R   0.613050 0.319060 0.499980 -0.615375
O7    O     O_R   0.443070 0.500040 0.346390 -0.604458
O8    O     O_R   0.669220 0.500000 0.346360 -0.597876
Zn1   Zn    Zn3+2 0.349000 0.500030 0.500020 0.948024
Zn2   Zn    Zn3+2 0.651000 0.499970 0.499980 0.958858
N3    N     N_3   0.852090 0.378405 0.167733 -0.461221
H7    H     H_    0.948944 0.409125 0.113303 0.206947
H8    H     H_    0.860306 0.282411 0.176068 0.179927
N4    N     N_3   0.356020 0.925431 0.578994 -0.442863
H9    H     H_    0.283788 0.909742 0.539488 0.203390
H10   H     H_    0.318390 0.881958 0.655520 0.192221
N5    N     N_3   0.915604 0.310345 0.404874 -0.408252
H11   H     H_    0.006398 0.258153 0.362550 0.157059
H12   H     H_    0.869313 0.337874 0.348338 0.223543
C25   C     C_1   0.890352 0.619934 0.509193 0.295483
N6    N     N_1   0.921110 0.720831 0.517753 -0.243845
C26   C     C_1   0.717611 0.186644 0.849957 0.189186
N7    N     N_1   0.784087 0.097573 0.817240 -0.191872
N8    N     N_3   0.885552 0.285222 0.962909 -0.474013
H13   H     H_    0.869057 0.190022 0.970886 0.201970
H14   H     H_    0.922739 0.313360 0.881021 0.202711
N9    N     N_3   0.231820 0.536287 0.166926 -0.473091
H15   H     H_    0.137183 0.487532 0.193852 0.184082
H16   H     H_    0.208965 0.627879 0.193036 0.192559
C27   C     C_1   0.069129 0.647999 0.047012 0.134896
N10   N     N_1   0.963700 0.700706 0.091224 -0.200729
N11   N     N_3   0.513164 0.251921 0.762997 -0.445450
H17   H     H_    0.586980 0.276129 0.687850 0.230811
H18   H     H_    0.410822 0.260527 0.760319 0.177022
C28   C     C_1   0.721234 0.099458 0.540213 0.247183
N12   N     N_1   0.807142 0.128746 0.574701 -0.178801

loop_
_geom_bond_atom_site_label_1
_geom_bond_atom_site_label_2
_ccdc_geom_bond_type
C2    C4    A    
N3    H7    S    
C6    C7    A    
C1    C15   S    
C5    C20   A    
C12   O4    A    
C11   C13   D    
C26   N7    T    
C9    C20   A    
O4    Zn2   S    
O2    Zn2   S    
C4    C8    A    
C23   C24   A    
O1    Zn1   S    
N11   H17   S    
C16   H3    S    
O8    Zn2   S    
C2    C3    A    
C18   O6    A    
C1    O1    A    
N9    H15   S    
O7    Zn1   S    
C3    C10   A    
N1    Zn1   S    
C10   C22   A    
C16   N1    D    
C2    C24   A    
N3    H8    S    
C9    C21   A    
C27   N10   T    
C10   C12   S    
C13   C18   S    
C6    C26   S    
C24   N9    S    
C8    H5    S    
C19   O7    A    
C19   C21   S    
C18   O5    A    
N8    H14   S    
C1    O2    A    
O6    Zn2   S    
C3    C7    A    
C20   N8    S    
C23   C27   S    
O5    Zn1   S    
C5    C6    A    
O3    Zn1   S    
C11   C14   S    
N4    H10   S    
C7    N11   S    
C9    N3    S    
N9    H16   S    
C19   O8    A    
C28   N12   T    
C25   N6    T    
C13   H1    S    
N5    H11   S    
C17   N5    S    
N8    H13   S    
C17   N2    D    
N2    Zn2   S    
C22   C23   A    
N2    C25   S    
N11   H18   S    
C22   H6    S    
C15   N4    S    
N5    H12   S    
N4    H9    S    
H4    N1    S    
C14   H2    S    
C14   C15   D    
C16   C17   S    
C11   C28   S    
C4    C5    A    
C12   O3    A    
C8    C21   A    
