data_mof_unit_10244.cif
_audit_creation_date              2013-03-05T15:44:47-0500
_audit_creation_method            fapswitch 2.2
_symmetry_space_group_name_H-M    P1
_symmetry_Int_Tables_number       1
_space_group_crystal_system       triclinic
_cell_length_a                    12.888907
_cell_length_b                    13.059688
_cell_length_c                    15.26099
_cell_angle_alpha                 117.142618
_cell_angle_beta                  63.43143
_cell_angle_gamma                 97.407726
_cell_volume                      2035.39493762

loop_
_atom_site_label
_atom_site_type_symbol
_atom_site_description
_atom_site_fract_x
_atom_site_fract_y
_atom_site_fract_z
_atom_type_partial_charge
C1    C     C_R   0.005775 0.835014 0.047993 0.241745
N1    N     N_R   0.037310 0.720000 0.995790 -0.073761
C2    C     C_R   0.677749 0.478447 0.219650 -0.097965
H1    H     H_    0.608397 0.449554 0.195377 0.098866
N2    N     N_R   0.790790 0.446160 0.152010 -0.042692
C3    C     C_R   0.757355 0.517420 0.890341 -0.134503
H2    H     H_    0.781958 0.545351 0.827500 0.109244
N3    N     N_R   0.824890 0.517960 0.936420 -0.048421
C4    C     C_R   0.020775 0.695380 0.300836 -0.120635
H3    H     H_    0.004847 0.652558 0.351158 0.087770
N4    N     N_R   0.003210 0.648190 0.211380 -0.043353
C5    C     C_R   0.676039 0.420627 0.988197 -0.093796
H4    H     H_    0.625725 0.361367 0.018606 0.144360
N5    N     N_R   0.774330 0.457010 0.995840 -0.054281
C6    C     C_R   0.103586 0.794300 0.206962 0.011969
H5    H     H_    0.165642 0.842993 0.171563 0.149587
N6    N     N_R   0.053760 0.709140 0.151960 -0.045871
C7    C     C_R   0.780392 0.564391 0.315672 -0.092805
H6    H     H_    0.806644 0.615613 0.379902 0.098616
N7    N     N_R   0.853860 0.498840 0.211410 -0.046910
C8    C     C_R   0.896984 0.746274 0.959833 -0.131549
H7    H     H_    0.830974 0.727587 0.930917 0.151375
N8    N     N_R   0.974240 0.667310 0.936390 -0.065080
C9    C     C_R   0.910213 0.852404 0.033948 0.047312
C10   C     C_R   0.668279 0.554822 0.323375 0.042896
C11   C     C_R   0.664737 0.455153 0.919984 0.176095
C12   C     C_R   0.086374 0.787129 0.300023 0.049566
C13   C     C_R   0.338748 0.510629 0.944443 -0.123410
H8    H     H_    0.396335 0.543414 0.888060 0.107852
N9    N     N_R   0.225670 0.542990 0.004160 -0.045198
C14   C     C_R   0.973273 0.178502 0.780425 -0.066320
H9    H     H_    0.942007 0.111065 0.804871 0.100815
N10   N     N_R   0.946240 0.290860 0.848040 -0.041658
C15   C     C_R   0.197703 0.511277 0.695516 -0.129406
H10   H     H_    0.157884 0.491517 0.641274 0.093187
N11   N     N_R   0.146140 0.501160 0.788590 -0.042459
C16   C     C_R   0.049178 0.256902 0.090650 -0.083912
H11   H     H_    0.085116 0.277625 0.147959 0.125860
N12   N     N_R   0.025760 0.332690 0.063610 -0.057788
C17   C     C_R   0.949721 0.172559 0.994752 -0.158308
H12   H     H_    0.894791 0.114986 0.962065 0.144479
N13   N     N_R   0.962690 0.280000 0.004210 -0.046787
C18   C     C_R   0.298665 0.597187 0.791379 -0.126646
H13   H     H_    0.351680 0.657379 0.825782 0.110102
N14   N     N_R   0.209210 0.553840 0.847990 -0.041961
C19   C     C_R   0.260193 0.412393 0.042485 -0.075257
H14   H     H_    0.247967 0.357688 0.081136 0.152892
N15   N     N_R   0.175110 0.482040 0.063580 -0.059651
C20   C     C_R   0.058705 0.277194 0.683302 -0.102858
H15   H     H_    0.108343 0.300770 0.617659 0.105112
N16   N     N_R   0.996790 0.351810 0.788620 -0.045968
Ni1   Ni    Ni4+2 0.130310 0.630310 0.999970 0.248690
Ni2   Ni    Ni4+2 0.869690 0.369690 0.000030 0.257640
Ni3   Ni    Ni4+2 0.985640 0.509470 0.863740 0.223019
Ni4   Ni    Ni4+2 0.014360 0.490530 0.136260 0.220303
C21   C     C_R   0.364320 0.426484 0.964988 -0.001828
C22   C     C_R   0.047252 0.166691 0.676301 0.052250
C23   C     C_R   0.293735 0.572219 0.695122 0.054856
C24   C     C_R   0.004130 0.153729 0.047163 0.143667
C25   C     C_R   0.193013 0.954819 0.379361 0.209668
C26   C     C_R   0.174174 0.053978 0.476553 -0.180923
H16   H     H_    0.218860 0.128978 0.472779 0.143841
C27   C     C_R   0.094771 0.057042 0.577326 0.099836
C28   C     C_R   0.052763 0.954221 0.581146 -0.134088
H17   H     H_    0.998271 0.949843 0.657204 0.125297
C29   C     C_R   0.067621 0.857394 0.485569 -0.167425
H18   H     H_    0.021786 0.784692 0.493931 0.122985
C30   C     C_R   0.124725 0.861977 0.384833 0.049131
C31   C     C_R   0.564177 0.660760 0.525878 -0.132074
H19   H     H_    0.642961 0.694358 0.532251 0.122875
C32   C     C_R   0.470468 0.663367 0.619189 -0.138587
H20   H     H_    0.480850 0.698736 0.693762 0.127910
C33   C     C_R   0.371978 0.608066 0.611482 0.125453
C34   C     C_R   0.359267 0.571435 0.515255 -0.154410
H21   H     H_    0.281857 0.534438 0.507962 0.116002
C35   C     C_R   0.453040 0.568894 0.421969 -0.141919
H22   H     H_    0.444213 0.530218 0.346448 0.118974
C36   C     C_R   0.559947 0.601846 0.424562 0.131262
C37   C     C_2   0.482692 0.374752 0.920835 0.303622
C38   C     C_2   0.571922 0.434742 0.886612 -0.293698
H23   H     H_    0.562662 0.499172 0.863993 0.123505
C39   C     C_2   0.827135 0.956803 0.092438 -0.023003
C40   C     C_2   0.799935 0.039770 0.195113 0.338701
I1    I     I_    0.118387 0.963917 0.084544 -0.350419
I2    I     I_    0.334514 0.950840 0.234765 -0.333751
N17   N     N_R   0.502969 0.267139 0.918697 0.239039
O1    O     O_R   0.420740 0.226368 0.979478 -0.393633
O2    O     O_R   0.600874 0.202914 0.846382 -0.366658
I3    I     I_    0.720520 0.967549 0.023298 -0.381046
N18   N     N_R   0.839500 0.037243 0.268228 0.242008
O3    O     O_R   0.841105 0.134616 0.347277 -0.367903
O4    O     O_R   0.843625 0.941822 0.274391 -0.389661

loop_
_geom_bond_atom_site_label_1
_geom_bond_atom_site_label_2
_geom_bond_distance
_ccdc_geom_bond_type
N15   Ni4   1.851107 S    
C29   C30   1.403254 A    
C33   C34   1.402226 A    
C13   C21   1.383747 A    
N2    N7    1.379063 A    
C1    I1    2.118774 S    
C21   C37   1.472751 S    
C34   C35   1.384444 A    
N9    N15   1.369958 A    
C13   H8    1.075887 S    
C35   C36   1.402050 A    
C15   H10   1.079901 S    
N13   Ni2   1.819752 S    
N17   O2    1.302459 A    
C6    H5    1.063833 S    
C20   C22   1.390804 A    
C31   C32   1.384055 A    
C1    N1    1.353500 A    
C26   C27   1.400215 A    
C9    C39   1.487723 S    
C12   C30   1.472533 S    
C18   C23   1.381805 A    
C6    C12   1.381720 A    
N12   Ni4   1.829500 S    
C20   N16   1.339339 A    
C14   N10   1.329666 A    
C4    H3    1.079769 S    
C15   N11   1.334480 A    
C17   N13   1.339368 A    
C29   H18   1.079464 S    
C17   C24   1.384801 A    
C8    H7    1.078051 S    
C31   C36   1.401701 A    
C26   H16   1.082004 S    
C7    C10   1.390097 A    
N7    Ni4   1.851628 S    
N6    Ni1   1.857267 S    
C22   C27   1.460233 S    
N12   N13   1.379079 A    
N10   Ni2   1.857268 S    
C19   N15   1.344537 A    
C34   H21   1.080406 S    
C10   C36   1.462336 S    
C2    C10   1.390483 A    
C35   H22   1.080594 S    
N3    Ni3   1.851108 S    
C32   C33   1.402337 A    
N17   O1    1.301116 A    
C7    H6    1.078358 S    
C3    N3    1.339287 A    
N14   Ni1   1.857292 S    
C11   C38   1.449290 S    
C37   C38   1.346448 D    
C5    C11   1.374430 A    
C25   C26   1.393677 A    
C28   C29   1.375825 A    
C18   H13   1.079971 S    
C16   H11   1.080191 S    
C4    N4    1.329519 A    
N18   O4    1.301193 A    
C14   H9    1.072848 S    
N11   N14   1.379063 A    
C18   N14   1.335326 A    
C16   C24   1.385691 A    
N1    Ni1   1.819750 S    
C17   H12   1.073250 S    
C5    N5    1.330678 A    
C20   H15   1.079336 S    
C8    N8    1.338819 A    
C2    H1    1.077164 S    
N4    Ni4   1.830181 S    
C4    C12   1.376111 A    
N8    Ni3   1.829501 S    
N2    Ni2   1.857292 S    
C6    N6    1.341700 A    
C40   N18   1.432865 S    
N9    Ni1   1.820287 S    
C19   H14   1.074933 S    
N4    N6    1.369946 A    
N3    N5    1.369957 A    
C38   H23   1.081273 S    
C2    N2    1.334934 A    
C25   I2    2.125569 S    
C3    H2    1.081967 S    
N10   N16   1.369944 A    
N16   Ni3   1.830181 S    
C28   H17   1.079252 S    
C14   C22   1.384525 A    
C13   N9    1.323851 A    
C32   H20   1.080320 S    
C16   N12   1.342429 A    
N18   O3    1.299498 A    
C3    C11   1.375941 A    
C39   I3    2.122058 S    
C7    N7    1.334040 A    
C31   H19   1.080560 S    
N11   Ni3   1.851626 S    
C27   C28   1.398363 A    
N5    Ni2   1.820286 S    
C5    H4    1.078856 S    
C25   C30   1.415350 A    
C1    C9    1.402602 A    
C39   C40   1.345229 D    
C8    C9    1.382260 A    
C19   C21   1.396004 A    
N1    N8    1.379079 A    
C15   C23   1.381729 A    
C37   N17   1.445585 S    
C23   C33   1.461999 S    
