data_mof_unit_39728.cif
_audit_creation_date              2012-12-11T14:14:13-0500
_audit_creation_method            fapswitch 2.2
_symmetry_space_group_name_H-M    P1
_symmetry_Int_Tables_number       1
_space_group_crystal_system       triclinic
_cell_length_a                    17.072432
_cell_length_b                    7.249701
_cell_length_c                    16.973434
_cell_angle_alpha                 89.995366
_cell_angle_beta                  99.113199
_cell_angle_gamma                 89.993056
_cell_volume                      2074.28466335

loop_
_atom_site_label
_atom_site_type_symbol
_atom_type_description
_atom_site_fract_x
_atom_site_fract_y
_atom_site_fract_z
_atom_type_partial_charge
O1    O     O_R   0.414560 0.494370 0.416770 -0.519900
O2    O     O_R   0.585440 0.994370 0.583230 -0.519868
O3    O     O_R   0.578370 0.819590 0.429320 -0.526179
O4    O     O_R   0.421630 0.319590 0.570680 -0.526189
C1    C     C_R   0.604108 0.655154 0.413509 0.851372
C2    C     C_R   0.395895 0.155160 0.586492 0.851372
O5    O     O_R   0.414740 0.823790 0.407360 -0.523144
O6    O     O_R   0.585260 0.323790 0.592640 -0.523060
O7    O     O_R   0.420650 0.998510 0.561120 -0.539945
O8    O     O_R   0.579350 0.498510 0.438880 -0.539956
C3    C     C_R   0.386280 0.655634 0.387740 0.729023
C4    C     C_R   0.613723 0.155600 0.612257 0.728973
O9    O     O_3   0.502130 0.662240 0.550470 -0.377842
O10   O     O_3   0.497870 0.162240 0.449530 -0.377907
V1    V     V_3+5 0.499600 0.935390 0.490640 1.732696
V2    V     V_3+5 0.500400 0.435390 0.509360 1.732712
C5    C     C_2   0.794765 0.253065 0.774141 -0.183363
C6    C     C_2   0.205366 0.753221 0.225702 -0.183160
C7    C     C_2   0.813035 0.115194 0.828430 0.235039
C8    C     C_2   0.186958 0.615030 0.171610 0.235078
C9    C     C_2   0.714107 0.264227 0.726198 0.411002
C10   C     C_2   0.286023 0.764156 0.273665 0.410657
C11   C     C_2   0.690639 0.143997 0.666050 0.184257
C12   C     C_2   0.309359 0.644180 0.333960 0.184090
C13   C     C_R   0.332457 0.143368 0.636835 -0.297980
C14   C     C_R   0.667549 0.643345 0.363167 -0.298057
C15   C     C_R   0.166635 0.119903 0.863088 -0.275000
C16   C     C_R   0.833370 0.619930 0.136916 -0.275044
C17   C     C_R   0.307737 0.136809 0.854092 0.437371
C18   C     C_R   0.692270 0.636910 0.145916 0.437390
C19   C     C_R   0.246143 0.120287 0.899856 0.322868
C20   C     C_R   0.753861 0.620357 0.100150 0.322966
C21   C     C_R   0.148023 0.123896 0.779070 -0.102048
C22   C     C_R   0.851984 0.623878 0.220933 -0.102101
C23   C     C_R   0.210249 0.114593 0.731800 -0.113811
C24   C     C_R   0.789758 0.614575 0.268204 -0.113779
C25   C     C_R   0.290187 0.145802 0.769088 -0.156846
C26   C     C_R   0.709824 0.645865 0.230917 -0.156869
C27   C     C_R   0.349249 0.178272 0.719534 0.351569
C28   C     C_R   0.650763 0.678350 0.280473 0.351601
C29   C     C_R   0.256789 0.081473 0.602773 0.284208
C30   C     C_R   0.743211 0.581333 0.397221 0.284143
C31   C     C_R   0.195918 0.066925 0.649304 0.426615
C32   C     C_R   0.804086 0.566802 0.350691 0.426631
O11   O     O_R   0.920750 0.773600 0.061260 -0.530344
O12   O     O_R   0.079250 0.273600 0.938740 -0.530349
O13   O     O_R   0.085340 0.439850 0.092570 -0.504453
O14   O     O_R   0.914660 0.939850 0.907430 -0.504592
C33   C     C_R   0.112581 0.608369 0.113611 0.629856
C34   C     C_R   0.887422 0.108400 0.886394 0.629866
O15   O     O_R   0.921720 0.444130 0.070790 -0.532394
O16   O     O_R   0.078280 0.944130 0.929210 -0.532427
O17   O     O_R   0.914480 0.269530 0.916840 -0.560710
O18   O     O_R   0.085520 0.769530 0.083160 -0.560798
C35   C     C_R   0.896734 0.612411 0.086461 0.742726
C36   C     C_R   0.103268 0.112404 0.913541 0.742675
O19   O     O_3   0.997840 0.601520 0.949550 -0.381528
O20   O     O_3   0.002160 0.101520 0.050450 -0.381488
V3    V     V_3+5 0.000400 0.328340 0.009360 1.599903
V4    V     V_3+5 0.999600 0.828340 0.990640 1.599637
C37   C     C_2   0.853824 0.393413 0.757957 0.601877
H1    H     H_    0.916299 0.378072 0.781375 0.003826
O21   O     O_2   0.833143 0.527184 0.716060 -0.417234
C38   C     C_2   0.146451 0.894177 0.241642 0.602103
H2    H     H_    0.083890 0.878351 0.218704 0.003916
O22   O     O_2   0.167359 0.029009 0.282758 -0.417464
C39   C     C_2   0.064227 0.160437 0.743272 0.600601
H3    H     H_    0.015956 0.097009 0.768075 -0.031403
O23   O     O_2   0.048458 0.269735 0.688285 -0.449990
C40   C     C_2   0.935777 0.660389 0.256731 0.600685
H4    H     H_    0.984052 0.597079 0.231885 -0.031302
O24   O     O_2   0.951536 0.769559 0.311755 -0.450028
Cl1   Cl    Cl    0.742011 0.943952 0.840912 -0.381384
Cl2   Cl    Cl    0.257797 0.443087 0.159424 -0.381116
Cl3   Cl    Cl    0.651377 0.439731 0.752620 -0.369190
Cl4   Cl    Cl    0.348955 0.938998 0.247067 -0.368758
Cl5   Cl    Cl    0.756423 0.970303 0.642705 -0.443231
Cl6   Cl    Cl    0.243403 0.471156 0.357535 -0.443240
Cl7   Cl    Cl    0.442106 0.281507 0.755818 -0.439607
Cl8   Cl    Cl    0.557930 0.781756 0.244194 -0.439491
Cl9   Cl    Cl    0.237404 0.025519 0.499819 -0.429124
Cl10  Cl    Cl    0.762583 0.525200 0.500161 -0.428634
Cl11  Cl    Cl    0.405626 0.112735 0.906261 -0.284344
Cl12  Cl    Cl    0.594378 0.612852 0.093763 -0.284371
Cl13  Cl    Cl    0.107569 0.953846 0.605350 -0.376247
Cl14  Cl    Cl    0.892422 0.453564 0.394615 -0.376236
Cl15  Cl    Cl    0.268579 0.101302 0.005166 -0.397925
Cl16  Cl    Cl    0.731424 0.601357 0.994843 -0.397855

loop_
_geom_bond_atom_site_label_1
_geom_bond_atom_site_label_2
_ccdc_geom_bond_type
C18   C20   A    
O11   V4    S    
O12   V3    S    
C30   Cl10  S    
C10   Cl4   S    
C6    C38   S    
C2    O7    A    
O17   V3    S    
O13   C33   A    
O18   V4    S    
C15   C21   A    
O5    C3    A    
C4    C11   S    
C14   C30   A    
C23   C25   A    
C17   Cl11  S    
C21   C23   A    
C2    C13   S    
C33   O18   A    
C20   Cl16  S    
C3    C12   S    
C18   C26   A    
C37   O21   D    
O16   V4    S    
C5    C37   S    
O1    C3    A    
C28   Cl8   S    
C40   H4    S    
C23   C31   A    
C22   C40   S    
C6    C8    D    
O14   C34   A    
C16   C22   A    
O6    V2    S    
C29   C31   A    
C30   C32   A    
C32   Cl14  S    
C16   C35   S    
O14   V4    S    
C34   O17   A    
C19   Cl15  S    
C15   C19   A    
C39   H3    S    
C31   Cl13  S    
C16   C20   A    
O4    C2    A    
C13   C29   A    
C15   C36   S    
O19   V4    S    
O15   C35   A    
O20   V3    S    
C5    C9    S    
C39   O23   D    
C27   Cl7   S    
O4    V2    S    
C8    C33   S    
C7    Cl1   S    
O6    C4    A    
C29   Cl9   S    
C8    Cl2   S    
O1    V2    S    
C11   Cl5   S    
O2    V1    S    
C12   Cl6   S    
C9    C11   D    
C10   C12   D    
C24   C32   A    
O15   V3    S    
O12   C36   A    
O3    V1    S    
C21   C39   S    
O2    C4    A    
C6    C10   S    
O3    C1    A    
C9    Cl3   S    
C38   H2    S    
C24   C26   A    
O7    V1    S    
C1    O8    A    
C17   C19   A    
O8    V2    S    
C13   C27   A    
C26   C28   A    
C7    C34   S    
C14   C28   A    
O5    V1    S    
C5    C7    D    
C22   C24   A    
C18   Cl12  S    
C37   H1    S    
O13   V3    S    
C1    C14   S    
O11   C35   A    
C25   C27   A    
O9    V2    S    
C17   C25   A    
O10   V1    S    
C40   O24   D    
O16   C36   A    
C38   O22   D    
