data_mof_unit_22076.cif
_audit_creation_date              2013-03-05T16:05:20-0500
_audit_creation_method            fapswitch 2.2
_symmetry_space_group_name_H-M    P1
_symmetry_Int_Tables_number       1
_space_group_crystal_system       triclinic
_cell_length_a                    10.907288
_cell_length_b                    9.68318
_cell_length_c                    15.92808
_cell_angle_alpha                 90.793899
_cell_angle_beta                  95.347474
_cell_angle_gamma                 91.491377
_cell_volume                      1674.16673189

loop_
_atom_site_label
_atom_site_type_symbol
_atom_site_description
_atom_site_fract_x
_atom_site_fract_y
_atom_site_fract_z
_atom_type_partial_charge
O1    O     O_R   0.319660 0.618740 0.500000 -0.567947
O2    O     O_R   0.319660 0.381260 0.500000 -0.556440
C1    C     C_R   0.262686 0.498198 0.500488 0.880843
O3    O     O_R   0.500020 0.618840 0.379440 -0.584142
O4    O     O_R   0.500020 0.381160 0.379440 -0.578789
C2    C     C_R   0.499444 0.499201 0.340753 0.810025
Cu1   Cu    Cu3+1 0.500020 0.640660 0.500000 1.033416
Cu2   Cu    Cu3+1 0.500020 0.359340 0.500000 1.036232
O5    O     O_R   0.680370 0.618830 0.500010 -0.557663
O6    O     O_R   0.680370 0.381170 0.500010 -0.568205
O7    O     O_R   0.500010 0.618730 0.620560 -0.578658
O8    O     O_R   0.500010 0.381270 0.620560 -0.576765
C3    C     C_R   0.737356 0.501777 0.499653 0.881754
C4    C     C_R   0.500515 0.500804 0.659268 0.804219
C5    C     C_3   0.392662 0.582682 0.045473 -0.018494
C6    C     C_3   0.497701 0.343673 0.045816 0.038556
C7    C     C_3   0.478598 0.341371 0.945088 0.330890
C8    C     C_3   0.388746 0.593781 0.945090 0.344396
H1    H     H_    0.591614 0.306989 0.062112 0.206295
H2    H     H_    0.411481 0.687162 0.072499 0.210500
C9    C     C_1   0.500255 0.502243 0.748425 0.066331
C10   C     C_3   0.503891 0.496108 0.084056 -0.316199
C11   C     C_3   0.500393 0.500232 0.916334 -0.391630
C12   C     C_3   0.634834 0.558473 0.959411 0.276558
C13   C     C_3   0.629045 0.572277 0.061480 0.264672
C14   C     C_1   0.500156 0.501870 0.823782 0.314616
C15   C     C_1   0.501906 0.496516 0.176471 0.254948
C16   C     C_1   0.500503 0.497572 0.251655 0.006140
C17   C     C_R   0.054534 0.389743 0.460654 0.256115
C18   C     C_R   0.073736 0.603887 0.544275 0.240884
C19   C     C_R   0.926426 0.395684 0.456298 0.242692
C20   C     C_R   0.945608 0.609935 0.539832 0.255963
C21   C     C_R   0.871307 0.504661 0.497142 -0.345663
C22   C     C_R   0.128805 0.495138 0.503221 -0.344764
C23   C     C_R   0.430046 0.070761 0.438694 0.214107
C24   C     C_R   0.426698 0.922508 0.440291 0.260302
N1    N     N_R   0.500030 0.852070 0.500020 -0.185389
N2    N     N_R   0.500030 0.147930 0.500020 -0.185476
C25   C     C_R   0.570122 0.929230 0.561260 0.208360
C26   C     C_R   0.573590 0.077460 0.559580 0.251513
N3    N     N_R   0.265085 0.550829 0.904296 0.197865
O9    O     O_R   0.253083 0.507351 0.826280 -0.250678
O10   O     O_R   0.169338 0.610962 0.929738 -0.147105
N4    N     N_R   0.356050 0.286356 0.908955 0.187728
O11   O     O_R   0.270504 0.244509 0.954856 -0.156426
O12   O     O_R   0.340511 0.254462 0.828863 -0.229146
C27   C     C_3   0.634948 0.858298 0.636351 -0.540474
H3    H     H_    0.670216 0.758683 0.618679 0.266597
H4    H     H_    0.718438 0.913459 0.665433 0.240173
H5    H     H_    0.570551 0.845725 0.685868 0.257418
C28   C     C_3   0.664713 0.152498 0.623370 -0.621716
H6    H     H_    0.672520 0.263882 0.619364 0.254215
H7    H     H_    0.641210 0.130300 0.688203 0.254516
H8    H     H_    0.759190 0.117990 0.615052 0.236043
N5    N     N_R   0.274714 0.544032 0.078797 0.198639
O13   O     O_R   0.211848 0.432736 0.054362 -0.147108
O14   O     O_R   0.229014 0.626460 0.132418 -0.258877
N6    N     N_R   0.421101 0.240440 0.086618 0.206501
O15   O     O_R   0.353254 0.272798 0.146506 -0.282477
O16   O     O_R   0.434169 0.109817 0.070534 -0.176696
N7    N     N_R   0.568654 0.245051 0.912981 0.174513
O17   O     O_R   0.592007 0.246760 0.834363 -0.306938
O18   O     O_R   0.597618 0.133767 0.954472 -0.171817
N8    N     N_R   0.404614 0.739921 0.920106 0.174895
O19   O     O_R   0.407169 0.766197 0.840355 -0.231398
O20   O     O_R   0.364093 0.838213 0.965967 -0.185817
N9    N     N_R   0.629154 0.718205 0.093711 0.142385
O21   O     O_R   0.661888 0.744040 0.173256 -0.260935
O22   O     O_R   0.589316 0.821010 0.048073 -0.224643
N10   N     N_R   0.741188 0.513676 0.106347 0.183424
O23   O     O_R   0.736611 0.415987 0.161412 -0.273382
O24   O     O_R   0.847876 0.573265 0.098462 -0.145065
N11   N     N_R   0.674691 0.694157 0.926886 0.205323
O25   O     O_R   0.641679 0.730897 0.850112 -0.291869
O26   O     O_R   0.776594 0.751268 0.962067 -0.146079
N12   N     N_R   0.730758 0.461951 0.935171 0.168119
O27   O     O_R   0.771474 0.473042 0.861136 -0.227660
O28   O     O_R   0.774717 0.363454 0.982961 -0.215416
N13   N     N_R   0.107622 0.278409 0.418261 0.130146
O29   O     O_R   0.134744 0.166894 0.459896 -0.282700
O30   O     O_R   0.096291 0.273293 0.336216 -0.274654
N14   N     N_R   0.147437 0.706225 0.593717 0.189884
O31   O     O_R   0.222710 0.669098 0.657077 -0.258329
O32   O     O_R   0.137740 0.836704 0.576602 -0.229199
N15   N     N_R   0.852807 0.292838 0.407237 0.188714
O33   O     O_R   0.862852 0.162521 0.424701 -0.233922
O34   O     O_R   0.776984 0.329357 0.344031 -0.269952
N16   N     N_R   0.892529 0.721162 0.582310 0.130064
O35   O     O_R   0.903351 0.725724 0.664361 -0.270036
O36   O     O_R   0.866044 0.833047 0.540884 -0.285118
C29   C     C_3   0.365388 0.141729 0.363542 -0.556095
H9    H     H_    0.329701 0.241115 0.381292 0.269905
H10   H     H_    0.430022 0.154766 0.314204 0.243004
H11   H     H_    0.282251 0.086396 0.334087 0.240421
C30   C     C_3   0.336294 0.847320 0.376017 -0.648434
H12   H     H_    0.327533 0.736114 0.380737 0.255341
H13   H     H_    0.241699 0.882376 0.383354 0.240254
H14   H     H_    0.361188 0.868213 0.311250 0.229976

loop_
_geom_bond_atom_site_label_1
_geom_bond_atom_site_label_2
_geom_bond_distance
_ccdc_geom_bond_type
C5    C8    1.600679 S    
C18   C20   1.395515 A    
N5    O13   1.297403 A    
C19   N15   1.437728 S    
N3    O10   1.303042 A    
N11   O25   1.299328 A    
C30   H12   1.082850 S    
C13   N9    1.496642 S    
C9    C14   1.200438 T    
C30   H14   1.110865 S    
Cu1   Cu2   2.724072 S    
C27   H4    1.103788 S    
N15   O33   1.301147 A    
Cu1   O7    1.934925 S    
C7    C11   1.628914 S    
C4    C9    1.420246 S    
C24   N1    1.383695 A    
N12   O28   1.301867 A    
O4    C2    1.305907 A    
O7    C4    1.305105 A    
C12   N11   1.488188 S    
N6    O16   1.301163 A    
C20   N16   1.427668 S    
N3    O9    1.300331 A    
C11   C14   1.474243 S    
N7    O18   1.302414 A    
O5    C3    1.306987 A    
C7    N7    1.491429 S    
C5    C10   1.574977 S    
C2    C16   1.420154 S    
C23   C24   1.435717 A    
C6    C7    1.598279 S    
C10   C13   1.607239 S    
C11   C12   1.642500 S    
C19   C21   1.408952 A    
N10   O23   1.302019 A    
N11   O26   1.303292 A    
Cu2   N2    2.047129 S    
O3    Cu1   1.928966 S    
N4    O12   1.302922 A    
C27   H5    1.109831 S    
N15   O34   1.300939 A    
C5    H2    1.100734 S    
C18   C22   1.408669 A    
N9    O21   1.302926 A    
C23   N2    1.380688 A    
N12   O27   1.303078 A    
O3    C2    1.304208 A    
C8    N3    1.488091 S    
C25   C26   1.435532 A    
N13   O30   1.301256 A    
C12   N12   1.494497 S    
C1    C22   1.464518 S    
N6    O15   1.300418 A    
C17   C22   1.411701 A    
C8    C11   1.631928 S    
O1    C1    1.308451 A    
N8    O20   1.302930 A    
C18   N14   1.437808 S    
C3    C21   1.464865 S    
C29   H10   1.109904 S    
C27   H3    1.090689 S    
C17   N13   1.427823 S    
Cu2   O8    1.929077 S    
Cu1   N1    2.047114 S    
C6    N6    1.481694 S    
C12   C13   1.636614 S    
Cu2   O6    1.972963 S    
N16   O36   1.301218 A    
N14   O32   1.301132 A    
C10   C15   1.474119 S    
N5    O14   1.302374 A    
C29   H9    1.090911 S    
N4    O11   1.298092 A    
C25   C27   1.514158 S    
N9    O22   1.300732 A    
Cu1   O5    1.983903 S    
C6    C10   1.586353 S    
O1    Cu1   1.973156 S    
O2    Cu2   1.984141 S    
O8    C4    1.303518 A    
O6    C3    1.308939 A    
O4    Cu2   1.934786 S    
C30   H13   1.110429 S    
C26   C28   1.517200 S    
C28   H8    1.110519 S    
N8    O19   1.301662 A    
O2    C1    1.306024 A    
C7    N4    1.487532 S    
C28   H6    1.082932 S    
N1    C25   1.380319 A    
C20   C21   1.411857 A    
C29   H11   1.103602 S    
N2    C26   1.383450 A    
C24   C30   1.517992 S    
C8    N8    1.485433 S    
C6    H1    1.102166 S    
N7    O17   1.301167 A    
N13   O29   1.301234 A    
N16   O35   1.301269 A    
C17   C19   1.395290 A    
N14   O31   1.301083 A    
C15   C16   1.198966 T    
N10   O24   1.302751 A    
C13   N10   1.487721 S    
C28   H7    1.109472 S    
C5    N5    1.478032 S    
C23   C29   1.514313 S    
