data_mof_unit_26843.cif
_audit_creation_date              2012-12-10T16:53:09-0500
_audit_creation_method            fapswitch 2.2
_symmetry_space_group_name_H-M    P1
_symmetry_Int_Tables_number       1
_space_group_crystal_system       triclinic
_cell_length_a                    10.785189
_cell_length_b                    10.919855
_cell_length_c                    9.697718
_cell_angle_alpha                 89.385726
_cell_angle_beta                  89.98632
_cell_angle_gamma                 90.223849
_cell_volume                      1142.0520333

loop_
_atom_site_label
_atom_site_type_symbol
_atom_type_description
_atom_site_fract_x
_atom_site_fract_y
_atom_site_fract_z
_atom_type_partial_charge
C1    C     C_R   0.503041 0.265299 0.500900 0.831232
C2    C     C_R   0.065188 0.395459 0.577108 0.103478
C3    C     C_R   0.128890 0.486883 0.500143 -0.095876
C4    C     C_R   0.064370 0.571980 0.419754 -0.207403
C5    C     C_R   0.936514 0.571897 0.419586 -0.181695
C6    C     C_R   0.871113 0.486859 0.499929 -0.108938
C7    C     C_2   0.555664 0.936531 0.394709 0.032611
C8    C     C_2   0.503955 0.867382 0.496443 -0.335359
C9    C     C_2   0.533811 0.069156 0.390512 -0.244542
C10   C     C_2   0.516671 0.133593 0.505475 -0.325905
C11   C     C_2   0.427702 0.429995 0.922939 -0.061361
C12   C     C_R   0.262628 0.495605 0.500130 0.781508
C13   C     C_2   0.429224 0.428474 0.078651 -0.069253
C14   C     C_R   0.504601 0.734699 0.499011 0.902398
C15   C     C_R   0.737388 0.495728 0.500018 0.811499
C16   C     C_R   0.128543 0.301748 0.649837 -0.188238
C17   C     C_R   0.063251 0.211510 0.722513 -0.140781
C18   C     C_R   0.934304 0.211416 0.722296 -0.124522
C19   C     C_R   0.869808 0.301618 0.649489 -0.173114
C20   C     C_R   0.933988 0.395426 0.576972 0.091765
Cu1   Cu    Cu3+1 0.500020 0.500020 0.638630 0.942181
Cu2   Cu    Cu3+1 0.499980 0.499980 0.361370 0.971993
H1    H     H_    0.113411 0.640740 0.359215 0.156993
H2    H     H_    0.521215 0.090928 0.606875 0.150505
H3    H     H_    0.363026 0.368873 0.872323 0.148495
H4    H     H_    0.561751 0.555338 0.893234 0.199039
H5    H     H_    0.367407 0.364497 0.130762 0.153991
H6    H     H_    0.555973 0.561041 0.105333 0.206528
H7    H     H_    0.228499 0.295404 0.649199 0.140366
H8    H     H_    0.112964 0.140345 0.777665 0.132933
H9    H     H_    0.883969 0.140163 0.777263 0.136475
H10   H     H_    0.769809 0.295200 0.648636 0.147918
H11   H     H_    0.888277 0.640482 0.358784 0.201553
H12   H     H_    0.449829 0.908641 0.577772 0.127292
H13   H     H_    0.538932 0.115611 0.290940 0.164034
N1    N     N_2   0.498640 0.498660 0.846910 -0.280837
N2    N     N_2   0.498610 0.498630 0.153040 -0.279199
O1    O     O_R   0.500020 0.321960 0.617040 -0.598703
O2    O     O_R   0.499980 0.321920 0.382900 -0.574654
O3    O     O_R   0.319670 0.500020 0.617100 -0.578085
O4    O     O_R   0.319630 0.499980 0.382950 -0.577023
O5    O     O_R   0.500020 0.678080 0.617100 -0.583048
O6    O     O_R   0.499980 0.678040 0.382960 -0.539994
O7    O     O_R   0.680370 0.500020 0.617050 -0.584137
O8    O     O_R   0.680330 0.499980 0.382900 -0.553225
C21   C     C_2   0.636001 0.887533 0.283676 0.390944
H14   H     H_    0.642496 0.936247 0.185772 0.045208
O9    O     O_2   0.701247 0.797849 0.302623 -0.565045

loop_
_geom_bond_atom_site_label_1
_geom_bond_atom_site_label_2
_ccdc_geom_bond_type
C12   O3    A    
C12   O4    A    
C3    C12   S    
Cu1   O7    S    
C6    C20   A    
C9    C10   D    
C13   N2    D    
C19   C20   A    
C14   O5    A    
C17   C18   A    
C6    C15   S    
C7    C8    D    
Cu1   N1    S    
C8    H12   S    
Cu1   Cu2   S    
C17   H8    S    
C11   C13   S    
Cu1   O5    S    
Cu1   O3    S    
H6    N2    S    
C19   H10   S    
C1    O1    A    
H4    N1    S    
C11   N1    D    
C15   O7    A    
C2    C3    A    
C5    C6    A    
C21   O9    D    
Cu2   O4    S    
C16   C17   A    
C1    O2    A    
C2    C20   A    
C3    C4    A    
C7    C21   S    
Cu1   O1    S    
Cu2   O8    S    
C2    C16   A    
C7    C9    S    
C18   C19   A    
C9    H13   S    
C4    H1    S    
C11   H3    S    
C21   H14   S    
C14   O6    A    
C8    C14   S    
C18   H9    S    
C10   H2    S    
C16   H7    S    
Cu2   N2    S    
Cu2   O2    S    
C13   H5    S    
C1    C10   S    
Cu2   O6    S    
C4    C5    A    
C15   O8    A    
C5    H11   S    
