data_mof_unit_48059.cif
_audit_creation_date              2013-03-05T15:56:36-0500
_audit_creation_method            fapswitch 2.2
_symmetry_space_group_name_H-M    P1
_symmetry_Int_Tables_number       1
_space_group_crystal_system       triclinic
_cell_length_a                    6.952995
_cell_length_b                    14.533196
_cell_length_c                    16.003606
_cell_angle_alpha                 90.347659
_cell_angle_beta                  89.738935
_cell_angle_gamma                 89.785456
_cell_volume                      1617.09414707

loop_
_atom_site_label
_atom_site_type_symbol
_atom_site_description
_atom_site_fract_x
_atom_site_fract_y
_atom_site_fract_z
_atom_type_partial_charge
O1    O     O_R   0.361600 0.167310 0.164620 -0.605639
O2    O     O_R   0.638400 0.832690 0.835380 -0.605641
O3    O     O_R   0.691080 0.157570 0.338750 -0.588483
O4    O     O_R   0.308920 0.842430 0.661250 -0.588483
O5    O     O_R   0.861410 0.336420 0.339360 -0.558575
O6    O     O_R   0.138590 0.663580 0.660640 -0.558573
C1    C     C_R   0.522014 0.135312 0.367482 0.983160
C2    C     C_R   0.477986 0.864688 0.632518 0.983162
O7    O     O_R   0.691320 0.156280 0.165240 -0.607067
O8    O     O_R   0.308680 0.843720 0.834760 -0.607067
O9    O     O_R   0.861640 0.335130 0.164600 -0.606624
O10   O     O_R   0.138360 0.664870 0.835400 -0.606625
C3    C     C_R   0.522620 0.133799 0.136105 0.902234
C4    C     C_R   0.477380 0.866201 0.863895 0.902233
O11   O     O_R   0.361370 0.168600 0.339370 -0.596182
O12   O     O_R   0.638630 0.831400 0.660630 -0.596184
O13   O     O_3   0.527990 0.310540 0.251980 -0.245702
O14   O     O_3   0.472010 0.689460 0.748020 -0.245700
V1    V     V_3+5 0.802830 0.240980 0.251990 1.215046
V2    V     V_3+5 0.197170 0.759020 0.748010 1.215048
O15   O     O_R   0.191360 0.346160 0.165220 -0.605111
O16   O     O_R   0.808640 0.653840 0.834780 -0.605111
C5    C     C_R   0.022388 0.368215 0.136134 0.907212
C6    C     C_R   0.977612 0.631785 0.863866 0.907214
O17   O     O_R   0.191130 0.347440 0.338740 -0.561420
O18   O     O_R   0.808870 0.652560 0.661260 -0.561418
C7    C     C_R   0.021632 0.369803 0.366896 1.121213
C8    C     C_R   0.978368 0.630197 0.633104 1.121211
V3    V     V_3+5 0.302840 0.262750 0.251990 1.229405
V4    V     V_3+5 0.697160 0.737250 0.748010 1.229407
O19   O     O_3   0.027820 0.193180 0.251990 -0.293907
O20   O     O_3   0.972180 0.806820 0.748010 -0.293908
C9    C     C_3   0.970908 0.416355 0.529434 0.295004
C10   C     C_3   0.029091 0.583645 0.470566 0.295004
C11   C     C_3   0.136785 0.479682 0.557920 -0.297536
C12   C     C_3   0.863215 0.520318 0.442080 -0.297541
H1    H     H_    0.240425 0.460727 0.607126 0.246556
H2    H     H_    0.759577 0.539272 0.392873 0.246557
C13   C     C_3   0.990645 0.561219 0.563222 -0.482472
C14   C     C_3   0.009354 0.438780 0.436778 -0.482480
C15   C     C_3   0.828151 0.496693 0.535436 0.369938
C16   C     C_3   0.171849 0.503307 0.464564 0.369945
C17   C     C_R   0.821117 0.525158 0.967491 -0.117124
C18   C     C_R   0.178883 0.474842 0.032508 -0.117126
H3    H     H_    0.680769 0.543497 0.943584 0.123499
H4    H     H_    0.319231 0.456503 0.056416 0.123498
C19   C     C_R   0.832230 0.462147 0.033242 -0.116292
C20   C     C_R   0.167769 0.537853 0.966758 -0.116291
H5    H     H_    0.699846 0.433779 0.057734 0.125437
H6    H     H_    0.300154 0.566221 0.942266 0.125437
C21   C     C_R   0.011278 0.436072 0.066733 -0.116279
C22   C     C_R   0.988722 0.563928 0.933267 -0.116278
C23   C     C_R   0.678973 0.026201 0.468037 -0.058803
C24   C     C_R   0.321027 0.973799 0.531963 -0.058801
H7    H     H_    0.819341 0.045273 0.444393 0.134515
H8    H     H_    0.180659 0.954727 0.555607 0.134514
C25   C     C_R   0.668094 0.960908 0.531744 -0.090198
C26   C     C_R   0.331905 0.039092 0.468256 -0.090195
H9    H     H_    0.800588 0.931638 0.555191 0.141311
H10   H     H_    0.199412 0.068362 0.444809 0.141313
C27   C     C_R   0.488977 0.933878 0.564616 -0.155420
C28   C     C_R   0.511023 0.066122 0.435383 -0.155421
C29   C     C_R   0.679073 0.025412 0.032112 -0.127665
C30   C     C_R   0.320926 0.974588 0.967888 -0.127665
H11   H     H_    0.819519 0.043917 0.055690 0.121181
H12   H     H_    0.180481 0.956083 0.944310 0.121181
C31   C     C_R   0.667648 0.961436 0.966424 -0.119153
C32   C     C_R   0.332352 0.038564 0.033576 -0.119153
H13   H     H_    0.800041 0.932542 0.941675 0.123963
H14   H     H_    0.199959 0.067458 0.058325 0.123963
C33   C     C_R   0.488401 0.935079 0.933302 -0.118236
C34   C     C_R   0.511599 0.064920 0.066698 -0.118237
N1    N     N_R   0.939443 0.324846 0.563731 0.270273
O21   O     O_R   0.931826 0.313778 0.644247 -0.343236
O22   O     O_R   0.929469 0.253340 0.514734 -0.411780
N2    N     N_R   0.060557 0.675153 0.436269 0.270274
O23   O     O_R   0.068190 0.686221 0.355754 -0.343240
O24   O     O_R   0.070546 0.746659 0.485265 -0.411776
N3    N     N_R   0.641301 0.493653 0.576535 0.254909
O25   O     O_R   0.531883 0.566404 0.577280 -0.376680
O26   O     O_R   0.588906 0.420846 0.617448 -0.365271
N4    N     N_R   0.358699 0.506349 0.423466 0.254913
O27   O     O_R   0.411105 0.579157 0.382567 -0.365270
O28   O     O_R   0.468117 0.433598 0.422720 -0.376688

loop_
_geom_bond_atom_site_label_1
_geom_bond_atom_site_label_2
_geom_bond_distance
_ccdc_geom_bond_type
C6    C22   1.491847 S    
C29   H11   1.082766 S    
C26   C28   1.407942 A    
O13   V3    1.714997 S    
C4    C33   1.493171 S    
C10   C16   1.531916 S    
O4    C2    1.302932 A    
V1    O19   1.709285 S    
C19   H5    1.082764 S    
O9    V1    2.004396 S    
C30   C32   1.401921 A    
C11   H1    1.105257 S    
N2    O24   1.300293 A    
O3    C1    1.302932 A    
C24   C26   1.399000 A    
C17   C22   1.406550 A    
C25   H9    1.082852 S    
C31   C33   1.409999 A    
O12   V4    2.004396 S    
N1    O21   1.300381 A    
C30   C33   1.406151 A    
O9    C5    1.299995 A    
C11   C16   1.553379 S    
O7    C3    1.306144 A    
C9    C11   1.546832 S    
O5    C7    1.294815 A    
O7    V1    2.009983 S    
O6    C8    1.294816 A    
O8    V2    2.009983 S    
C16   N4    1.454433 S    
O3    V1    2.004669 S    
O14   V4    1.714998 S    
C10   C12   1.546832 S    
C2    C27   1.486913 S    
C20   H6    1.082764 S    
C2    O12   1.298929 A    
N1    O22   1.300305 A    
C12   C15   1.553380 S    
C18   H4    1.082760 S    
O11   V3    2.004398 S    
C26   H10   1.082852 S    
C29   C31   1.401920 A    
C23   H7    1.082805 S    
O17   V3    2.001972 S    
C24   H8    1.082804 S    
C9    C14   1.542520 S    
C10   C13   1.542518 S    
C12   C14   1.559772 S    
N2    O23   1.300360 A    
C13   C15   1.536593 S    
O8    C4    1.306144 A    
N3    O26   1.300062 A    
C23   C25   1.399000 A    
C19   C21   1.409149 A    
C8    C13   1.499282 S    
O15   V3    2.005434 S    
C31   H13   1.082751 S    
C30   H12   1.082766 S    
C11   C13   1.559771 S    
C1    C28   1.486913 S    
C23   C28   1.406239 A    
C5    C21   1.491846 S    
C7    C14   1.499282 S    
C32   C34   1.409999 A    
O10   V2    2.004398 S    
O1    V3    2.003221 S    
C17   H3    1.082760 S    
C18   C21   1.406551 A    
C9    N1    1.458678 S    
C24   C27   1.406240 A    
O18   V4    2.001971 S    
N4    O28   1.300213 A    
O15   C5    1.305250 A    
O16   C6    1.305249 A    
O1    C3    1.299017 A    
V2    O20   1.709285 S    
O16   V4    2.005437 S    
C14   C16   1.536592 S    
C15   N3    1.454437 S    
C25   C27   1.407942 A    
O5    V1    2.007672 S    
C3    C34   1.493171 S    
O17   C7    1.299265 A    
O6    V2    2.007672 S    
O10   C6    1.299995 A    
O18   C8    1.299265 A    
O2    V4    2.003223 S    
C9    C15   1.531916 S    
C12   H2    1.105256 S    
V3    O19   2.166406 S    
V4    O20   2.166403 S    
C1    O11   1.298930 A    
O13   V1    2.158538 S    
O14   V2    2.158539 S    
O2    C4    1.299015 A    
N3    O25   1.300220 A    
O4    V2    2.004666 S    
C20   C22   1.409149 A    
C29   C34   1.406151 A    
C32   H14   1.082750 S    
N4    O27   1.299989 A    
C17   C19   1.401321 A    
C18   C20   1.401321 A    
C10   N2    1.458677 S    
