data_mof_unit_52172.cif
_audit_creation_date              2012-12-10T20:34:47-0500
_audit_creation_method            fapswitch 2.2
_symmetry_space_group_name_H-M    P1
_symmetry_Int_Tables_number       1
_space_group_crystal_system       triclinic
_cell_length_a                    10.656824
_cell_length_b                    10.730945
_cell_length_c                    9.93453
_cell_angle_alpha                 89.321795
_cell_angle_beta                  90.68465
_cell_angle_gamma                 92.550595
_cell_volume                      1134.81170347

loop_
_atom_site_label
_atom_site_type_symbol
_atom_type_description
_atom_site_fract_x
_atom_site_fract_y
_atom_site_fract_z
_atom_type_partial_charge
C1    C     C_R   0.501187 0.259953 0.500949 0.925148
C2    C     C_3   0.878744 0.500493 0.499439 0.113065
C3    C     C_3   0.931994 0.613038 0.414965 -0.371832
C4    C     C_3   0.921308 0.377561 0.437436 -0.412645
C5    C     C_R   0.509778 0.060139 0.624195 -0.001010
C6    C     C_R   0.514778 0.128195 0.502938 -0.088006
C7    C     C_R   0.543384 0.067879 0.382845 -0.166367
C8    C     C_R   0.546209 0.939058 0.381120 -0.186556
C9    C     C_R   0.520997 0.871554 0.499761 -0.059178
C10   C     C_R   0.513642 0.933109 0.621219 0.041849
C11   C     C_3   0.422932 0.910563 0.732466 -0.502090
C12   C     C_R   0.257776 0.499843 0.499341 0.866299
C13   C     C_3   0.416828 0.051757 0.738362 0.752673
C14   C     C_R   0.410236 0.432570 0.071022 0.262024
C15   C     C_R   0.591826 0.560250 0.075225 -0.173149
C16   C     C_R   0.590994 0.565977 0.932935 0.438458
C17   C     C_R   0.409735 0.432781 0.928862 0.324276
C18   C     C_3   0.271882 0.452656 0.925396 -0.482559
C19   C     C_3   0.273138 0.450327 0.077492 -0.502563
C20   C     C_R   0.503793 0.739654 0.499263 0.903756
C21   C     C_R   0.742204 0.500390 0.500307 0.849118
C22   C     C_3   0.072745 0.503995 0.644478 -0.404608
C23   C     C_3   0.931586 0.512045 0.644356 -0.314816
C24   C     C_3   0.076426 0.615930 0.419602 -0.402165
C25   C     C_3   0.065522 0.380081 0.430774 -0.360449
C26   C     C_3   0.121166 0.500045 0.498193 0.140106
H1    H     H_    0.115552 0.586185 0.698198 0.185019
H2    H     H_    0.881183 0.365284 0.334220 0.196905
H3    H     H_    0.112674 0.617493 0.314985 0.191733
H4    H     H_    0.899115 0.605426 0.308453 0.206425
H5    H     H_    0.556924 0.119044 0.289155 0.183497
H6    H     H_    0.560507 0.892881 0.286478 0.195158
H7    H     H_    0.334857 0.860872 0.697438 0.201749
H8    H     H_    0.467307 0.864317 0.820085 0.263801
H9    H     H_    0.663755 0.610730 0.133251 0.203053
H10   H     H_    0.097577 0.417931 0.699757 0.225591
H11   H     H_    0.249559 0.545173 0.882367 0.196539
H12   H     H_    0.216744 0.371746 0.884062 0.270565
H13   H     H_    0.250496 0.541086 0.121998 0.215356
H14   H     H_    0.221730 0.367238 0.120925 0.229887
H15   H     H_    0.889970 0.438087 0.712012 0.216423
H16   H     H_    0.910069 0.604626 0.683367 0.250851
H17   H     H_    0.112965 0.702799 0.469458 0.183024
H18   H     H_    0.898302 0.702013 0.454793 0.170653
H19   H     H_    0.094659 0.377252 0.323805 0.180954
H20   H     H_    0.100800 0.295747 0.482218 0.209028
H21   H     H_    0.887000 0.296377 0.499725 0.175098
N1    N     N_R   0.499150 0.499140 0.142800 -0.162378
N2    N     N_R   0.499150 0.499180 0.857150 -0.182951
O1    O     O_R   0.500020 0.316790 0.614690 -0.549548
O2    O     O_R   0.500000 0.316760 0.385350 -0.621892
O3    O     O_R   0.314800 0.500000 0.614670 -0.614467
O4    O     O_R   0.314790 0.499960 0.385330 -0.633596
O5    O     O_R   0.500000 0.683240 0.614650 -0.567952
O6    O     O_R   0.499980 0.683210 0.385310 -0.631300
O7    O     O_R   0.685210 0.500040 0.614670 -0.555496
O8    O     O_R   0.685200 0.500000 0.385330 -0.642490
Zn1   Zn    Zn3+2 0.500010 0.500020 0.653130 1.069910
Zn2   Zn    Zn3+2 0.499990 0.499980 0.346870 0.968331
S1    S     S_3+6 0.262338 0.101347 0.694587 0.001346
O9    O     O_2   0.170840 0.054546 0.799597 -0.266651
O10   O     O_2   0.262053 0.240794 0.686862 -0.353974
O11   O     O_3   0.218530 0.042338 0.544195 -0.607047
H22   H     H_    0.128912 0.061595 0.533409 0.375380
S2    S     S_3+6 0.479957 0.114934 0.893953 0.033713
O12   O     O_2   0.565332 0.226712 0.864274 -0.341567
O13   O     O_2   0.374698 0.151923 0.982298 -0.284517
O14   O     O_3   0.563953 0.009631 0.978059 -0.540280
H23   H     H_    0.606538 0.056725 0.051951 0.377675
S3    S     S_3+6 0.711223 0.672961 0.874081 0.017054
O15   O     O_2   0.702082 0.790018 0.954361 -0.287213
O16   O     O_2   0.834381 0.617840 0.910622 -0.349628
O17   O     O_3   0.712977 0.716035 0.711781 -0.558002
H24   H     H_    0.772177 0.789746 0.706842 0.367451

loop_
_geom_bond_atom_site_label_1
_geom_bond_atom_site_label_2
_ccdc_geom_bond_type
C3    H4    S    
C2    C4    S    
C21   O8    A    
C6    C7    A    
C1    O1    A    
O6    Zn2   S    
C21   O7    A    
C11   C13   S    
O17   H24   S    
C9    C20   S    
C5    C13   S    
C12   O4    A    
C23   H15   S    
S2    O14   S    
C10   C11   S    
S3    O17   S    
C17   C18   S    
C18   H12   S    
C16   S3    S    
C5    C10   A    
S2    O12   D    
C13   S1    S    
C13   S2    S    
C12   C26   S    
S1    O10   D    
C1    O2    A    
C14   C17   A    
C3    C24   S    
S3    O15   D    
C23   H16   S    
O3    Zn1   S    
C15   N1    A    
C2    C21   S    
S1    O11   S    
C19   H13   S    
C9    C10   A    
C15   H9    S    
C4    H2    S    
C18   H11   S    
O7    Zn1   S    
C4    C25   S    
C2    C3    S    
C22   H1    S    
C20   O6    A    
O4    Zn2   S    
C5    C6    A    
O14   H23   S    
C3    H18   S    
O8    Zn2   S    
C7    H5    S    
C19   H14   S    
C22   C26   S    
O11   H22   S    
O1    Zn1   S    
C25   H19   S    
C11   H7    S    
O2    Zn2   S    
C16   N2    A    
C25   H20   S    
N1    Zn2   S    
C20   O5    A    
C18   C19   S    
O5    Zn1   S    
C17   N2    A    
C2    C23   S    
C24   H17   S    
C7    C8    A    
C22   C23   S    
S1    O9    D    
C14   N1    A    
C1    C6    S    
C12   O3    A    
C25   C26   S    
C24   H3    S    
C14   C19   S    
S3    O16   D    
C11   H8    S    
C22   H10   S    
N2    Zn1   S    
C15   C16   A    
C24   C26   S    
C8    C9    A    
S2    O13   D    
C4    H21   S    
C8    H6    S    
