data_mof_unit_44042.cif
_audit_creation_date              2012-12-11T14:38:13-0500
_audit_creation_method            fapswitch 2.2
_symmetry_space_group_name_H-M    P1
_symmetry_Int_Tables_number       1
_space_group_crystal_system       triclinic
_cell_length_a                    19.475917
_cell_length_b                    11.173672
_cell_length_c                    19.659484
_cell_angle_alpha                 90.192739
_cell_angle_beta                  96.759284
_cell_angle_gamma                 90.419484
_cell_volume                      4248.35919988

loop_
_atom_site_label
_atom_site_type_symbol
_atom_type_description
_atom_site_fract_x
_atom_site_fract_y
_atom_site_fract_z
_atom_type_partial_charge
C1    C     C_R   0.710271 0.993278 0.366828 0.553673
C2    C     C_R   0.274113 0.953258 0.640231 0.540984
C3    C     C_R   0.225850 0.453400 0.359859 0.543083
C4    C     C_R   0.776649 0.460951 0.637149 0.550452
C5    C     C_3   0.712734 0.524822 0.446007 -0.277421
C6    C     C_3   0.311490 0.467625 0.546269 -0.244866
C7    C     C_3   0.188205 0.966375 0.454189 -0.245556
C8    C     C_3   0.785638 0.023080 0.557651 -0.270722
C9    C     C_3   0.831791 0.456958 0.532886 -0.232117
C10   C     C_3   0.178195 0.440089 0.466341 -0.224427
C11   C     C_3   0.321675 0.942379 0.533774 -0.224520
C12   C     C_3   0.661478 0.969609 0.472844 -0.251993
C13   C     C_3   0.733797 0.313460 0.546337 -0.047348
C14   C     C_3   0.259192 0.281980 0.436638 -0.029893
C15   C     C_3   0.240984 0.781260 0.562427 -0.029517
C16   C     C_3   0.755629 0.828524 0.446672 -0.025701
C17   C     C_3   0.761334 0.441045 0.562909 0.058523
C18   C     C_3   0.244569 0.416803 0.430616 0.069335
C19   C     C_3   0.255404 0.916545 0.569368 0.069988
C20   C     C_3   0.729379 0.960007 0.438796 0.059182
C21   C     C_3   0.746534 0.404246 0.430965 0.058533
C22   C     C_3   0.264704 0.359329 0.559864 0.042846
C23   C     C_3   0.235085 0.859622 0.439900 0.041491
C24   C     C_3   0.751015 0.901789 0.567910 0.053290
C25   C     C_3   0.825274 0.410040 0.459608 -0.133251
C26   C     C_3   0.186581 0.391803 0.538587 -0.110687
C27   C     C_3   0.313184 0.894359 0.461250 -0.112351
C28   C     C_3   0.670977 0.908865 0.542645 -0.118759
C29   C     C_3   0.705810 0.309557 0.469542 -0.176078
C30   C     C_3   0.285988 0.257179 0.512577 -0.227990
C31   C     C_3   0.213781 0.756534 0.486447 -0.227143
C32   C     C_3   0.787339 0.812468 0.522168 -0.198221
C33   C     C_3   0.541095 0.242499 0.953656 -0.001517
C34   C     C_3   0.564581 0.234562 0.030689 0.001460
C35   C     C_3   0.908124 0.740696 0.975732 -0.021468
C36   C     C_3   0.935022 0.750874 0.053110 -0.006675
C37   C     C_3   0.412402 0.232905 0.977139 -0.135332
C38   C     C_3   0.499019 0.038250 0.040104 -0.105912
C39   C     C_3   0.963130 0.536791 0.966455 -0.090709
C40   C     C_3   0.061543 0.715680 0.027904 -0.121582
C41   C     C_3   0.480802 0.043260 0.961423 -0.221719
C42   C     C_3   0.439127 0.239805 0.053838 -0.234920
C43   C     C_3   0.033659 0.729770 0.952755 -0.220171
C44   C     C_3   0.980064 0.541950 0.045855 -0.223092
C45   C     C_R   0.536262 0.180433 0.338572 0.532418
C46   C     C_R   0.463352 0.180659 0.661168 0.535191
C47   C     C_R   0.036736 0.680535 0.338883 0.530855
C48   C     C_R   0.963778 0.680567 0.661455 0.543566
C49   C     C_3   0.469279 0.176029 0.937149 0.053127
C50   C     C_3   0.507763 0.170149 0.068362 0.078749
C51   C     C_3   0.961312 0.669860 0.937581 0.067880
C52   C     C_3   0.001809 0.672018 0.069239 0.060914
C53   C     C_1   0.762675 0.429525 0.905131 -0.003762
C54   C     C_1   0.237276 0.430014 0.094588 -0.020339
C55   C     C_1   0.257451 0.914875 0.900531 -0.018951
C56   C     C_1   0.722073 0.967259 0.086083 0.012361
C57   C     C_1   0.749894 0.411068 0.035812 -0.037764
C58   C     C_1   0.249445 0.416246 0.963387 -0.062982
C59   C     C_1   0.238179 0.872384 0.027732 -0.064000
C60   C     C_1   0.742114 0.935038 0.957972 -0.044515
C61   C     C_1   0.755279 0.419643 0.964925 -0.024691
C62   C     C_1   0.244449 0.422559 0.034549 -0.064286
C63   C     C_1   0.246553 0.893002 0.958339 -0.058810
C64   C     C_1   0.732080 0.952796 0.027246 -0.023763
C65   C     C_1   0.745030 0.395888 0.095783 -0.015000
C66   C     C_1   0.254386 0.400465 0.903388 -0.021537
C67   C     C_1   0.231973 0.851260 0.086837 -0.023218
C68   C     C_1   0.750988 0.910129 0.899953 -0.018039
C69   C     C_R   0.739927 0.365950 0.359573 0.541122
C70   C     C_R   0.274159 0.317009 0.631819 0.548754
C71   C     C_R   0.225715 0.817342 0.367867 0.550059
C72   C     C_R   0.761046 0.861079 0.638657 0.548889
C73   C     C_R   0.706982 0.992280 0.154432 0.559538
C74   C     C_R   0.276921 0.952285 0.835688 0.532754
C75   C     C_R   0.222434 0.453856 0.163193 0.533699
C76   C     C_R   0.777804 0.454693 0.836905 0.534457
C77   C     C_R   0.531746 0.178279 0.141504 0.535704
C78   C     C_R   0.445490 0.181851 0.863552 0.551439
C79   C     C_R   0.029513 0.678714 0.142274 0.526524
C80   C     C_R   0.940037 0.680938 0.863019 0.545824
C81   C     C_R   0.736663 0.359665 0.164310 0.529143
C82   C     C_R   0.263081 0.361565 0.835225 0.542222
C83   C     C_R   0.224061 0.816753 0.155797 0.550495
C84   C     C_R   0.762618 0.862886 0.834389 0.530174
C85   C     C_1   0.484145 0.174216 0.593814 -0.033021
C86   C     C_1   0.514568 0.173787 0.405541 -0.034570
C87   C     C_1   0.985703 0.673783 0.594580 -0.032722
C88   C     C_1   0.016247 0.674212 0.406347 -0.029778
C89   C     C_1   0.503842 0.171843 0.464606 -0.071383
C90   C     C_1   0.494425 0.172195 0.534605 -0.068179
C91   C     C_1   0.006148 0.672222 0.465601 -0.072988
C92   C     C_1   0.996639 0.671808 0.535576 -0.073179
C93   C     C_3   0.706747 0.529970 0.524560 -0.241006
C94   C     C_3   0.309707 0.484791 0.468347 -0.237145
C95   C     C_3   0.190163 0.982968 0.532211 -0.237772
C96   C     C_3   0.787287 0.041190 0.479385 -0.239094
Cr1   Cr    Cr6+3 0.765780 0.160710 0.267420 1.005997
Cr2   Cr    Cr6+3 0.234220 0.160710 0.732580 1.000374
Cr3   Cr    Cr6+3 0.265780 0.660710 0.267420 0.999421
Cr4   Cr    Cr6+3 0.734220 0.660710 0.732580 1.003381
Cr5   Cr    Cr6+3 0.612200 0.009560 0.248850 0.996073
Cr6   Cr    Cr6+3 0.387800 0.009560 0.751150 1.000390
Cr7   Cr    Cr6+3 0.112200 0.509560 0.248850 0.998240
Cr8   Cr    Cr6+3 0.887800 0.509560 0.751150 0.996615
Cr9   Cr    Cr6+3 0.616030 0.323720 0.248510 1.002206
Cr10  Cr    Cr6+3 0.383970 0.323720 0.751490 1.001280
Cr11  Cr    Cr6+3 0.116030 0.823720 0.248510 1.004584
Cr12  Cr    Cr6+3 0.883970 0.823720 0.751490 1.006449
H1    H     H_    0.706008 0.620401 0.545552 0.131476
H2    H     H_    0.316890 0.578929 0.454466 0.118271
H3    H     H_    0.183222 0.076906 0.546703 0.119810
H4    H     H_    0.790483 0.134217 0.464481 0.113833
H5    H     H_    0.702158 0.220982 0.445804 0.094363
H6    H     H_    0.264823 0.173896 0.527345 0.095745
H7    H     H_    0.234374 0.673804 0.470656 0.095980
H8    H     H_    0.788840 0.720486 0.539405 0.097177
H9    H     H_    0.874789 0.406456 0.561795 0.136718
H10   H     H_    0.131973 0.393062 0.439545 0.128154
H11   H     H_    0.368018 0.896648 0.560190 0.128251
H12   H     H_    0.616765 0.925728 0.441618 0.128459
H13   H     H_    0.845962 0.317332 0.461321 0.145147
H14   H     H_    0.156548 0.306050 0.537000 0.134055
H15   H     H_    0.343339 0.809555 0.462326 0.134872
H16   H     H_    0.650699 0.815606 0.535416 0.140149
H17   H     H_    0.578519 0.194149 0.924782 0.158639
H18   H     H_    0.572783 0.327633 0.051143 0.193278
H19   H     H_    0.901578 0.832207 0.953404 0.176632
H20   H     H_    0.895229 0.713620 0.083793 0.156162
H21   H     H_    0.401403 0.325497 0.958737 0.146194
H22   H     H_    0.549696 0.992094 0.050056 0.184508
H23   H     H_    0.910488 0.496902 0.955462 0.179112
H24   H     H_    0.080911 0.805134 0.046695 0.149382
H25   H     H_    0.447924 0.335710 0.068143 0.126558
H26   H     H_    0.524329 0.004298 0.936884 0.122481
H27   H     H_    0.933413 0.514605 0.069887 0.111133
H28   H     H_    0.029762 0.827431 0.941778 0.130321
H29   H     H_    0.435451 0.985542 0.943831 0.150622
H30   H     H_    0.400285 0.206435 0.086542 0.122697
H31   H     H_    0.070043 0.694179 0.918173 0.137174
H32   H     H_    0.020023 0.475818 0.064668 0.150831
H33   H     H_    0.653546 0.501218 0.532069 0.119248
H34   H     H_    0.357895 0.446589 0.453049 0.121204
H35   H     H_    0.142031 0.943308 0.547423 0.121610
H36   H     H_    0.838881 0.012344 0.467321 0.125892
H37   H     H_    0.660732 0.535057 0.416614 0.131113
H38   H     H_    0.365988 0.453172 0.568680 0.136582
H39   H     H_    0.133689 0.950399 0.431790 0.137802
H40   H     H_    0.839303 0.028638 0.584150 0.129806
H41   H     H_    0.746578 0.595764 0.430592 0.156788
H42   H     H_    0.292712 0.547492 0.570623 0.144654
H43   H     H_    0.206820 0.047043 0.430332 0.143637
H44   H     H_    0.754351 0.088300 0.581383 0.153925
H45   H     H_    0.336574 0.037368 0.537498 0.117364
H46   H     H_    0.647387 0.064822 0.478121 0.142371
H47   H     H_    0.847776 0.552510 0.535976 0.133334
H48   H     H_    0.163158 0.534621 0.463315 0.119116
H49   H     H_    0.779639 0.256414 0.555640 0.137076
H50   H     H_    0.209234 0.234526 0.423153 0.141390
H51   H     H_    0.291055 0.735242 0.575158 0.140754
H52   H     H_    0.709356 0.769967 0.436277 0.143616
H53   H     H_    0.649760 0.332218 0.463564 0.147974
H54   H     H_    0.343221 0.247268 0.519275 0.132585
H55   H     H_    0.156524 0.745593 0.480003 0.133228
H56   H     H_    0.843851 0.832682 0.526808 0.145142
O1    O     O_R   0.783100 0.287550 0.345460 -0.539561
O2    O     O_R   0.216900 0.287550 0.654540 -0.531162
O3    O     O_R   0.283100 0.787550 0.345460 -0.527617
O4    O     O_R   0.716900 0.787550 0.654540 -0.539637
O5    O     O_R   0.554710 0.081900 0.170950 -0.519318
O6    O     O_R   0.445290 0.081900 0.829050 -0.509451
O7    O     O_R   0.054710 0.581900 0.170950 -0.510380
O8    O     O_R   0.945290 0.581900 0.829050 -0.507687
O9    O     O_R   0.545650 0.284910 0.163740 -0.534180
O10   O     O_R   0.454350 0.284910 0.836260 -0.526204
O11   O     O_R   0.045650 0.784910 0.163740 -0.533158
O12   O     O_R   0.954350 0.784910 0.836260 -0.528564
O13   O     O_R   0.677950 0.374280 0.185410 -0.498393
O14   O     O_R   0.322050 0.374280 0.814590 -0.502458
O15   O     O_R   0.177950 0.874280 0.185410 -0.483995
O16   O     O_R   0.822050 0.874280 0.814590 -0.510944
O17   O     O_3   0.664670 0.164660 0.254930 -0.286602
O18   O     O_3   0.335330 0.164660 0.745070 -0.281010
O19   O     O_3   0.164670 0.664660 0.254930 -0.286357
O20   O     O_3   0.835330 0.664660 0.745070 -0.272027
O21   O     O_R   0.760020 0.037400 0.337700 -0.503239
O22   O     O_R   0.239980 0.037400 0.662300 -0.523172
O23   O     O_R   0.260020 0.537400 0.337700 -0.522629
O24   O     O_R   0.739980 0.537400 0.662300 -0.510271
O25   O     O_R   0.666600 0.921990 0.332020 -0.523866
O26   O     O_R   0.333400 0.921990 0.667980 -0.530805
O27   O     O_R   0.166600 0.421990 0.332020 -0.529799
O28   O     O_R   0.833400 0.421990 0.667980 -0.529488
O29   O     O_R   0.557260 0.082670 0.312540 -0.513676
O30   O     O_R   0.442740 0.082670 0.687460 -0.496692
O31   O     O_R   0.057260 0.582670 0.312540 -0.500562
O32   O     O_R   0.942740 0.582670 0.687460 -0.498013
O33   O     O_R   0.548410 0.285740 0.316480 -0.508249
O34   O     O_R   0.451590 0.285740 0.683520 -0.516410
O35   O     O_R   0.048410 0.785740 0.316480 -0.518137
O36   O     O_R   0.951590 0.785740 0.683520 -0.506961
O37   O     O_R   0.680500 0.375040 0.327000 -0.505068
O38   O     O_R   0.319500 0.375040 0.673000 -0.503629
O39   O     O_R   0.180500 0.875040 0.327000 -0.497773
O40   O     O_R   0.819500 0.875040 0.673000 -0.506189
O41   O     O_R   0.780350 0.286720 0.192720 -0.516111
O42   O     O_R   0.219650 0.286720 0.807280 -0.506860
O43   O     O_R   0.280350 0.786720 0.192720 -0.502213
O44   O     O_R   0.719650 0.786720 0.807280 -0.510055
O45   O     O_R   0.757470 0.036630 0.196110 -0.489205
O46   O     O_R   0.242530 0.036630 0.803890 -0.498089
O47   O     O_R   0.257470 0.536630 0.196110 -0.508743
O48   O     O_R   0.742530 0.536630 0.803890 -0.496131
O49   O     O_R   0.663840 0.921160 0.179280 -0.504434
O50   O     O_R   0.336160 0.921160 0.820720 -0.516362
O51   O     O_R   0.163840 0.421160 0.179280 -0.508558
O52   O     O_R   0.836160 0.421160 0.820720 -0.523703
N1    N     N_3   0.543387 0.369648 0.934014 -0.655436
H57   H     H_    0.496716 0.413296 0.937036 0.250368
H58   H     H_    0.558891 0.379069 0.885148 0.264912
N2    N     N_3   0.630992 0.172797 0.042414 -0.673892
H59   H     H_    0.652075 0.189084 0.092855 0.233941
H60   H     H_    0.665696 0.211829 0.012192 0.235835
N3    N     N_3   0.840418 0.680139 0.967425 -0.676461
H61   H     H_    0.820125 0.681808 0.915895 0.233917
H62   H     H_    0.806215 0.727414 0.994388 0.246693
N4    N     N_3   0.943429 0.878183 0.071776 -0.651222
H63   H     H_    0.989579 0.913869 0.058407 0.244573
H64   H     H_    0.941029 0.890138 0.124190 0.262466
C97   C     C_3   0.447436 0.959310 0.074562 -0.410914
H65   H     H_    0.469524 0.932832 0.126807 0.166025
H66   H     H_    0.397909 0.004503 0.079039 0.142729
H67   H     H_    0.436480 0.874895 0.045152 0.132326
C98   C     C_3   0.342281 0.166198 0.965680 -0.408763
H68   H     H_    0.320564 0.169808 0.911113 0.149618
H69   H     H_    0.346403 0.071710 0.980831 0.142452
H70   H     H_    0.304869 0.206664 0.997024 0.145283
C99   C     C_3   0.125871 0.634922 0.036085 -0.397331
H71   H     H_    0.150096 0.636667 0.089807 0.146183
H72   H     H_    0.113959 0.541010 0.021821 0.151236
H73   H     H_    0.164660 0.666762 0.003170 0.131023
C100  C     C_3   0.011142 0.448204 0.933864 -0.389989
H74   H     H_    0.982744 0.402830 0.888613 0.171840
H75   H     H_    0.057234 0.492728 0.917206 0.147399
H76   H     H_    0.028602 0.374630 0.969425 0.117177
C101  C     C_3   0.346248 0.979563 0.411876 -0.361573
H77   H     H_    0.382725 0.929354 0.383230 0.148437
H78   H     H_    0.306512 0.018458 0.373554 0.198474
H79   H     H_    0.377112 0.052653 0.438890 0.153644
C102  C     C_3   0.625001 0.970128 0.591296 -0.408500
H80   H     H_    0.622858 0.920496 0.639603 0.166086
H81   H     H_    0.642494 0.062302 0.604279 0.173967
H82   H     H_    0.571041 0.972516 0.566037 0.137021
C103  C     C_3   0.871985 0.483778 0.416872 -0.415431
H83   H     H_    0.926701 0.470264 0.438113 0.137663
H84   H     H_    0.867229 0.454831 0.362574 0.163739
H85   H     H_    0.860654 0.580596 0.418466 0.174656
C104  C     C_3   0.153179 0.475718 0.588293 -0.362214
H86   H     H_    0.116996 0.424033 0.616844 0.147513
H87   H     H_    0.192772 0.516268 0.626686 0.195347
H88   H     H_    0.121816 0.547456 0.561575 0.153853
N5    N     N_3   0.680638 0.273918 0.588679 -0.680337
H89   H     H_    0.703483 0.260319 0.638873 0.231353
H90   H     H_    0.642333 0.338304 0.590347 0.244809
N6    N     N_3   0.307484 0.238924 0.390199 -0.683023
H91   H     H_    0.285431 0.247885 0.339384 0.242277
H92   H     H_    0.354400 0.285386 0.396248 0.239824
N7    N     N_3   0.193051 0.736134 0.608820 -0.683471
H93   H     H_    0.215639 0.744453 0.659566 0.240255
H94   H     H_    0.146365 0.782046 0.603802 0.240193
N8    N     N_3   0.805754 0.795188 0.399662 -0.672280
H95   H     H_    0.780113 0.785118 0.350177 0.264456
H96   H     H_    0.843823 0.860960 0.398106 0.251121

loop_
_geom_bond_atom_site_label_1
_geom_bond_atom_site_label_2
_ccdc_geom_bond_type
Cr6   O6    S    
C39   C51   S    
Cr6   O26   S    
C15   C19   S    
C58   C62   S    
C8    C24   S    
C47   O35   A    
C16   H52   S    
C9    H9    S    
C14   C18   S    
C35   C36   S    
C8    C96   S    
C12   H46   S    
C1    O25   A    
C87   C92   T    
C11   H11   S    
C15   C31   S    
Cr3   O23   S    
Cr4   O44   S    
Cr7   O27   S    
C9    C25   S    
C8    H40   S    
C67   C83   S    
C27   H15   S    
C96   H4    S    
C11   C19   S    
C102  H80   S    
C97   H65   S    
C57   C61   S    
Cr1   O45   S    
C74   O46   A    
C42   H25   S    
Cr7   O19   S    
C38   H22   S    
C13   C29   S    
C8    H44   S    
C14   H50   S    
C104  H86   S    
C97   H67   S    
Cr5   O25   S    
C93   H1    S    
C70   O2    A    
C103  H83   S    
C6    H38   S    
Cr1   O1    S    
C46   O34   A    
C66   C82   S    
C33   C49   S    
Cr8   O28   S    
Cr12  O12   S    
C78   O6    A    
C5    H41   S    
C49   C78   S    
Cr12  O16   S    
C3    C18   S    
C100  H74   S    
C17   C93   S    
C41   C49   S    
C37   C42   S    
C84   O16   A    
C4    O28   A    
C51   C80   S    
Cr10  O18   S    
C21   C25   S    
C76   O52   A    
C59   C67   T    
C12   H12   S    
C55   C74   S    
C53   C61   T    
C58   C66   T    
C40   C43   S    
C28   H16   S    
N3    H61   S    
Cr5   O49   S    
N6    H91   S    
C6    C94   S    
C55   C63   T    
C36   N4    S    
C56   C64   T    
C43   H31   S    
C100  H75   S    
C23   C27   S    
Cr5   O29   S    
C52   C79   S    
C24   C28   S    
C98   H68   S    
Cr3   O19   S    
C36   C52   S    
C34   H18   S    
Cr10  O34   S    
C46   C85   S    
Cr11  O15   S    
C76   O48   A    
C44   H27   S    
Cr9   O33   S    
C20   C96   S    
C44   H32   S    
Cr9   O9    S    
C99   H71   S    
C48   O32   A    
Cr7   O7    S    
C47   O31   A    
C72   O4    A    
C73   O49   A    
C36   H20   S    
Cr7   O31   S    
C14   C30   S    
Cr6   O30   S    
C31   H7    S    
C41   H26   S    
C44   C52   S    
Cr6   O50   S    
C60   C64   S    
C46   O30   A    
C38   C97   S    
Cr3   O3    S    
C13   H49   S    
C45   O29   A    
C69   O37   A    
C85   C90   T    
C31   H55   S    
C102  H81   S    
C5    H37   S    
Cr12  O20   S    
C45   O33   A    
Cr1   O17   S    
Cr6   O18   S    
C79   O11   A    
C94   H34   S    
C3    O27   A    
Cr8   O52   S    
C38   C41   S    
C39   C100  S    
C10   H48   S    
C91   C92   S    
N5    H90   S    
C25   C103  S    
Cr3   O47   S    
C54   C62   T    
N1    H57   S    
C40   C52   S    
C21   C29   S    
C70   O38   A    
C94   H2    S    
C7    H39   S    
Cr4   O48   S    
C54   C75   S    
Cr11  O19   S    
Cr5   O5    S    
C104  H87   S    
C68   C84   S    
Cr12  O36   S    
Cr1   O21   S    
C2    O22   A    
Cr11  O39   S    
C40   C99   S    
Cr2   O22   S    
C35   N3    S    
C10   H10   S    
Cr10  O38   S    
Cr2   O46   S    
C84   O44   A    
Cr9   O37   S    
C26   H14   S    
C88   C91   T    
C11   C27   S    
C16   C20   S    
C75   O47   A    
C12   C20   S    
C22   C70   S    
C33   H17   S    
C33   C34   S    
Cr10  O10   S    
C48   C87   S    
Cr12  O40   S    
C32   H8    S    
C35   H19   S    
C98   H69   S    
C80   O12   A    
C37   C49   S    
Cr2   O2    S    
C14   N6    S    
C42   C50   S    
C7    H43   S    
C4    C17   S    
C9    C17   S    
Cr8   O20   S    
C48   O36   A    
C28   C102  S    
N4    H64   S    
C25   H13   S    
C99   H72   S    
C35   C51   S    
C18   C94   S    
C19   C95   S    
N8    H96   S    
C59   C63   S    
C101  H79   S    
C53   C76   S    
C79   O7    A    
C30   H54   S    
C50   C77   S    
Cr7   O51   S    
Cr8   O8    S    
C82   O42   A    
C93   H33   S    
C24   C72   S    
C81   O41   A    
C12   C28   S    
C30   H6    S    
C73   O45   A    
C77   O5    A    
C29   H5    S    
C102  H82   S    
C77   O9    A    
C56   C73   S    
C22   C30   S    
Cr4   O24   S    
C2    C19   S    
N8    H95   S    
C41   H29   S    
C95   H35   S    
C2    O26   A    
Cr9   O13   S    
C1    C20   S    
C86   C89   T    
C3    O23   A    
C15   H51   S    
C34   C50   S    
C5    C93   S    
N7    H93   S    
N3    H62   S    
C37   C98   S    
C39   C44   S    
C38   C50   S    
C13   C17   S    
Cr2   O18   S    
C16   C32   S    
C7    C95   S    
C15   N7    S    
C43   H28   S    
C72   O40   A    
N2    H60   S    
Cr4   O4    S    
C100  H76   S    
Cr9   O17   S    
C1    O21   A    
C104  H88   S    
C103  H85   S    
C27   C101  S    
C45   C86   S    
C81   O13   A    
C97   H66   S    
C95   H3    S    
C47   C88   S    
Cr11  O35   S    
C83   O15   A    
C43   C51   S    
C24   C32   S    
N5    H89   S    
C26   C104  S    
Cr11  O11   S    
C10   C18   S    
C7    C23   S    
C32   H56   S    
C10   C26   S    
C16   N8    S    
C75   O51   A    
C101  H78   S    
C37   H21   S    
N2    H59   S    
Cr5   O17   S    
C34   N2    S    
C40   H24   S    
N1    H58   S    
Cr4   O20   S    
C98   H70   S    
C69   O1    A    
C39   H23   S    
C60   C68   T    
C33   N1    S    
C11   H45   S    
C22   C26   S    
C96   H36   S    
C6    H42   S    
C5    C21   S    
C9    H47   S    
C23   C71   S    
N6    H92   S    
N4    H63   S    
C103  H84   S    
C99   H73   S    
C21   C69   S    
C78   O10   A    
Cr3   O43   S    
C80   O8    A    
C65   C81   S    
Cr2   O42   S    
C71   O39   A    
C71   O3    A    
C42   H30   S    
Cr8   O32   S    
C29   H53   S    
Cr1   O41   S    
C89   C90   S    
C101  H77   S    
C13   N5    S    
C82   O14   A    
Cr10  O14   S    
C74   O50   A    
C4    O24   A    
N7    H94   S    
C23   C31   S    
C57   C65   T    
C83   O43   A    
C6    C22   S    
