data_mof_unit_9535.cif
_audit_creation_date              2012-10-26T18:44:34-0400
_audit_creation_method            fapswitch 2.2
_symmetry_space_group_name_H-M    P1
_symmetry_Int_Tables_number       1
_space_group_crystal_system       triclinic
_cell_length_a                    13.018042
_cell_length_b                    16.023531
_cell_length_c                    14.743407
_cell_angle_alpha                 90.645491
_cell_angle_beta                  95.74832
_cell_angle_gamma                 90.045834
_cell_volume                      3059.73625498

loop_
_atom_site_label
_atom_site_type_symbol
_atom_type_description
_atom_site_fract_x
_atom_site_fract_y
_atom_site_fract_z
_atom_type_partial_charge
C1    C     C_R   0.500480 0.340959 0.499557 0.540939
C2    C     C_R   0.500728 0.424520 0.046874 0.365876
C3    C     C_R   0.500372 0.500192 0.902910 -0.034929
C4    C     C_R   0.499626 0.499810 0.097090 -0.034929
C5    C     C_R   0.501216 0.424834 0.951061 -0.151060
C6    C     C_R   0.498780 0.575168 0.048938 -0.151063
C7    C     C_1   0.500202 0.500041 0.802769 0.210539
C8    C     C_1   0.499797 0.499960 0.197231 0.210536
C9    C     C_R   0.300254 0.502079 0.483459 0.574603
C10   C     C_R   0.699746 0.497922 0.516541 0.574599
C11   C     C_R   0.812014 0.491453 0.525731 0.008553
C12   C     C_R   0.499519 0.659041 0.500443 0.540941
C13   C     C_R   0.187986 0.508549 0.474269 0.008554
C14   C     C_R   0.027179 0.559022 0.397242 -0.125602
C15   C     C_R   0.972822 0.440981 0.602758 -0.125601
C16   C     C_R   0.134420 0.553461 0.402157 -0.101978
C17   C     C_R   0.865581 0.446543 0.597844 -0.101979
C18   C     C_R   0.133753 0.470639 0.540365 0.354086
C19   C     C_R   0.866247 0.529362 0.459635 0.354083
C20   C     C_R   0.026823 0.477825 0.536067 -0.006210
C21   C     C_R   0.973177 0.522178 0.463933 -0.006210
C22   C     C_R   0.486297 0.957584 0.581611 -0.016949
C23   C     C_R   0.514080 0.954315 0.419391 -0.021603
C24   C     C_R   0.513714 0.042414 0.418397 -0.016955
C25   C     C_R   0.500861 0.912486 0.501169 -0.006707
C26   C     C_R   0.499141 0.087513 0.498837 -0.006700
C27   C     C_R   0.811590 0.401880 0.666596 0.048156
C28   C     C_R   0.748089 0.332989 0.640702 -0.063666
C29   C     C_R   0.694023 0.292961 0.705086 -0.090955
C30   C     C_R   0.703338 0.321140 0.795608 -0.103975
C31   C     C_R   0.767271 0.389089 0.822018 -0.112402
C32   C     C_R   0.821665 0.429230 0.757865 -0.078167
C33   C     C_R   0.188412 0.598128 0.333409 0.048155
C34   C     C_R   0.485928 0.045685 0.580616 -0.021602
C35   C     C_R   0.178345 0.570780 0.242139 -0.078163
C36   C     C_R   0.232740 0.610924 0.177990 -0.112399
C37   C     C_R   0.296666 0.678876 0.204403 -0.103971
C38   C     C_R   0.305974 0.707054 0.294926 -0.090957
C39   C     C_R   0.251908 0.667021 0.359307 -0.063673
C40   C     C_R   0.474721 0.094027 0.665947 0.031516
C41   C     C_R   0.549828 0.087766 0.740959 -0.093871
C42   C     C_R   0.538272 0.131819 0.821680 -0.123311
C43   C     C_R   0.452237 0.182866 0.827898 -0.113453
C44   C     C_R   0.377517 0.189868 0.753429 -0.097919
C45   C     C_1   0.499064 0.822649 0.501676 -0.052594
C46   C     C_R   0.388359 0.145409 0.672793 -0.088915
C47   C     C_R   0.525313 0.905974 0.334064 0.031534
C48   C     C_R   0.611681 0.854595 0.327237 -0.088897
C49   C     C_R   0.622547 0.810134 0.246606 -0.097905
C50   C     C_R   0.547844 0.817134 0.172123 -0.113440
C51   C     C_R   0.461804 0.868179 0.178323 -0.123307
C52   C     C_R   0.450225 0.912234 0.259038 -0.093870
C53   C     C_R   0.468237 0.912781 0.666367 0.039079
C54   C     C_R   0.547626 0.865943 0.712886 -0.104410
C55   C     C_R   0.531683 0.826927 0.794691 -0.072920
C56   C     C_1   0.500934 0.177351 0.498326 -0.052577
C57   C     C_R   0.436586 0.834423 0.830460 -0.063050
C58   C     C_R   0.356997 0.880325 0.784099 -0.116030
C59   C     C_R   0.372567 0.919341 0.702258 -0.081166
C60   C     C_R   0.531825 0.087218 0.333656 0.039095
C61   C     C_R   0.627546 0.080704 0.297849 -0.081179
C62   C     C_R   0.643186 0.119749 0.216042 -0.116052
C63   C     C_R   0.563613 0.165629 0.169627 -0.063081
C64   C     C_R   0.468460 0.173071 0.205308 -0.072927
C65   C     C_R   0.452449 0.134029 0.287082 -0.104416
C66   C     C_1   0.501104 0.252179 0.498581 -0.020295
C67   C     C_1   0.498894 0.747821 0.501420 -0.020301
C68   C     C_R   0.499268 0.575482 0.953125 0.365882
Cu1   Cu    Cu3+1 0.500030 0.500000 0.589220 1.056977
Cu2   Cu    Cu3+1 0.499970 0.500000 0.410780 1.056977
F1    F     F_    0.814931 0.574407 0.391691 -0.639122
F2    F     F_    0.185069 0.425594 0.608307 -0.639117
F3    F     F_    0.498845 0.649515 0.909474 -0.668427
F4    F     F_    0.501150 0.350487 0.090525 -0.668454
H1    H     H_    0.986404 0.593693 0.342070 0.188676
H2    H     H_    0.129792 0.517689 0.221135 0.114809
H3    H     H_    0.225749 0.589114 0.107890 0.117555
H4    H     H_    0.338928 0.709605 0.154705 0.111579
H5    H     H_    0.355567 0.759519 0.315452 0.125649
H6    H     H_    0.260346 0.688972 0.429421 0.094534
H7    H     H_    0.617188 0.048828 0.736806 0.107798
H8    H     H_    0.596205 0.126615 0.879328 0.107106
H9    H     H_    0.443393 0.216834 0.890481 0.125507
H10   H     H_    0.310908 0.229428 0.758342 0.137921
H11   H     H_    0.329387 0.150631 0.615884 0.116627
H12   H     H_    0.013597 0.406312 0.657931 0.188678
H13   H     H_    0.670639 0.849375 0.384156 0.116615
H14   H     H_    0.689159 0.770576 0.241708 0.137927
H15   H     H_    0.556705 0.783164 0.109544 0.125490
H16   H     H_    0.403885 0.873382 0.120663 0.107093
H17   H     H_    0.382861 0.951170 0.263177 0.107784
H18   H     H_    0.622034 0.860685 0.686399 0.107084
H19   H     H_    0.593285 0.791380 0.830675 0.157798
H20   H     H_    0.424558 0.804900 0.894208 0.163893
H21   H     H_    0.283393 0.886024 0.811824 0.108780
H22   H     H_    0.310569 0.955245 0.667221 0.108597
H23   H     H_    0.497810 0.634017 0.085627 0.123564
H24   H     H_    0.689534 0.044819 0.332930 0.108584
H25   H     H_    0.716836 0.114094 0.188387 0.108783
H26   H     H_    0.575699 0.195178 0.105906 0.163902
H27   H     H_    0.406870 0.208600 0.169282 0.157862
H28   H     H_    0.378003 0.139252 0.313505 0.107072
H29   H     H_    0.502186 0.365986 0.914372 0.123560
H30   H     H_    0.739646 0.311037 0.570588 0.094529
H31   H     H_    0.644424 0.240499 0.684562 0.125661
H32   H     H_    0.661076 0.290416 0.845309 0.111576
H33   H     H_    0.774267 0.410901 0.892118 0.117550
H34   H     H_    0.870223 0.482318 0.778867 0.114808
N1    N     N_1   0.500030 0.499980 0.276710 -0.171217
N2    N     N_1   0.499970 0.500020 0.723290 -0.171216
O1    O     O_R   0.500050 0.380310 0.575330 -0.492036
O2    O     O_R   0.499950 0.619690 0.424670 -0.492032
O3    O     O_R   0.500000 0.380310 0.424640 -0.490929
O4    O     O_R   0.500000 0.619690 0.575360 -0.490931
O5    O     O_R   0.349020 0.499990 0.563110 -0.434165
O6    O     O_R   0.650980 0.500010 0.436890 -0.434167
O7    O     O_R   0.348970 0.499990 0.412410 -0.509760
O8    O     O_R   0.651030 0.500010 0.587590 -0.509762

loop_
_geom_bond_atom_site_label_1
_geom_bond_atom_site_label_2
_ccdc_geom_bond_type
C35   H2    S    
C5    H29   S    
C9    O7    A    
C41   C42   A    
C19   F1    S    
C35   C36   A    
C42   H8    S    
C55   H19   S    
C53   C59   A    
C53   C54   A    
C40   C46   A    
C11   C19   A    
C62   C63   A    
C13   C18   A    
C34   C40   S    
C14   C21   A    
C36   C37   A    
C19   C21   A    
C37   C38   A    
C24   C26   A    
C3    C7    S    
C36   H3    S    
C51   H16   S    
C30   C31   A    
C56   C66   T    
C38   H5    S    
Cu2   O7    S    
Cu1   O8    S    
C43   H9    S    
C9    C13   S    
C26   C34   A    
Cu1   O5    S    
C61   H24   S    
C22   C25   A    
C45   C67   T    
C23   C24   A    
C42   C43   A    
C61   C62   A    
C2    F4    S    
C4    C8    S    
C46   H11   S    
C6    C68   A    
C30   H32   S    
C49   H14   S    
C29   H31   S    
C15   C20   A    
C1    O3    A    
C65   H28   S    
C44   C46   A    
C1    C66   S    
C22   C53   S    
C12   O4    A    
Cu2   O3    S    
C18   F2    S    
C64   H27   S    
C22   C34   A    
C12   C67   S    
Cu1   O4    S    
C23   C47   S    
C51   C52   A    
C17   C27   S    
C58   H21   S    
C4    C6    A    
C63   H26   S    
C3    C5    A    
C58   C59   A    
C63   C64   A    
C26   C56   S    
C60   C61   A    
C9    O5    A    
C2    C4    A    
C43   C44   A    
C6    H23   S    
C54   H18   S    
C29   C30   A    
C10   O8    A    
Cu2   N1    S    
C16   C33   S    
Cu1   N2    S    
C28   H30   S    
C50   H15   S    
C47   C48   A    
C24   C60   S    
C41   H7    S    
C50   C51   A    
C48   H13   S    
C33   C39   A    
Cu2   O2    S    
C3    C68   A    
C40   C41   A    
C60   C65   A    
C57   H20   S    
C15   H12   S    
C14   C16   A    
C2    C5    A    
C59   H22   S    
C25   C45   S    
C12   O2    A    
C10   O6    A    
C15   C17   A    
C54   C55   A    
C28   C29   A    
C27   C32   A    
C31   H33   S    
C31   C32   A    
C44   H10   S    
C11   C17   A    
C47   C52   A    
C37   H4    S    
C7    N2    T    
Cu2   O6    S    
C39   H6    S    
C55   C57   A    
C68   F3    S    
C8    N1    T    
C64   C65   A    
Cu1   O1    S    
C57   C58   A    
C38   C39   A    
C48   C49   A    
C33   C35   A    
C18   C20   A    
C23   C25   A    
Cu1   Cu2   S    
C10   C11   S    
C62   H25   S    
C20   C21   A    
C49   C50   A    
C32   H34   S    
C13   C16   A    
C27   C28   A    
C52   H17   S    
C1    O1    A    
C14   H1    S    
