data_mof_unit_54806.cif
_audit_creation_date              2012-12-10T19:48:43-0500
_audit_creation_method            fapswitch 2.2
_symmetry_space_group_name_H-M    P1
_symmetry_Int_Tables_number       1
_space_group_crystal_system       triclinic
_cell_length_a                    13.10252
_cell_length_b                    14.162919
_cell_length_c                    14.858994
_cell_angle_alpha                 90.283301
_cell_angle_beta                  89.60813
_cell_angle_gamma                 69.579463
_cell_volume                      2583.96074546

loop_
_atom_site_label
_atom_site_type_symbol
_atom_type_description
_atom_site_fract_x
_atom_site_fract_y
_atom_site_fract_z
_atom_type_partial_charge
C1    C     C_R   0.496335 0.501394 0.673079 0.934966
C2    C     C_R   0.824353 0.404522 0.502032 -0.237232
C3    C     C_R   0.477920 0.415663 0.907542 0.185778
C4    C     C_R   0.705028 0.443516 0.498891 0.912425
C5    C     C_R   0.497231 0.415654 0.815751 -0.268365
C6    C     C_R   0.477882 0.506317 0.769882 -0.246863
C7    C     C_R   0.433135 0.599604 0.815497 0.453880
C8    C     C_R   0.406051 0.600555 0.907057 0.068023
C9    C     C_R   0.435311 0.508496 0.953194 0.004373
C10   C     C_R   0.542346 0.522202 0.081726 -0.170203
C11   C     C_R   0.561479 0.519850 0.173475 0.184206
C12   C     C_R   0.989556 0.446712 0.497379 -0.012386
C13   C     C_R   0.484308 0.504056 0.231997 -0.014834
C14   C     C_R   0.389038 0.493139 0.199232 -0.235444
C15   C     C_R   0.370755 0.495687 0.107504 -0.189069
C16   C     C_R   0.499464 0.499960 0.327575 0.863069
C17   C     C_R   0.447941 0.509788 0.049483 0.127911
C18   C     C_R   0.591987 0.864874 0.531270 -0.303593
C19   C     C_R   0.589232 0.766516 0.530310 0.010969
C20   C     C_R   0.411016 0.824954 0.471698 -0.015660
C21   C     C_R   0.410154 0.924632 0.472267 -0.241035
C22   C     C_R   0.502021 0.945969 0.501403 0.177686
C23   C     C_R   0.883045 0.462282 0.466604 -0.051973
C24   C     C_R   0.465477 0.114863 0.424444 0.303175
C25   C     C_R   0.457342 0.217198 0.428707 0.497115
C26   C     C_R   0.543831 0.190803 0.570577 -0.110695
C27   C     C_R   0.545916 0.090846 0.571892 -0.373107
C28   C     C_R   0.295549 0.555949 0.500316 0.870263
C29   C     C_R   0.504474 0.051620 0.499287 -0.053036
C30   C     C_R   0.032115 0.667362 0.384631 -0.213107
C31   C     C_R   0.179521 0.590206 0.485978 -0.092902
C32   C     C_R   0.878226 0.316432 0.550444 0.445080
C33   C     C_R   0.986978 0.294458 0.573249 -0.387512
C34   C     C_R   0.034119 0.522824 0.476499 0.106381
C35   C     C_R   0.046048 0.356047 0.545617 0.431295
C36   C     C_3   0.497027 0.726561 0.784914 0.088450
C37   C     C_3   0.460101 0.837009 0.757090 -0.302709
C38   C     C_3   0.549474 0.881145 0.772680 -0.995657
C39   C     C_3   0.349385 0.698828 0.956682 -0.882281
C40   C     C_3   0.664335 0.531584 0.207107 -0.962656
C41   C     C_3   0.523530 0.022624 0.294885 0.089230
C42   C     C_3   0.559805 0.091333 0.232638 -0.324368
C43   C     C_3   0.649810 0.030078 0.168043 -0.990158
C44   C     C_3   0.299014 0.307213 0.355804 0.168482
C45   C     C_R   0.984017 0.597333 0.410911 0.158982
C46   C     C_3   0.261323 0.294978 0.260689 -0.375787
C47   C     C_3   0.137624 0.342333 0.253505 -0.961522
C48   C     C_3   0.857835 0.160683 0.547784 0.091037
C49   C     C_3   0.810307 0.158849 0.453847 -0.334047
C50   C     C_3   0.838886 0.051310 0.418406 -0.988415
C51   C     C_3   0.215659 0.228140 0.579940 0.083982
C52   C     C_3   0.228988 0.207329 0.681122 -0.327211
C53   C     C_3   0.278712 0.094553 0.699056 -0.980905
C54   C     C_3   0.506840 0.316700 0.956506 -0.888535
C55   C     C_R   0.886846 0.601048 0.372094 -0.249538
C56   C     C_R   0.836011 0.536069 0.401021 -0.154728
C57   C     C_R   0.124958 0.529943 0.520318 -0.218737
C58   C     C_R   0.132028 0.661494 0.419973 -0.207955
H1    H     H_    0.174680 0.708151 0.392429 0.149411
H2    H     H_    0.337769 0.984704 0.450478 0.163222
H3    H     H_    0.577397 0.219115 0.626485 0.177831
H4    H     H_    0.579012 0.044793 0.629901 0.179477
H5    H     H_    0.995273 0.722969 0.333555 0.139806
H6    H     H_    0.158591 0.486899 0.579386 0.207057
H7    H     H_    0.023055 0.230263 0.616002 0.161598
H8    H     H_    0.759441 0.543414 0.370531 0.165553
H9    H     H_    0.569619 0.682532 0.743956 0.151699
H10   H     H_    0.521215 0.722039 0.857071 0.129478
H11   H     H_    0.437773 0.843725 0.684811 0.243172
H12   H     H_    0.530617 0.344204 0.780317 0.183477
H13   H     H_    0.386830 0.880957 0.797170 0.221196
H14   H     H_    0.571963 0.876080 0.844898 0.265820
H15   H     H_    0.519797 0.961641 0.753282 0.267583
H16   H     H_    0.622768 0.840060 0.731525 0.264207
H17   H     H_    0.277575 0.694091 0.993910 0.241478
H18   H     H_    0.406048 0.713761 0.005251 0.231721
H19   H     H_    0.319359 0.764037 0.910756 0.267203
H20   H     H_    0.710662 0.464466 0.247064 0.229580
H21   H     H_    0.717675 0.538506 0.150989 0.243310
H22   H     H_    0.643434 0.600869 0.249070 0.251738
H23   H     H_    0.601125 0.532748 0.034730 0.131710
H24   H     H_    0.498801 0.969409 0.252720 0.166549
H25   H     H_    0.593483 0.975411 0.336052 0.134255
H26   H     H_    0.489212 0.139201 0.193052 0.237443
H27   H     H_    0.591001 0.141178 0.273461 0.233024
H28   H     H_    0.721846 0.982481 0.206222 0.262614
H29   H     H_    0.674767 0.081906 0.124523 0.273808
H30   H     H_    0.620292 0.981174 0.124494 0.266171
H31   H     H_    0.262578 0.387582 0.376105 0.176543
H32   H     H_    0.265912 0.262979 0.401954 0.125080
H33   H     H_    0.299749 0.330916 0.211179 0.225862
H34   H     H_    0.328637 0.483840 0.245041 0.154179
H35   H     H_    0.286715 0.213605 0.243399 0.250754
H36   H     H_    0.097355 0.307057 0.302251 0.269740
H37   H     H_    0.112228 0.330656 0.184444 0.266723
H38   H     H_    0.110612 0.424615 0.267409 0.269664
H39   H     H_    0.829344 0.112410 0.592854 0.163526
H40   H     H_    0.948252 0.126004 0.545161 0.115742
H41   H     H_    0.720399 0.194319 0.456722 0.251679
H42   H     H_    0.842470 0.202117 0.406194 0.205974
H43   H     H_    0.928661 0.013502 0.413915 0.266995
H44   H     H_    0.804112 0.052841 0.350254 0.268242
H45   H     H_    0.297664 0.486361 0.081786 0.144300
H46   H     H_    0.804171 0.007569 0.463431 0.267868
H47   H     H_    0.298517 0.211352 0.551891 0.151071
H48   H     H_    0.182800 0.176196 0.543480 0.121624
H49   H     H_    0.283067 0.245432 0.709243 0.226617
H50   H     H_    0.149376 0.238282 0.716739 0.221076
H51   H     H_    0.223377 0.055659 0.675306 0.263069
H52   H     H_    0.291533 0.081732 0.772415 0.268326
H53   H     H_    0.358360 0.061883 0.663797 0.278933
H54   H     H_    0.570993 0.310554 0.006896 0.247297
H55   H     H_    0.433493 0.312168 0.991369 0.238928
H56   H     H_    0.664643 0.877134 0.554255 0.145571
H57   H     H_    0.537848 0.251236 0.909762 0.232791
H58   H     H_    0.659076 0.705470 0.554284 0.142875
H59   H     H_    0.340150 0.809617 0.448760 0.125119
H60   H     H_    0.848109 0.656459 0.321332 0.144166
N1    N     N_R   0.500000 0.747530 0.500020 -0.086154
N2    N     N_R   0.499940 0.252470 0.500020 -0.148667
O1    O     O_R   0.499990 0.420530 0.630930 -0.623677
O2    O     O_3   0.431723 0.079249 0.347437 -0.662719
O3    O     O_3   0.413977 0.279646 0.356821 -0.627618
O4    O     O_3   0.820343 0.259250 0.585460 -0.628422
O5    O     O_3   0.156838 0.331418 0.564224 -0.676079
O6    O     O_R   0.499990 0.579480 0.630940 -0.580816
O7    O     O_R   0.653620 0.381060 0.499970 -0.581148
O8    O     O_R   0.653620 0.540010 0.499980 -0.637389
O9    O     O_R   0.500010 0.420520 0.369060 -0.569558
O10   O     O_R   0.500010 0.579470 0.369070 -0.623193
O11   O     O_R   0.346380 0.459990 0.500020 -0.600061
O12   O     O_R   0.346380 0.618940 0.500030 -0.615586
O13   O     O_3   0.411090 0.689586 0.770026 -0.624777
Zn1   Zn    Zn3+2 0.500000 0.393860 0.499990 0.973356
Zn2   Zn    Zn3+2 0.500000 0.606140 0.500010 0.946448

loop_
_geom_bond_atom_site_label_1
_geom_bond_atom_site_label_2
_ccdc_geom_bond_type
C53   H52   S    
C55   C56   A    
C50   H46   S    
C22   C29   S    
C37   H11   S    
C27   C29   A    
C41   C42   S    
C32   O4    S    
C30   C45   A    
O10   Zn2   S    
O7    Zn1   S    
O11   Zn1   S    
C36   O13   S    
C18   H56   S    
C36   H9    S    
C33   H7    S    
C7    C8    A    
C48   H39   S    
C12   C23   A    
C26   C27   A    
C5    H12   S    
C43   H30   S    
C39   H19   S    
C31   C58   A    
C36   C37   S    
C26   H3    S    
C26   N2    A    
C7    O13   S    
O12   Zn2   S    
C5    C6    A    
C3    C54   S    
C10   C17   A    
C41   H25   S    
C54   H55   S    
C2    C32   A    
C18   C19   A    
C35   O5    S    
C24   C29   A    
C52   H49   S    
C8    C9    A    
C34   C57   A    
C47   H38   S    
C40   H22   S    
C8    C39   S    
C39   H17   S    
O1    Zn1   S    
C16   O10   A    
C53   H53   S    
C19   N1    A    
C21   C22   A    
C20   H59   S    
C45   C55   A    
C44   C46   S    
C38   H14   S    
C4    O8    A    
C51   C52   S    
C51   O5    S    
C23   C56   A    
C42   H26   S    
C24   C25   A    
C21   H2    S    
O8    Zn2   S    
C42   H27   S    
C46   H33   S    
C58   H1    S    
N1    Zn2   S    
C1    C6    S    
C28   O12   A    
C41   O2    S    
C2    C4    S    
C37   C38   S    
C3    C9    A    
C27   H4    S    
C49   H41   S    
C51   H47   S    
C54   H57   S    
C24   O2    S    
C40   H21   S    
C54   H54   S    
C34   C45   A    
C39   H18   S    
C1    O6    A    
C12   C35   A    
C16   O9    A    
C25   O3    S    
C14   H34   S    
C9    C17   S    
C48   C49   S    
O6    Zn2   S    
C50   H44   S    
C37   H13   S    
C40   H20   S    
C42   C43   S    
C12   C34   A    
C25   N2    A    
C44   H32   S    
C52   C53   S    
C57   H6    S    
C38   H16   S    
C53   H51   S    
C15   C17   A    
C46   C47   S    
C10   H23   S    
C4    O7    A    
C18   C22   A    
C43   H28   S    
C28   C31   S    
C3    C5    A    
C48   O4    S    
C36   H10   S    
C6    C7    A    
C48   H40   S    
C44   O3    S    
C28   O11   A    
C43   H29   S    
C32   C33   A    
C31   C57   A    
C49   H42   S    
C11   C13   A    
C46   H35   S    
C19   H58   S    
C51   H48   S    
C56   H8    S    
C41   H24   S    
C30   C58   A    
C30   H5    S    
C33   C35   A    
C47   H36   S    
N2    Zn1   S    
C11   C40   S    
C1    O1    A    
C10   C11   A    
O9    Zn1   S    
C20   C21   A    
C52   H50   S    
C50   H43   S    
C49   C50   S    
C13   C16   S    
C2    C23   A    
C47   H37   S    
C14   C15   A    
C15   H45   S    
C13   C14   A    
C55   H60   S    
C20   N1    A    
C44   H31   S    
C38   H15   S    
