data_mof_unit_44511.cif
_audit_creation_date              2012-12-11T18:37:46-0500
_audit_creation_method            fapswitch 2.2
_symmetry_space_group_name_H-M    P1
_symmetry_Int_Tables_number       1
_space_group_crystal_system       triclinic
_cell_length_a                    8.218652
_cell_length_b                    14.282301
_cell_length_c                    27.041552
_cell_angle_alpha                 92.957096
_cell_angle_beta                  93.01309
_cell_angle_gamma                 88.382176
_cell_volume                      3164.52594504

loop_
_atom_site_label
_atom_site_type_symbol
_atom_type_description
_atom_site_fract_x
_atom_site_fract_y
_atom_site_fract_z
_atom_type_partial_charge
Ba1   Ba    Ba6+2 0.849670 0.455410 0.524690 1.639255
Ba2   Ba    Ba6+2 0.340150 0.544510 0.475310 1.637516
C1    C     C_3   0.672276 0.107242 0.665029 -0.363306
C2    C     C_R   0.922871 0.593572 0.175603 0.573933
C3    C     C_2   0.765067 0.564034 0.270758 -0.085183
C4    C     C_3   0.105718 0.252249 0.665865 0.336294
C5    C     C_3   0.750919 0.594100 0.324595 -0.047115
C6    C     C_1   0.979006 0.485329 0.343535 0.032739
C7    C     C_2   0.018547 0.480785 0.296053 -0.102423
C8    C     C_2   0.903611 0.519634 0.256104 0.194398
C9    C     C_R   0.018751 0.506394 0.102171 -0.079591
C10   C     C_R   0.038743 0.426373 0.130529 -0.035955
C11   C     C_R   0.096947 0.342817 0.107620 -0.060549
C12   C     C_3   0.639991 0.203276 0.644186 0.355042
C13   C     C_R   0.960119 0.590317 0.125084 -0.024425
C14   C     C_2   0.850660 0.533875 0.359378 -0.289586
C15   C     C_2   0.347159 0.473816 0.641514 -0.280531
C16   C     C_3   0.087758 0.224477 0.718788 -0.311560
C17   C     C_R   0.153688 0.413377 0.976993 0.020122
C18   C     C_R   0.073304 0.580453 0.971704 0.020450
C19   C     C_R   0.132226 0.495043 0.949005 0.049503
C20   C     C_R   0.212780 0.330324 0.952449 -0.101619
C21   C     C_R   0.249274 0.327567 0.902719 -0.060400
C22   C     C_R   0.228969 0.407334 0.874766 -0.024495
C23   C     C_3   0.534424 0.675960 0.622482 0.293698
C24   C     C_R   0.170334 0.491233 0.897713 -0.079595
C25   C     C_R   0.150395 0.571299 0.869394 -0.035785
C26   C     C_R   0.189787 0.566553 0.818791 0.596967
C27   C     C_R   0.266227 0.404166 0.824230 0.574045
C28   C     C_3   0.163089 0.257929 0.424401 0.309580
C29   C     C_2   0.424053 0.434459 0.728947 -0.086870
C30   C     C_3   0.439454 0.407553 0.674761 -0.045887
C31   C     C_1   0.212975 0.517004 0.656720 0.029781
C32   C     C_2   0.170941 0.518478 0.703944 -0.102128
C33   C     C_2   0.285221 0.478434 0.743768 0.194266
C34   C     C_3   0.534916 0.697994 0.678101 -0.357213
C35   C     C_R   0.115816 0.417139 0.028188 0.020395
C36   C     C_R   0.056865 0.502551 0.050879 0.049511
C37   C     C_R   0.035398 0.584209 0.022884 0.020170
C38   C     C_R   0.134653 0.338144 0.057862 -0.099022
C39   C     C_R   0.939792 0.670060 0.097121 -0.060398
C40   C     C_3   0.168132 0.152172 0.414101 -0.381830
C41   C     C_R   0.054544 0.659481 0.942057 -0.099107
C42   C     C_R   0.092268 0.654848 0.892315 -0.060619
C43   C     C_R   0.976270 0.667269 0.047405 -0.101704
C44   C     C_R   0.689206 0.064998 0.473358 -0.034876
C45   C     C_3   0.084359 0.747583 0.333976 0.336676
C46   C     C_R   0.511850 0.198692 0.502332 0.047141
C47   C     C_R   0.377148 0.230346 0.528465 -0.297969
C48   C     C_R   0.278148 0.167267 0.549403 0.013957
C49   C     C_R   0.322974 0.072500 0.549288 -0.143565
C50   C     C_R   0.463079 0.039621 0.525532 -0.006886
C51   C     C_R   0.556145 0.101837 0.500059 -0.027162
C52   C     C_3   0.032598 0.742459 0.575226 0.308892
C53   C     C_R   0.641265 0.908304 0.499959 -0.021196
C54   C     C_R   0.734283 0.969515 0.473942 -0.000726
C55   C     C_R   0.685201 0.812174 0.499194 0.024280
C56   C     C_3   0.101866 0.774615 0.280906 -0.312862
C57   C     C_R   0.817343 0.778055 0.472806 -0.289642
C58   C     C_R   0.917081 0.838878 0.450717 0.014833
C59   C     C_R   0.874159 0.934550 0.450138 -0.139931
C60   C     C_R   0.507191 0.944573 0.525775 -0.040221
C61   C     C_3   0.032586 0.848306 0.585317 -0.379380
C62   C     C_3   0.657690 0.340114 0.379929 0.300246
C63   C     C_3   0.655590 0.317292 0.324345 -0.362087
C64   C     C_3   0.550160 0.796741 0.355546 0.358435
C65   C     C_3   0.517320 0.892584 0.334524 -0.363725
C66   C     C_R   0.999350 0.431210 0.181150 0.597211
H1    H     H_    0.683769 0.201246 0.605933 0.076175
H2    H     H_    0.782726 0.357920 0.393335 0.010910
H3    H     H_    0.573904 0.401114 0.386840 0.080908
H4    H     H_    0.803768 0.087782 0.664414 0.149816
H5    H     H_    0.744647 0.259396 0.316064 0.133399
H6    H     H_    0.688202 0.379751 0.304690 0.071218
H7    H     H_    0.505883 0.216588 0.642830 -0.061887
H8    H     H_    0.602469 0.053780 0.642134 0.073177
H9    H     H_    0.408465 0.659565 0.608842 0.017231
H10   H     H_    0.449981 0.758022 0.686232 0.134205
H11   H     H_    0.495527 0.636112 0.697123 0.073922
H12   H     H_    0.257465 0.132869 0.385635 0.128783
H13   H     H_    0.659715 0.715977 0.692589 0.133093
H14   H     H_    0.633310 0.107692 0.703747 0.123116
H15   H     H_    0.091576 0.288063 0.743968 0.122226
H16   H     H_    0.157499 0.682053 0.339819 0.092690
H17   H     H_    0.954000 0.735151 0.339121 -0.052104
H18   H     H_    0.220944 0.807259 0.276859 0.146017
H19   H     H_    0.096294 0.710812 0.255918 0.122943
H20   H     H_    0.002739 0.824980 0.269900 0.120255
H21   H     H_    0.684224 0.783398 0.356511 -0.064924
H22   H     H_    0.587542 0.946222 0.357166 0.070324
H23   H     H_    0.204245 0.115952 0.448373 0.066000
H24   H     H_    0.385879 0.912062 0.335329 0.150885
H25   H     H_    0.031237 0.317313 0.660064 0.091613
H26   H     H_    0.555471 0.891801 0.295708 0.122748
H27   H     H_    0.135543 0.450430 0.286058 0.129881
H28   H     H_    0.113915 0.279902 0.128239 0.122058
H29   H     H_    0.513855 0.407185 0.755730 0.118646
H30   H     H_    0.294097 0.261757 0.886142 0.122262
H31   H     H_    0.232789 0.265301 0.970468 0.068552
H32   H     H_    0.178473 0.270695 0.043945 0.068537
H33   H     H_    0.674964 0.590367 0.243782 0.118408
H34   H     H_    0.045679 0.128316 0.400424 0.118561
H35   H     H_    0.894945 0.735884 0.113677 0.122368
H36   H     H_    0.010804 0.726942 0.955975 0.068528
H37   H     H_    0.235894 0.265865 0.661044 -0.053764
H38   H     H_    0.075362 0.717795 0.871718 0.122103
H39   H     H_    0.053690 0.548488 0.713917 0.130469
H40   H     H_    0.956195 0.732284 0.029385 0.068547
H41   H     H_    0.834782 0.546941 0.398735 0.083863
H42   H     H_    0.342042 0.303986 0.529304 0.071588
H43   H     H_    0.246417 0.024396 0.566530 0.074687
H44   H     H_    0.951112 0.981386 0.432239 0.072865
H45   H     H_    0.908182 0.720430 0.564090 -0.001667
H46   H     H_    0.850078 0.704102 0.472658 0.063674
H47   H     H_    0.760048 0.109389 0.452111 0.099000
H48   H     H_    0.969266 0.190956 0.722497 0.145200
H49   H     H_    0.434327 0.899596 0.546137 0.093881
H50   H     H_    0.187664 0.174637 0.729831 0.121030
H51   H     H_    0.287284 0.281688 0.434801 0.003324
H52   H     H_    0.081847 0.274765 0.455302 0.067965
H53   H     H_    0.531787 0.295814 0.310588 0.133957
H54   H     H_    0.616318 0.613935 0.615711 0.071489
H55   H     H_    0.507950 0.799116 0.393985 0.078399
H56   H     H_    0.115110 0.723921 0.544910 0.072986
H57   H     H_    0.378951 0.473945 0.603073 0.078926
H58   H     H_    0.942626 0.869424 0.613319 0.131446
H59   H     H_    0.000282 0.884790 0.550864 0.066051
H60   H     H_    0.155721 0.870269 0.599459 0.117608
N1    N     N_R   0.942646 0.514505 0.203572 -0.421783
N2    N     N_R   0.246283 0.483273 0.796302 -0.421735
O1    O     O_2   0.918080 0.549800 0.616640 -0.458035
O2    O     O_2   0.255148 0.834817 0.457765 -0.485685
O3    O     O_3   0.140850 0.820380 0.366618 -0.601969
O4    O     O_3   0.150070 0.549720 0.556460 -0.495679
O5    O     O_3   0.546340 0.387390 0.478340 -0.486050
O6    O     O_2   0.398940 0.728800 0.517420 -0.465170
O7    O     O_3   0.588478 0.754125 0.599292 -0.645934
O8    O     O_2   0.415387 0.546168 0.321476 -0.497691
O9    O     O_3   0.466118 0.727766 0.325917 -0.595437
O10   O     O_2   0.013269 0.360698 0.204918 -0.597082
O11   O     O_2   0.315735 0.330160 0.805092 -0.620860
O12   O     O_3   0.608255 0.261396 0.403389 -0.639955
O13   O     O_2   0.873522 0.667654 0.194700 -0.620836
O14   O     O_2   0.176113 0.637167 0.795096 -0.597488
O15   O     O_3   0.658250 0.379560 0.591530 -0.481098
O16   O     O_2   0.775503 0.453649 0.678364 -0.496087
O17   O     O_3   0.084277 0.699633 0.618762 -0.625046
O18   O     O_3   0.722877 0.272054 0.674257 -0.597268
O19   O     O_2   0.790750 0.271170 0.482550 -0.470358
O20   O     O_3   0.062300 0.331660 0.568480 -0.492940
O21   O     O_2   0.940814 0.164750 0.541031 -0.487186
O22   O     O_3   0.051510 0.179324 0.632904 -0.602079
O23   O     O_2   0.271610 0.450170 0.383330 -0.460662
O24   O     O_3   0.039630 0.450200 0.443530 -0.497644
O25   O     O_3   0.531440 0.620360 0.408460 -0.475375
O26   O     O_3   0.105287 0.300307 0.381269 -0.623763
O27   O     O_3   0.643350 0.612530 0.521650 -0.474950
O28   O     O_3   0.127390 0.668260 0.431510 -0.491071
P1    P     P_3+3 0.090020 0.577590 0.608380 0.992179
P2    P     P_3+3 0.614340 0.285150 0.467650 0.972370
P3    P     P_3+3 0.082762 0.210112 0.572467 0.942242
P4    P     P_3+3 0.099670 0.422330 0.391610 0.991563
P5    P     P_3+3 0.109981 0.790689 0.427256 0.943040
P6    P     P_3+3 0.651162 0.381945 0.655793 0.947570
P7    P     P_3+3 0.583081 0.728698 0.535232 0.936177
P8    P     P_3+3 0.539212 0.618040 0.344205 0.945394

loop_
_geom_bond_atom_site_label_1
_geom_bond_atom_site_label_2
_ccdc_geom_bond_type
C53   C54   A    
C53   C60   A    
C40   H12   S    
Ba2   O25   S    
C12   O18   S    
C9    C36   A    
Ba1   O15   S    
C19   C24   A    
O17   P1    S    
C56   H19   S    
Ba2   P4    S    
C2    O13   D    
O7    P7    S    
C46   P2    S    
C24   C25   A    
Ba2   O4    S    
C62   O12   S    
C44   H47   S    
C23   H9    S    
C32   H39   S    
C45   H17   S    
C17   C19   A    
C22   C24   A    
Ba1   Ba2   S    
C35   C38   A    
C57   H46   S    
C36   C37   A    
C55   C57   A    
C55   P7    S    
C28   H51   S    
O25   P8    S    
O5    P2    S    
C52   H45   S    
O3    P5    S    
C58   P5    S    
C63   H5    S    
C32   C33   S    
C62   H3    S    
C22   C27   A    
C60   H49   S    
C52   H56   S    
C17   C35   A    
C41   H36   S    
C9    C13   A    
C25   C42   A    
C64   O9    S    
C27   N2    Am   
C6    C7    D    
O21   P3    D    
C65   H26   S    
C21   C22   A    
Ba1   O19   S    
C26   O14   D    
C62   H2    S    
C23   H54   S    
C7    H27   S    
O22   P3    S    
C43   H40   S    
C37   C43   A    
C4    O22   S    
C28   O26   S    
O4    P1    S    
O26   P4    S    
C57   C58   A    
Ba2   O24   S    
C45   O3    S    
C48   P3    S    
C66   N1    Am   
C15   C31   D    
C56   H18   S    
C14   H41   S    
C16   H15   S    
C64   H21   S    
C46   C51   A    
C4    C16   S    
C3    H33   S    
C11   H28   S    
C49   C50   A    
O18   P6    S    
Ba1   P1    S    
C17   C20   A    
C13   C39   A    
O27   P7    S    
C3    C5    S    
C18   C37   A    
C48   C49   A    
O16   P6    D    
C65   H22   S    
Ba2   O6    S    
C63   H6    S    
C39   H35   S    
C58   C59   A    
O9    P8    S    
C23   O7    S    
C41   C42   A    
C35   C36   A    
C52   O17   S    
C10   C66   A    
C52   C61   S    
C29   C30   S    
C34   H13   S    
Ba2   O28   S    
C4    H25   S    
C27   O11   D    
C1    H14   S    
C31   C32   D    
Ba1   O20   S    
C45   H16   S    
C10   C11   A    
O1    P1    D    
C1    H8    S    
C33   N2    S    
C1    C12   S    
O28   P5    S    
C46   C47   A    
C5    P8    S    
Ba2   O23   S    
C63   H53   S    
C53   C55   A    
C12   H1    S    
C29   C33   D    
C66   O10   D    
C16   H48   S    
Ba1   O4    S    
C11   C38   A    
C18   C41   A    
C50   C51   A    
C7    C8    S    
O20   P3    S    
C16   H50   S    
C5    C14   S    
C49   H43   S    
C20   H31   S    
C54   C59   A    
O24   P4    S    
Ba1   P2    S    
C61   H60   S    
O12   P2    S    
Ba1   O1    S    
C34   H11   S    
C56   H20   S    
C38   H32   S    
C9    C10   A    
C2    N1    Am   
O15   P6    S    
C42   H38   S    
Ba2   O5    S    
O23   P4    D    
O8    P8    D    
C62   C63   S    
C2    C13   A    
Ba1   O27   S    
C1    H4    S    
C8    N1    S    
C3    C8    D    
C50   C60   A    
C40   H34   S    
C45   C56   S    
C15   H57   S    
C28   H52   S    
Ba2   O27   S    
C30   P6    S    
C44   C51   A    
C65   H24   S    
C4    H37   S    
C64   C65   S    
C26   N2    Am   
C29   H29   S    
Ba1   O24   S    
O19   P2    D    
O2    P5    D    
C61   H58   S    
C23   C34   S    
C64   H55   S    
C31   P1    S    
C21   H30   S    
C18   C19   A    
C6    C14   D    
C47   C48   A    
O6    P7    D    
C44   C54   A    
C25   C26   A    
C6    P4    S    
C15   C30   S    
C39   C43   A    
C20   C21   A    
C28   C40   S    
C34   H10   S    
Ba1   O5    S    
C59   H44   S    
C61   H59   S    
C40   H23   S    
C12   H7    S    
C47   H42   S    
