data_mof_unit_59558.cif
_audit_creation_date              2012-12-10T17:27:05-0500
_audit_creation_method            fapswitch 2.2
_symmetry_space_group_name_H-M    P1
_symmetry_Int_Tables_number       1
_space_group_crystal_system       triclinic
_cell_length_a                    17.842799
_cell_length_b                    18.420973
_cell_length_c                    12.172001
_cell_angle_alpha                 90.000397
_cell_angle_beta                  84.173781
_cell_angle_gamma                 89.99975
_cell_volume                      3980.0479603

loop_
_atom_site_label
_atom_site_type_symbol
_atom_type_description
_atom_site_fract_x
_atom_site_fract_y
_atom_site_fract_z
_atom_type_partial_charge
C1    C     C_R   0.400095 0.100114 0.522560 0.916739
C2    C     C_R   0.535690 0.998273 0.018761 -0.035541
C3    C     C_R   0.964310 0.498274 0.981239 -0.035542
C4    C     C_R   0.035690 0.498272 0.018761 -0.035544
C5    C     C_R   0.590193 0.001516 0.827436 0.155100
C6    C     C_R   0.409807 0.001518 0.172564 0.155100
C7    C     C_R   0.090193 0.501513 0.827436 0.155106
C8    C     C_R   0.909807 0.501516 0.172564 0.155103
C9    C     C_R   0.598351 0.998929 0.940855 -0.264339
C10   C     C_R   0.401649 0.998932 0.059145 -0.264342
C11   C     C_R   0.098351 0.498926 0.940855 -0.264330
C12   C     C_R   0.600231 0.900148 0.477473 0.915256
C13   C     C_R   0.901648 0.498930 0.059145 -0.264333
C14   C     C_R   0.456610 0.998457 0.866556 0.508871
C15   C     C_R   0.543390 0.998454 0.133444 0.508866
C16   C     C_R   0.956610 0.498456 0.866556 0.508865
C17   C     C_R   0.043390 0.498453 0.133444 0.508869
C18   C     C_R   0.657427 0.154522 0.461779 -0.092625
C19   C     C_R   0.341342 0.846486 0.537453 -0.093307
C20   C     C_R   0.342573 0.154522 0.538222 -0.092617
C21   C     C_R   0.658658 0.846487 0.462547 -0.093296
C22   C     C_R   0.157422 0.654528 0.461776 -0.092672
C23   C     C_R   0.599904 0.100114 0.477441 0.916740
C24   C     C_R   0.841340 0.346490 0.537452 -0.093279
C25   C     C_R   0.842577 0.654527 0.538223 -0.092652
C26   C     C_R   0.158661 0.346490 0.462547 -0.093274
C27   C     C_R   0.225167 0.800984 0.630732 -0.321489
C28   C     C_R   0.773132 0.200502 0.367955 -0.314860
C29   C     C_R   0.774847 0.801000 0.369288 -0.321486
C30   C     C_R   0.226861 0.200495 0.632036 -0.314856
C31   C     C_R   0.725132 0.301027 0.630682 -0.321481
C32   C     C_R   0.273093 0.700548 0.367902 -0.314869
C33   C     C_R   0.274875 0.301034 0.369327 -0.321477
C34   C     C_R   0.399769 0.900148 0.522526 0.915245
C35   C     C_R   0.726892 0.700532 0.632077 -0.314868
C36   C     C_R   0.285959 0.848926 0.628317 0.442531
C37   C     C_R   0.713100 0.151700 0.371337 0.434896
C38   C     C_R   0.714052 0.848940 0.371699 0.442517
C39   C     C_R   0.286895 0.151695 0.628657 0.434885
C40   C     C_R   0.785928 0.348965 0.628274 0.442496
C41   C     C_R   0.213067 0.651739 0.371293 0.434947
C42   C     C_R   0.214078 0.348970 0.371733 0.442486
C43   C     C_R   0.786921 0.651726 0.628690 0.434926
C44   C     C_R   0.337589 0.796445 0.452466 -0.343722
C45   C     C_R   0.900096 0.600114 0.522560 0.916741
C46   C     C_R   0.659991 0.205844 0.545206 -0.339972
C47   C     C_R   0.662402 0.796436 0.547520 -0.343725
C48   C     C_R   0.340013 0.205847 0.454801 -0.339974
C49   C     C_R   0.837610 0.296423 0.452497 -0.343732
C50   C     C_R   0.160006 0.705826 0.545233 -0.339949
C51   C     C_R   0.162386 0.296418 0.547496 -0.343730
C52   C     C_R   0.840001 0.705834 0.454780 -0.339960
C53   C     C_R   0.277314 0.749694 0.454371 0.138246
C54   C     C_R   0.720413 0.252453 0.543585 0.142272
C55   C     C_R   0.722680 0.749687 0.545619 0.138249
C56   C     C_R   0.100231 0.400149 0.477474 0.915254
C57   C     C_R   0.279590 0.252456 0.456419 0.142272
C58   C     C_R   0.777330 0.249675 0.454394 0.138253
C59   C     C_R   0.220424 0.752440 0.543603 0.142268
C60   C     C_R   0.222667 0.249673 0.545602 0.138252
C61   C     C_R   0.779581 0.752445 0.456404 0.142272
C62   C     C_3   0.336882 0.005958 0.247694 -0.359504
C63   C     C_3   0.297513 0.079383 0.236211 -0.368919
C64   C     C_3   0.225934 0.085125 0.315895 -0.842929
C65   C     C_3   0.663118 0.005956 0.752306 -0.359501
C66   C     C_3   0.702488 0.079379 0.763794 -0.368928
C67   C     C_R   0.099904 0.600115 0.477440 0.916729
C68   C     C_3   0.774066 0.085121 0.684107 -0.842929
C69   C     C_3   0.836881 0.505951 0.247694 -0.359494
C70   C     C_3   0.797500 0.579368 0.236202 -0.368947
C71   C     C_3   0.725925 0.585108 0.315897 -0.842927
C72   C     C_3   0.163119 0.505945 0.752306 -0.359493
C73   C     C_3   0.202506 0.579358 0.763806 -0.368965
C74   C     C_3   0.274076 0.585098 0.684102 -0.842928
C75   C     C_R   0.899769 0.400149 0.522526 0.915256
C76   C     C_R   0.464310 0.998275 0.981239 -0.035541
H1    H     H_    0.615822 0.207832 0.613400 0.169079
H2    H     H_    0.317101 0.699072 0.299598 0.140302
H3    H     H_    0.318747 0.302329 0.300831 0.138481
H4    H     H_    0.682875 0.699047 0.700369 0.140306
H5    H     H_    0.181322 0.802249 0.699267 0.138473
H6    H     H_    0.817162 0.199001 0.299683 0.140309
H7    H     H_    0.818701 0.802274 0.300766 0.138477
H8    H     H_    0.182827 0.198990 0.700303 0.140310
H9    H     H_    0.654437 0.998394 0.967722 0.211119
H10   H     H_    0.345563 0.998401 0.032278 0.211119
H11   H     H_    0.154436 0.498388 0.967722 0.211117
H12   H     H_    0.381197 0.794969 0.383434 0.178183
H13   H     H_    0.845563 0.498396 0.032278 0.211118
H14   H     H_    0.184924 0.042714 0.296902 0.258016
H15   H     H_    0.239123 0.078437 0.402524 0.266332
H16   H     H_    0.199820 0.139301 0.307478 0.258285
H17   H     H_    0.336393 0.124110 0.253171 0.242136
H18   H     H_    0.281992 0.086440 0.150756 0.222154
H19   H     H_    0.298900 0.961531 0.225680 0.177580
H20   H     H_    0.344214 0.997595 0.334394 0.264995
H21   H     H_    0.815076 0.042708 0.703095 0.258017
H22   H     H_    0.760876 0.078435 0.597478 0.266334
H23   H     H_    0.384186 0.207840 0.386613 0.169075
H24   H     H_    0.800181 0.139296 0.692527 0.258285
H25   H     H_    0.663609 0.124107 0.746839 0.242131
H26   H     H_    0.718011 0.086433 0.849249 0.222154
H27   H     H_    0.701099 0.961527 0.774316 0.177584
H28   H     H_    0.655785 0.997595 0.665606 0.264997
H29   H     H_    0.684922 0.542685 0.296926 0.258019
H30   H     H_    0.739124 0.578436 0.402524 0.266337
H31   H     H_    0.699800 0.639277 0.307467 0.258284
H32   H     H_    0.836375 0.624103 0.253144 0.242120
H33   H     H_    0.781969 0.586414 0.150749 0.222153
H34   H     H_    0.618786 0.794952 0.616539 0.178176
H35   H     H_    0.798906 0.461516 0.225688 0.177587
H36   H     H_    0.844215 0.497597 0.334395 0.265002
H37   H     H_    0.315079 0.542672 0.703061 0.258021
H38   H     H_    0.260871 0.578432 0.597477 0.266340
H39   H     H_    0.300205 0.639266 0.692536 0.258282
H40   H     H_    0.163633 0.624098 0.746878 0.242110
H41   H     H_    0.218044 0.586395 0.849256 0.222153
H42   H     H_    0.201090 0.461506 0.774306 0.177590
H43   H     H_    0.155783 0.497597 0.665604 0.265007
H44   H     H_    0.611093 0.000114 0.246328 0.430882
H45   H     H_    0.115855 0.707794 0.613456 0.169105
H46   H     H_    0.388907 0.000116 0.753672 0.430881
H47   H     H_    0.111092 0.500111 0.246328 0.430882
H48   H     H_    0.888907 0.500114 0.753672 0.430883
H49   H     H_    0.753339 0.104932 0.234396 0.339459
H50   H     H_    0.246827 0.894421 0.766784 0.339842
H51   H     H_    0.246648 0.104918 0.765585 0.339462
H52   H     H_    0.753203 0.894456 0.233260 0.339844
H53   H     H_    0.253264 0.605023 0.234285 0.339452
H54   H     H_    0.746749 0.394517 0.766671 0.339847
H55   H     H_    0.746708 0.604990 0.765671 0.339455
H56   H     H_    0.881238 0.294925 0.383496 0.178158
H57   H     H_    0.253265 0.394532 0.233349 0.339850
H58   H     H_    0.884160 0.707810 0.386569 0.169095
H59   H     H_    0.118753 0.294917 0.616491 0.178154
H60   H     H_    0.681265 0.302318 0.699185 0.138480
N1    N     N_R   0.480750 0.000000 0.209750 -0.175911
N2    N     N_R   0.519250 1.000000 0.790250 -0.175911
N3    N     N_R   0.980750 0.500000 0.209750 -0.175912
N4    N     N_R   0.019250 0.500000 0.790250 -0.175914
O1    O     O_R   0.418020 0.076820 0.422210 -0.652629
O2    O     O_R   0.569630 0.923170 0.391410 -0.588188
O3    O     O_R   0.569630 0.076830 0.391410 -0.592921
O4    O     O_R   0.430370 0.923170 0.608590 -0.588178
O5    O     O_R   0.930370 0.576830 0.608590 -0.592896
O6    O     O_R   0.069630 0.423170 0.391410 -0.588219
O7    O     O_R   0.069630 0.576830 0.391410 -0.592888
O8    O     O_R   0.930370 0.423170 0.608590 -0.588214
O9    O     O_3   0.615029 0.997833 0.165658 -0.731575
O10   O     O_3   0.384971 0.997840 0.834342 -0.731572
O11   O     O_3   0.115029 0.497828 0.165658 -0.731574
O12   O     O_R   0.581980 0.923180 0.577790 -0.662948
O13   O     O_3   0.884971 0.497835 0.834341 -0.731576
O14   O     O_3   0.709572 0.099343 0.290842 -0.735303
O15   O     O_3   0.290491 0.900134 0.710194 -0.730777
O16   O     O_3   0.290419 0.099333 0.709145 -0.735312
O17   O     O_3   0.709530 0.900159 0.289838 -0.730783
O18   O     O_3   0.209519 0.599408 0.290763 -0.735276
O19   O     O_3   0.790435 0.400204 0.710111 -0.730807
O20   O     O_3   0.790462 0.599386 0.709207 -0.735279
O21   O     O_3   0.209574 0.400214 0.289901 -0.730815
O22   O     O_R   0.581980 0.076820 0.577790 -0.652631
O23   O     O_R   0.418020 0.923180 0.422210 -0.662952
O24   O     O_R   0.918020 0.576820 0.422210 -0.652633
O25   O     O_R   0.081980 0.423180 0.577790 -0.662942
O26   O     O_R   0.081980 0.576820 0.577790 -0.652634
O27   O     O_R   0.918020 0.423180 0.422210 -0.662943
O28   O     O_R   0.430370 0.076830 0.608590 -0.592927
Zn1   Zn    Zn3+2 0.491750 0.000000 0.375560 0.956722
Zn2   Zn    Zn3+2 0.508250 1.000000 0.624440 0.956724
Zn3   Zn    Zn3+2 0.991750 0.500000 0.375560 0.956725
Zn4   Zn    Zn3+2 0.008250 0.500000 0.624440 0.956725

loop_
_geom_bond_atom_site_label_1
_geom_bond_atom_site_label_2
_ccdc_geom_bond_type
C66   C68   S    
O26   Zn4   S    
C8    C13   A    
C71   H31   S    
N2    Zn2   S    
C52   H58   S    
C73   C74   S    
C66   H26   S    
C40   O19   S    
C64   H14   S    
C25   C43   A    
C53   C59   A    
C42   O21   S    
C48   C57   A    
C16   N4    A    
H49   O14   S    
C7    C11   A    
C63   H18   S    
C34   O4    A    
C8    C69   S    
C73   H40   S    
C8    N3    A    
C45   O5    A    
C50   C59   A    
H46   O10   S    
C45   O24   A    
C29   H7    S    
C62   H20   S    
C52   C61   A    
C7    N4    A    
C69   H36   S    
C22   C41   A    
C74   H38   S    
O4    Zn2   S    
C35   H4    S    
C31   H60   S    
C31   C40   A    
C12   O12   A    
C68   H21   S    
C9    H9    S    
C51   H59   S    
C44   C53   A    
C21   C38   A    
C14   N2    A    
C11   H11   S    
C30   C60   A    
C56   O25   A    
C32   C41   A    
N3    Zn3   S    
C70   C71   S    
C35   C43   A    
N1    Zn1   S    
C3    C13   A    
C22   C50   A    
C23   O22   A    
H50   O15   S    
O25   Zn4   S    
O28   Zn2   S    
O5    Zn4   S    
N4    Zn4   S    
C62   H19   S    
C56   O6    A    
C66   H25   S    
C23   O3    A    
C17   O11   S    
C50   H45   S    
C10   C76   A    
C18   C46   A    
H53   O18   S    
O7    Zn3   S    
H52   O17   S    
H47   O11   S    
C49   H56   S    
C29   C61   A    
C73   H41   S    
C35   C55   A    
C18   C23   S    
C5    N2    A    
O3    Zn1   S    
C5    C65   S    
C43   O20   S    
C7    C72   S    
C20   C39   A    
C33   H3    S    
C57   C60   A    
O27   Zn3   S    
C1    O28   A    
C74   H37   S    
C28   H6    S    
C12   C21   S    
C19   C34   S    
C49   C58   A    
C41   O18   S    
C26   C56   S    
H54   O19   S    
C14   C76   A    
C29   C38   A    
C68   H24   S    
C5    C9    A    
C62   C63   S    
C70   H33   S    
O12   Zn2   S    
O22   Zn2   S    
C27   H5    S    
C46   C54   A    
O1    Zn1   S    
H44   O9    S    
C17   N3    A    
O8    Zn4   S    
C4    C11   A    
C2    C15   A    
C20   C48   A    
O2    Zn1   S    
C4    C17   A    
C67   O26   A    
C34   O23   A    
C71   H29   S    
C67   O7    A    
C75   O8    A    
C64   H16   S    
C3    C4    A    
C25   C45   S    
C32   C53   A    
C15   O9    S    
C2    C76   A    
C19   C44   A    
C26   C42   A    
C47   C55   A    
C54   C58   A    
C24   C49   A    
C48   H23   S    
C33   C42   A    
C10   H10   S    
C1    C20   S    
C33   C57   A    
C13   H13   S    
C37   O14   S    
C18   C37   A    
C38   O17   S    
C72   C73   S    
C14   O10   S    
H57   O21   S    
H51   O16   S    
C6    C10   A    
C46   H1    S    
C75   O27   A    
C24   C75   S    
O6    Zn3   S    
C28   C58   A    
C27   C36   A    
C47   H34   S    
C63   H17   S    
C65   H28   S    
C39   O16   S    
C19   C36   A    
C6    C62   S    
C6    N1    A    
C25   C52   A    
C27   C59   A    
C26   C51   A    
C69   H35   S    
C28   C37   A    
C74   H39   S    
C55   C61   A    
C72   H43   S    
C24   C40   A    
C12   O2    A    
C30   C39   A    
C44   H12   S    
C31   C54   A    
C30   H8    S    
C69   C70   S    
O23   Zn1   S    
C68   H22   S    
C22   C67   S    
C1    O1    A    
C32   H2    S    
C63   C64   S    
C65   C66   S    
C71   H30   S    
C72   H42   S    
C16   O13   S    
C65   H27   S    
O24   Zn3   S    
C70   H32   S    
C51   C60   A    
C64   H15   S    
C21   C47   A    
H48   O13   S    
C2    C9    A    
H55   O20   S    
C3    C16   A    
C36   O15   S    
C15   N1    A    
