data_mof_unit_13930.cif
_audit_creation_date              2012-12-10T20:11:17-0500
_audit_creation_method            fapswitch 2.2
_symmetry_space_group_name_H-M    P1
_symmetry_Int_Tables_number       1
_space_group_crystal_system       triclinic
_cell_length_a                    15.882472
_cell_length_b                    15.881756
_cell_length_c                    51.673978
_cell_angle_alpha                 90.009911
_cell_angle_beta                  89.98524
_cell_angle_gamma                 89.963536
_cell_volume                      13034.3207785

loop_
_atom_site_label
_atom_site_type_symbol
_atom_type_description
_atom_site_fract_x
_atom_site_fract_y
_atom_site_fract_z
_atom_type_partial_charge
C1    C     C_R   0.066914 0.538928 0.636693 0.040836
C2    C     C_R   0.067143 0.461866 0.363337 0.041018
C3    C     C_R   0.461642 0.066728 0.636621 0.040806
C4    C     C_R   0.538193 0.066924 0.363377 0.039216
C5    C     C_R   0.933539 0.461469 0.636592 0.039054
C6    C     C_R   0.933092 0.538302 0.363393 0.039393
C7    C     C_R   0.538681 0.933014 0.636669 0.040624
C8    C     C_R   0.461510 0.933100 0.363353 0.039452
C9    C     C_R   0.567013 0.039164 0.136721 0.040482
C10   C     C_R   0.567361 0.963015 0.863409 0.040978
C11   C     C_R   0.963633 0.567318 0.136527 0.040317
C12   C     C_R   0.037360 0.566744 0.863474 0.036742
C13   C     C_R   0.433475 0.961950 0.136566 0.039234
C14   C     C_R   0.432610 0.038190 0.863353 0.039480
C15   C     C_R   0.038091 0.432171 0.136722 0.039915
C16   C     C_R   0.961341 0.432517 0.863239 0.039787
C17   C     C_R   0.502131 0.001612 0.986298 -0.094153
C18   C     C_R   0.502449 0.000924 0.013814 -0.092952
C19   C     C_R   0.000522 0.495973 0.986148 -0.079338
C20   C     C_R   0.001135 0.496943 0.013681 -0.093543
C21   C     C_R   0.002756 0.500685 0.486258 -0.093892
C22   C     C_R   0.002867 0.500005 0.513774 -0.093131
C23   C     C_R   0.499966 0.999510 0.486201 -0.082929
C24   C     C_R   0.500023 0.999427 0.513718 -0.104162
C25   C     C_R   0.511707 0.847666 0.986091 0.192576
C26   C     C_R   0.495200 0.155060 0.013943 0.188530
C27   C     C_R   0.153986 0.477810 0.986264 0.185190
C28   C     C_R   0.847500 0.510373 0.013940 0.191280
C29   C     C_R   0.493789 0.155868 0.986725 0.151776
C30   C     C_R   0.511135 0.846585 0.013319 0.150475
C31   C     C_R   0.846335 0.508983 0.986732 0.148939
C32   C     C_R   0.154550 0.481252 0.013396 0.186315
C33   C     C_R   0.007505 0.346512 0.486082 0.192284
C34   C     C_R   0.000709 0.654266 0.513910 0.189680
C35   C     C_R   0.654626 0.996074 0.486525 0.150076
C36   C     C_R   0.345988 0.003533 0.513837 0.191572
C37   C     C_R   0.999577 0.655149 0.486690 0.152141
C38   C     C_R   0.006680 0.345506 0.513308 0.150061
C39   C     C_R   0.345306 0.002664 0.486614 0.150602
C40   C     C_R   0.654048 0.995049 0.513748 0.191637
C41   C     C_R   0.067907 0.536139 0.609517 0.437052
C42   C     C_R   0.068079 0.464846 0.390509 0.437378
C43   C     C_R   0.464384 0.067317 0.609441 0.440398
C44   C     C_R   0.535401 0.067614 0.390559 0.438822
C45   C     C_R   0.933099 0.464117 0.609405 0.441919
C46   C     C_R   0.932614 0.535817 0.390579 0.442128
C47   C     C_R   0.535978 0.932172 0.609491 0.440712
C48   C     C_R   0.464199 0.932369 0.390533 0.438538
C49   C     C_R   0.567984 0.036573 0.109542 0.436233
C50   C     C_R   0.568152 0.966243 0.890581 0.437667
C51   C     C_R   0.966809 0.567777 0.109351 0.438580
C52   C     C_R   0.034569 0.566924 0.890663 0.439960
C53   C     C_R   0.433057 0.964827 0.109383 0.440653
C54   C     C_R   0.432016 0.035910 0.890539 0.442440
C55   C     C_R   0.035687 0.431221 0.109548 0.442301
C56   C     C_R   0.964177 0.431286 0.890408 0.435704
C57   C     C_R   0.000679 0.500040 0.595839 0.005370
C58   C     C_R   0.000486 0.500485 0.404177 0.003040
C59   C     C_R   0.500187 0.999677 0.595837 -0.004617
C60   C     C_R   0.499791 0.999969 0.404171 0.013156
C61   C     C_R   0.500691 0.000724 0.095856 0.008652
C62   C     C_R   0.500149 0.001331 0.904202 0.001491
C63   C     C_R   0.001414 0.499358 0.095802 0.000266
C64   C     C_R   0.999538 0.498737 0.904137 0.016553
C65   C     C_R   0.999909 0.499986 0.820301 0.863739
C66   C     C_R   0.000093 0.499976 0.179694 0.863222
C67   C     C_R   0.499984 0.000059 0.820307 0.863177
C68   C     C_R   0.500022 0.000070 0.179699 0.863584
C69   C     C_R   0.499983 0.000006 0.320303 0.863672
C70   C     C_R   0.500024 0.999987 0.679699 0.863416
C71   C     C_R   0.999994 0.499996 0.320303 0.863431
C72   C     C_R   0.000018 0.500030 0.679699 0.863599
C73   C     C_R   0.839716 0.660292 0.750001 0.854282
C74   C     C_R   0.160281 0.339712 0.249998 0.852673
C75   C     C_R   0.339700 0.839701 0.750000 0.854587
C76   C     C_R   0.660295 0.160296 0.250000 0.853001
C77   C     C_R   0.160292 0.339714 0.749999 0.854401
C78   C     C_R   0.839712 0.660283 0.250001 0.852792
C79   C     C_R   0.660294 0.160296 0.750000 0.854286
C80   C     C_R   0.339709 0.839708 0.250001 0.852814
C81   C     C_R   0.839701 0.339701 0.250000 0.854587
C82   C     C_R   0.160295 0.660296 0.750000 0.853034
C83   C     C_R   0.339716 0.160292 0.250001 0.854284
C84   C     C_R   0.660282 0.839712 0.749998 0.852799
C85   C     C_R   0.160294 0.660296 0.250000 0.854234
C86   C     C_R   0.839709 0.339708 0.750001 0.852779
C87   C     C_R   0.660292 0.839714 0.249999 0.854353
C88   C     C_R   0.339712 0.160283 0.750001 0.852764
C89   C     C_R   0.000124 0.500167 0.650768 -0.258218
C90   C     C_R   0.000037 0.500017 0.349237 -0.258974
C91   C     C_R   0.500128 0.999924 0.650770 -0.258548
C92   C     C_R   0.499896 0.000013 0.349237 -0.258657
C93   C     C_R   0.500142 0.000409 0.150770 -0.257865
C94   C     C_R   0.499958 0.000385 0.849248 -0.259457
C95   C     C_R   0.000601 0.499841 0.150757 -0.259781
C96   C     C_R   0.999496 0.499813 0.849229 -0.257861
C97   C     C_1   0.776612 0.276610 0.750001 -0.165200
C98   C     C_1   0.223396 0.723400 0.250000 -0.164209
C99   C     C_1   0.723380 0.776613 0.749998 -0.165151
C100  C     C_1   0.276612 0.223397 0.250001 -0.164108
C101  C     C_1   0.223389 0.723391 0.749999 -0.165207
C102  C     C_1   0.776601 0.276601 0.250000 -0.164207
C103  C     C_1   0.276613 0.223380 0.750001 -0.165228
C104  C     C_1   0.723397 0.776612 0.249999 -0.164165
C105  C     C_1   0.776614 0.723381 0.250002 -0.165225
C106  C     C_1   0.223396 0.276611 0.749999 -0.164181
C107  C     C_1   0.723390 0.223390 0.250000 -0.165274
C108  C     C_1   0.276600 0.776602 0.750000 -0.164125
C109  C     C_1   0.223379 0.276612 0.249998 -0.165243
C110  C     C_1   0.776613 0.723398 0.750001 -0.164022
C111  C     C_1   0.276612 0.776610 0.250001 -0.165234
C112  C     C_1   0.723396 0.223400 0.750000 -0.164120
C113  C     C_R   0.502613 0.076654 0.945123 0.567274
C114  C     C_R   0.509320 0.926063 0.054983 0.566303
C115  C     C_R   0.925472 0.505598 0.945075 0.568671
C116  C     C_R   0.076325 0.498891 0.054806 0.568406
C117  C     C_R   0.498604 0.926857 0.945163 0.580570
C118  C     C_R   0.493725 0.075189 0.054993 0.579226
C119  C     C_R   0.074545 0.488733 0.944851 0.563858
C120  C     C_R   0.926563 0.497772 0.054887 0.581224
C121  C     C_R   0.005142 0.575680 0.445076 0.566831
C122  C     C_R   0.007759 0.425080 0.554956 0.566226
C123  C     C_R   0.425099 0.005610 0.445066 0.567049
C124  C     C_R   0.574887 0.003513 0.554868 0.579485
C125  C     C_R   0.997435 0.426012 0.445119 0.580064
C126  C     C_R   0.995405 0.574487 0.554929 0.579698
C127  C     C_R   0.574656 0.993910 0.445015 0.566776
C128  C     C_R   0.425353 0.995352 0.554913 0.579472
C129  C     C_R   0.504514 0.924663 0.972457 -0.113822
C130  C     C_R   0.497553 0.077834 0.027653 -0.112888
C131  C     C_R   0.077336 0.487231 0.972273 -0.136124
C132  C     C_R   0.924359 0.502206 0.027558 -0.113708
C133  C     C_R   0.499285 0.079125 0.972569 -0.112122
C134  C     C_R   0.507550 0.923427 0.027521 -0.112013
C135  C     C_R   0.923059 0.503492 0.972504 -0.112510
C136  C     C_R   0.078431 0.492770 0.027421 -0.131828
C137  C     C_R   0.002949 0.423674 0.472423 -0.113640
C138  C     C_R   0.000077 0.577006 0.527605 -0.113451
C139  C     C_R   0.577466 0.996636 0.472429 -0.111932
C140  C     C_R   0.423010 0.999852 0.527551 -0.113053
C141  C     C_R   0.002304 0.578258 0.472527 -0.111895
C142  C     C_R   0.005632 0.422435 0.527495 -0.111829
C143  C     C_R   0.422408 0.002468 0.472476 -0.112399
C144  C     C_R   0.577096 0.998917 0.527506 -0.113078
N1    N     N_R   0.500304 0.001657 0.932198 -0.317976
N2    N     N_R   0.501185 0.000647 0.067887 -0.314353
N3    N     N_R   0.999888 0.497804 0.932108 -0.305222
N4    N     N_R   0.001451 0.498884 0.067806 -0.317505
N5    N     N_R   0.000870 0.500761 0.432165 -0.317157
N6    N     N_R   0.001160 0.499841 0.567858 -0.315976
N7    N     N_R   0.499851 0.999863 0.432162 -0.309210
N8    N     N_R   0.500145 0.999515 0.567859 -0.324024
O1    O     O_3   0.000000 0.500000 0.750000 -0.471827
O2    O     O_3   0.000000 0.500000 0.250000 -0.471755
O3    O     O_3   0.500000 0.000000 0.750000 -0.471798
O4    O     O_3   0.500000 0.000000 0.250000 -0.471815
O5    O     O_R   1.000000 0.430630 0.807650 -0.650505
O6    O     O_R   0.000000 0.569370 0.192350 -0.650479
O7    O     O_R   0.569370 0.000000 0.807650 -0.650452
O8    O     O_R   0.430630 0.000000 0.192350 -0.650402
O9    O     O_R   0.000000 0.569370 0.807650 -0.650548
O10   O     O_R   0.000000 0.430630 0.192350 -0.650334
O11   O     O_R   0.430630 0.000000 0.807650 -0.650390
O12   O     O_R   0.569370 0.000000 0.192350 -0.650564
O13   O     O_R   0.500000 0.930630 0.307650 -0.650470
O14   O     O_R   0.500000 0.069370 0.692350 -0.650442
O15   O     O_R   0.069370 0.500000 0.307650 -0.650477
O16   O     O_R   0.930630 0.500000 0.692350 -0.650381
O17   O     O_R   0.500000 0.069370 0.307650 -0.650525
O18   O     O_R   0.500000 0.930630 0.692350 -0.650467
O19   O     O_R   0.930630 0.500000 0.307650 -0.650448
O20   O     O_R   0.069370 0.500000 0.692350 -0.650569
O21   O     O_R   0.902350 0.666510 0.764820 -0.639523
O22   O     O_R   0.097650 0.333490 0.235180 -0.639405
O23   O     O_R   0.333490 0.902350 0.764820 -0.639435
O24   O     O_R   0.666510 0.097650 0.235180 -0.639378
O25   O     O_R   0.097650 0.333490 0.764820 -0.639469
O26   O     O_R   0.902350 0.666510 0.235180 -0.639270
O27   O     O_R   0.666510 0.097650 0.764820 -0.639487
O28   O     O_R   0.333490 0.902350 0.235180 -0.639268
O29   O     O_R   0.902350 0.333490 0.235180 -0.639433
O30   O     O_R   0.097650 0.666510 0.764820 -0.639244
O31   O     O_R   0.333490 0.097650 0.235180 -0.639383
O32   O     O_R   0.666510 0.902350 0.764820 -0.639273
O33   O     O_R   0.097650 0.666510 0.235180 -0.639503
O34   O     O_R   0.902350 0.333490 0.764820 -0.639382
O35   O     O_R   0.666510 0.902350 0.235180 -0.639442
O36   O     O_R   0.333490 0.097650 0.764820 -0.639366
O37   O     O_R   0.402350 0.166510 0.264820 -0.639458
O38   O     O_R   0.597650 0.833490 0.735180 -0.639366
O39   O     O_R   0.833490 0.402350 0.264820 -0.639362
O40   O     O_R   0.166510 0.597650 0.735180 -0.639351
O41   O     O_R   0.597650 0.833490 0.264820 -0.639409
O42   O     O_R   0.402350 0.166510 0.735180 -0.639288
O43   O     O_R   0.166510 0.597650 0.264820 -0.639390
O44   O     O_R   0.833490 0.402350 0.735180 -0.639247
O45   O     O_R   0.402350 0.833490 0.735180 -0.639327
O46   O     O_R   0.597650 0.166510 0.264820 -0.639280
O47   O     O_R   0.833490 0.597650 0.735180 -0.639304
O48   O     O_R   0.166510 0.402350 0.264820 -0.639278
O49   O     O_R   0.597650 0.166510 0.735180 -0.639330
O50   O     O_R   0.402350 0.833490 0.264820 -0.639311
O51   O     O_R   0.166510 0.402350 0.735180 -0.639385
O52   O     O_R   0.833490 0.597650 0.264820 -0.639314
O53   O     O_2   0.509225 0.148011 0.931193 -0.567936
O54   O     O_2   0.519772 0.855325 0.068992 -0.573766
O55   O     O_2   0.854672 0.516553 0.931132 -0.575724
O56   O     O_2   0.147969 0.505707 0.068587 -0.568458
O57   O     O_2   0.489683 0.855011 0.931498 -0.524930
O58   O     O_2   0.481138 0.146187 0.068807 -0.530687
O59   O     O_2   0.145436 0.481770 0.930695 -0.574159
O60   O     O_2   0.854647 0.490817 0.068625 -0.524017
O61   O     O_2   0.013117 0.646828 0.431112 -0.569509
O62   O     O_2   0.017167 0.354170 0.568952 -0.570997
O63   O     O_2   0.354183 0.015369 0.431094 -0.572676
O64   O     O_2   0.646538 0.013338 0.568554 -0.524170
O65   O     O_2   0.987160 0.354406 0.431426 -0.526400
O66   O     O_2   0.983658 0.645758 0.568682 -0.527714
O67   O     O_2   0.645511 0.984377 0.430987 -0.572511
O68   O     O_2   0.353783 0.985490 0.568648 -0.524897
Zn1   Zn    Zn3+2 0.900880 0.500000 0.727850 0.959888
Zn2   Zn    Zn3+2 0.099120 0.500000 0.272150 0.959557
Zn3   Zn    Zn3+2 0.500000 0.900880 0.727850 0.959882
Zn4   Zn    Zn3+2 0.500000 0.099120 0.272150 0.959674
Zn5   Zn    Zn3+2 0.099120 0.500000 0.727850 0.959802
Zn6   Zn    Zn3+2 0.900880 0.500000 0.272150 0.959806
Zn7   Zn    Zn3+2 0.500000 0.099120 0.727850 0.959811
Zn8   Zn    Zn3+2 0.500000 0.900880 0.272150 0.959650
Zn9   Zn    Zn3+2 0.400880 0.000000 0.227850 0.959797
Zn10  Zn    Zn3+2 0.599120 0.000000 0.772150 0.959524
Zn11  Zn    Zn3+2 0.000000 0.400880 0.227850 0.959543
Zn12  Zn    Zn3+2 1.000000 0.599120 0.772150 0.959659
Zn13  Zn    Zn3+2 0.599120 0.000000 0.227850 0.959650
Zn14  Zn    Zn3+2 0.400880 0.000000 0.772150 0.959609
Zn15  Zn    Zn3+2 0.000000 0.599120 0.227850 0.959522
Zn16  Zn    Zn3+2 1.000000 0.400880 0.772150 0.959442
N9    N     N_2   0.524141 0.770522 0.972426 -0.243370
H1    H     H_    0.491052 0.719739 0.979531 0.240258
C145  C     C_3   0.611526 0.750783 0.967302 -0.690507
H2    H     H_    0.615462 0.692667 0.955414 0.238588
H3    H     H_    0.645869 0.740217 0.985750 0.204076
H4    H     H_    0.641994 0.802849 0.956420 0.254823
N10   N     N_2   0.497487 0.233316 0.027497 -0.248028
H5    H     H_    0.456584 0.278551 0.020656 0.239068
C146  C     C_3   0.581503 0.265657 0.031765 -0.677589
H6    H     H_    0.578072 0.323216 0.043918 0.240287
H7    H     H_    0.611651 0.282012 0.013016 0.204271
H8    H     H_    0.620751 0.218275 0.042027 0.255710
N11   N     N_2   0.232474 0.461473 0.973812 -0.282319
H9    H     H_    0.233579 0.414277 0.960138 0.258274
C147  C     C_3   0.283745 0.534719 0.968433 -0.666036
H10   H     H_    0.251465 0.577117 0.954523 0.268351
H11   H     H_    0.344795 0.514468 0.960004 0.226328
H12   H     H_    0.296752 0.569977 0.986563 0.219949
N12   N     N_2   0.770645 0.524701 0.027586 -0.243453
H13   H     H_    0.719304 0.492093 0.020653 0.240100
C148  C     C_3   0.752343 0.612620 0.032342 -0.689498
H14   H     H_    0.694363 0.618029 0.044239 0.238508
H15   H     H_    0.742240 0.646301 0.013755 0.203830
H16   H     H_    0.804950 0.642725 0.043068 0.254412
N13   N     N_2   0.486657 0.235766 0.974361 -0.302596
H17   H     H_    0.534538 0.252572 0.961953 0.270736
C149  C     C_3   0.402326 0.259756 0.966676 -0.714936
H18   H     H_    0.378099 0.216914 0.951423 0.278243
H19   H     H_    0.402964 0.325101 0.959047 0.238013
H20   H     H_    0.359150 0.257605 0.983583 0.214088
N14   N     N_2   0.515819 0.766455 0.025646 -0.304159
H21   H     H_    0.564995 0.757234 0.038328 0.267758
C150  C     C_3   0.435798 0.729791 0.032932 -0.710528
H22   H     H_    0.404118 0.768616 0.047918 0.281327
H23   H     H_    0.446204 0.665514 0.040747 0.235024
H24   H     H_    0.393821 0.724916 0.015807 0.211829
N15   N     N_2   0.766223 0.514927 0.974444 -0.303049
H25   H     H_    0.757655 0.564148 0.961733 0.267470
C151  C     C_3   0.727941 0.435477 0.967354 -0.711499
H26   H     H_    0.765954 0.402779 0.952379 0.280661
H27   H     H_    0.663768 0.446952 0.959603 0.234701
H28   H     H_    0.722502 0.393925 0.984564 0.210799
N16   N     N_2   0.233538 0.468323 0.025885 -0.279917
H29   H     H_    0.254706 0.515631 0.037856 0.265591
C152  C     C_3   0.250486 0.382933 0.034146 -0.681022
H30   H     H_    0.315703 0.378715 0.041766 0.233964
H31   H     H_    0.244704 0.338970 0.017511 0.216320
H32   H     H_    0.205880 0.363651 0.049592 0.268805
N17   N     N_2   0.017281 0.268938 0.472452 -0.244310
H33   H     H_    0.982123 0.219479 0.479506 0.239135
C153  C     C_3   0.103976 0.245905 0.467514 -0.689656
H34   H     H_    0.105966 0.187833 0.455562 0.238420
H35   H     H_    0.137407 0.233780 0.486032 0.203932
H36   H     H_    0.136730 0.296902 0.456774 0.255163
N18   N     N_2   0.006190 0.732326 0.527489 -0.246751
H37   H     H_    0.967591 0.779416 0.520570 0.238484
C154  C     C_3   0.091478 0.760770 0.531995 -0.679749
H38   H     H_    0.090344 0.818513 0.544105 0.241251
H39   H     H_    0.122935 0.775578 0.513327 0.203443
H40   H     H_    0.128160 0.711698 0.542401 0.255178
N19   N     N_2   0.734724 0.995639 0.474088 -0.305440
H41   H     H_    0.746754 0.946620 0.461565 0.269145
C155  C     C_3   0.766704 0.077421 0.466580 -0.707433
H42   H     H_    0.726017 0.106409 0.451554 0.281776
H43   H     H_    0.831410 0.070494 0.458729 0.236005
H44   H     H_    0.769322 0.120022 0.483615 0.210679
N20   N     N_2   0.268162 0.012219 0.527395 -0.244861
H45   H     H_    0.219456 0.975962 0.520369 0.239252
C156  C     C_3   0.243465 0.098602 0.532093 -0.687799
H46   H     H_    0.185400 0.099817 0.544058 0.239034
H47   H     H_    0.230634 0.131243 0.513487 0.204088
H48   H     H_    0.293847 0.132667 0.542722 0.254845
N21   N     N_2   0.995880 0.735277 0.474331 -0.302992
H49   H     H_    0.044284 0.749880 0.461849 0.270158
C157  C     C_3   0.912591 0.762957 0.466745 -0.718379
H50   H     H_    0.886233 0.721166 0.451552 0.281041
H51   H     H_    0.916032 0.828165 0.459082 0.235907
H52   H     H_    0.869595 0.762771 0.483706 0.210880
N22   N     N_2   0.007975 0.265276 0.525649 -0.305381
H53   H     H_    0.056872 0.253864 0.538263 0.268822
C158  C     C_3   0.926493 0.232201 0.533026 -0.706449
H54   H     H_    0.896791 0.272373 0.548060 0.281667
H55   H     H_    0.934116 0.167505 0.540816 0.236531
H56   H     H_    0.884148 0.229227 0.515942 0.210340
N23   N     N_2   0.265159 0.002731 0.474219 -0.302838
H57   H     H_    0.252735 0.051843 0.461774 0.269050
C159  C     C_3   0.233702 0.920832 0.466618 -0.714980
H58   H     H_    0.274441 0.892385 0.451498 0.281018
H59   H     H_    0.168860 0.927392 0.458855 0.235619
H60   H     H_    0.231593 0.877954 0.483589 0.210613
N24   N     N_2   0.731887 0.985967 0.527261 -0.246107
H61   H     H_    0.780677 0.022168 0.520260 0.238310
C160  C     C_3   0.756364 0.899461 0.531840 -0.681913
H62   H     H_    0.814326 0.897961 0.543839 0.241587
H63   H     H_    0.705830 0.865352 0.542392 0.254777
H64   H     H_    0.769312 0.867057 0.513191 0.203167
O69   O     O_3   0.133184 0.573700 0.596082 -0.597008
C161  C     C_3   0.196145 0.512737 0.591423 0.081401
H65   H     H_    0.169479 0.455270 0.582112 0.147474
H66   H     H_    0.227192 0.494706 0.609942 0.147221
C162  C     C_3   0.262092 0.550048 0.573215 -0.313113
H67   H     H_    0.231340 0.568618 0.554745 0.220343
H68   H     H_    0.289946 0.607251 0.582176 0.233843
C163  C     C_3   0.332101 0.486874 0.567461 -0.989155
H69   H     H_    0.365578 0.469524 0.585566 0.273437
H70   H     H_    0.378080 0.515294 0.553847 0.273062
H71   H     H_    0.305718 0.429169 0.558418 0.268589
O70   O     O_3   0.133667 0.427788 0.403945 -0.597003
C164  C     C_3   0.196019 0.489244 0.408643 0.081628
H72   H     H_    0.168835 0.546151 0.418160 0.146667
H73   H     H_    0.226529 0.508108 0.390115 0.146990
C165  C     C_3   0.262711 0.452063 0.426625 -0.315198
H74   H     H_    0.232604 0.433144 0.445161 0.218798
H75   H     H_    0.290669 0.395099 0.417526 0.233498
C166  C     C_3   0.332489 0.515498 0.432253 -0.987210
H76   H     H_    0.365341 0.533230 0.414073 0.273214
H77   H     H_    0.379032 0.487120 0.445698 0.272826
H78   H     H_    0.306009 0.572955 0.441440 0.268641
O71   O     O_3   0.427002 0.132605 0.595950 -0.596789
C167  C     C_3   0.488215 0.195115 0.591148 0.082345
H79   H     H_    0.544921 0.168052 0.581488 0.148155
H80   H     H_    0.507482 0.225577 0.609644 0.146720
C168  C     C_3   0.450503 0.261859 0.573287 -0.314701
H81   H     H_    0.431086 0.231814 0.554790 0.219404
H82   H     H_    0.393780 0.289758 0.582544 0.233254
C169  C     C_3   0.513749 0.331701 0.567521 -0.986240
H83   H     H_    0.531921 0.364516 0.585666 0.272971
H84   H     H_    0.485014 0.378265 0.554155 0.272596
H85   H     H_    0.570994 0.305286 0.558192 0.270137
O72   O     O_3   0.572648 0.132939 0.404051 -0.597735
C170  C     C_3   0.511389 0.195567 0.408757 0.081052
H86   H     H_    0.454605 0.168652 0.418387 0.147920
H87   H     H_    0.492270 0.225902 0.390226 0.146605
C171  C     C_3   0.548945 0.262419 0.426600 -0.311564
H88   H     H_    0.568508 0.232451 0.445096 0.223844
H89   H     H_    0.605567 0.290373 0.417323 0.233305
C172  C     C_3   0.485515 0.332185 0.432365 -0.989827
H90   H     H_    0.467183 0.364884 0.414216 0.273342
H91   H     H_    0.514166 0.378860 0.445706 0.273318
H92   H     H_    0.428382 0.305721 0.441724 0.268633
O73   O     O_3   0.868050 0.426572 0.595870 -0.597477
C173  C     C_3   0.805192 0.487568 0.591144 0.081579
H93   H     H_    0.831929 0.544444 0.581521 0.149696
H94   H     H_    0.774689 0.506601 0.609664 0.146572
C174  C     C_3   0.738568 0.449734 0.573281 -0.311561
H95   H     H_    0.768704 0.430202 0.554801 0.224224
H96   H     H_    0.710732 0.393057 0.582557 0.233192
C175  C     C_3   0.668649 0.512941 0.567474 -0.988248
H97   H     H_    0.635747 0.531189 0.585603 0.273133
H98   H     H_    0.622178 0.484134 0.554101 0.273020
H99   H     H_    0.695002 0.570153 0.558134 0.270142
O74   O     O_3   0.867241 0.573097 0.404069 -0.597609
C176  C     C_3   0.805061 0.511667 0.409002 0.081841
H100  H     H_    0.832420 0.455394 0.418809 0.148679
H101  H     H_    0.774777 0.491709 0.390548 0.146385
C177  C     C_3   0.738038 0.549512 0.426750 -0.313884
H102  H     H_    0.767924 0.569767 0.445186 0.223152
H103  H     H_    0.709782 0.605738 0.417321 0.232626
C178  C     C_3   0.668609 0.485987 0.432699 -0.986617
H104  H     H_    0.635927 0.467054 0.414608 0.272935
H105  H     H_    0.621853 0.514827 0.445990 0.272722
H106  H     H_    0.695384 0.429198 0.442182 0.270180
O75   O     O_3   0.573343 0.866742 0.596047 -0.595937
C179  C     C_3   0.512112 0.804207 0.591299 0.081960
H107  H     H_    0.455326 0.831217 0.581681 0.148180
H108  H     H_    0.492981 0.773791 0.609815 0.146755
C180  C     C_3   0.549722 0.737433 0.573415 -0.313198
H109  H     H_    0.569030 0.767448 0.554904 0.219581
H110  H     H_    0.606499 0.709552 0.582634 0.233987
C181  C     C_3   0.486444 0.667583 0.567696 -0.986913
H111  H     H_    0.468345 0.634820 0.585856 0.273132
H112  H     H_    0.515119 0.620979 0.554321 0.272817
H113  H     H_    0.429166 0.693981 0.558394 0.269865
O76   O     O_3   0.426934 0.867008 0.404002 -0.598300
C182  C     C_3   0.488204 0.804409 0.408714 0.081209
H114  H     H_    0.545246 0.831408 0.418173 0.147836
H115  H     H_    0.506888 0.773649 0.390202 0.146849
C183  C     C_3   0.450907 0.738029 0.426771 -0.313501
H116  H     H_    0.431688 0.768470 0.445234 0.223491
H117  H     H_    0.394106 0.709898 0.417657 0.232685
C184  C     C_3   0.514393 0.668369 0.432578 -0.988859
H118  H     H_    0.532331 0.635157 0.414473 0.273328
H119  H     H_    0.485976 0.622092 0.446095 0.273027
H120  H     H_    0.571736 0.695034 0.441754 0.268789
O77   O     O_3   0.633386 0.073881 0.096099 -0.598172
C185  C     C_3   0.696373 0.012797 0.091601 0.080979
H121  H     H_    0.669677 0.954737 0.082649 0.148731
H122  H     H_    0.727885 0.995859 0.110141 0.147793
C186  C     C_3   0.761796 0.049223 0.073051 -0.313046
H123  H     H_    0.730532 0.066815 0.054571 0.221382
H124  H     H_    0.789812 0.106905 0.081664 0.233604
C187  C     C_3   0.831716 0.985811 0.067427 -0.989519
H125  H     H_    0.865754 0.969502 0.085526 0.273120
H126  H     H_    0.877249 0.013522 0.053537 0.272750
H127  H     H_    0.805148 0.927581 0.058761 0.268518
O78   O     O_3   0.633985 0.929797 0.904060 -0.596647
C188  C     C_3   0.695824 0.991763 0.908749 0.081626
H128  H     H_    0.668217 0.048253 0.918385 0.145880
H129  H     H_    0.725889 0.011181 0.890205 0.147035
C189  C     C_3   0.763115 0.954913 0.926583 -0.315836
H130  H     H_    0.733570 0.936013 0.945203 0.217749
H131  H     H_    0.791017 0.897992 0.917444 0.234017
C190  C     C_3   0.832834 0.018581 0.932007 -0.985474
H132  H     H_    0.865172 0.036287 0.913738 0.273181
H133  H     H_    0.879799 0.990409 0.945354 0.272478
H134  H     H_    0.806408 0.076008 0.941226 0.268425
O79   O     O_3   0.930702 0.633688 0.095817 -0.595779
C191  C     C_3   0.992998 0.695147 0.091078 0.082577
H135  H     H_    0.048390 0.667375 0.080904 0.146298
H136  H     H_    0.014128 0.723923 0.109641 0.145888
C192  C     C_3   0.955662 0.763958 0.073892 -0.314516
H137  H     H_    0.935215 0.735836 0.055221 0.217672
H138  H     H_    0.899657 0.791838 0.083559 0.234035
C193  C     C_3   0.019651 0.833404 0.068489 -0.985978
H139  H     H_    0.038996 0.864290 0.086837 0.272878
H140  H     H_    0.991020 0.881578 0.055649 0.272658
H141  H     H_    0.076127 0.807050 0.058713 0.268856
O80   O     O_3   0.071145 0.632304 0.904301 -0.594733
C194  C     C_3   0.009604 0.694918 0.908684 0.082291
H142  H     H_    0.952759 0.668077 0.918295 0.148635
H143  H     H_    0.990702 0.724604 0.890032 0.145722
C195  C     C_3   0.046557 0.762535 0.926374 -0.307568
H144  H     H_    0.065786 0.733317 0.945013 0.225722
H145  H     H_    0.103297 0.790318 0.917117 0.233419
C196  C     C_3   0.982800 0.832322 0.931765 -0.992752
H146  H     H_    0.964762 0.864295 0.913467 0.273421
H147  H     H_    0.011037 0.879576 0.944997 0.273440
H148  H     H_    0.925548 0.806037 0.941104 0.268460
O81   O     O_3   0.367945 0.927632 0.095789 -0.598831
C197  C     C_3   0.305065 0.988763 0.091241 0.080832
H149  H     H_    0.331885 0.046514 0.082143 0.150859
H150  H     H_    0.273739 0.006221 0.109775 0.147344
C198  C     C_3   0.239378 0.952082 0.072837 -0.312526
H151  H     H_    0.270402 0.934045 0.054353 0.224571
H152  H     H_    0.211359 0.894636 0.081594 0.232706
C199  C     C_3   0.169514 0.015500 0.067182 -0.987433
H153  H     H_    0.135697 0.032224 0.085291 0.273089
H154  H     H_    0.123787 0.987591 0.053394 0.272436
H155  H     H_    0.196094 0.073505 0.058380 0.269763
O82   O     O_3   0.366214 0.072703 0.903957 -0.597280
C200  C     C_3   0.304701 0.010701 0.908993 0.082123
H156  H     H_    0.332663 0.954832 0.918859 0.148082
H157  H     H_    0.274552 0.990209 0.890574 0.146434
C201  C     C_3   0.237392 0.048113 0.926725 -0.315448
H158  H     H_    0.267125 0.068712 0.945148 0.222222
H159  H     H_    0.208701 0.104063 0.917265 0.232565
C202  C     C_3   0.168463 0.984086 0.932709 -0.985101
H160  H     H_    0.135856 0.964888 0.914631 0.272820
H161  H     H_    0.121545 0.012601 0.946012 0.272193
H162  H     H_    0.195691 0.927513 0.942192 0.270255
O83   O     O_3   0.072232 0.365092 0.096215 -0.597312
C203  C     C_3   0.010049 0.303718 0.091244 0.081168
H163  H     H_    0.954221 0.331740 0.081373 0.146748
H164  H     H_    0.989550 0.273776 0.109695 0.147041
C204  C     C_3   0.047264 0.236186 0.073551 -0.316306
H165  H     H_    0.067475 0.265660 0.055048 0.220391
H166  H     H_    0.103423 0.207723 0.082957 0.233845
C205  C     C_3   0.983278 0.167061 0.067766 -0.984538
H167  H     H_    0.964252 0.134839 0.085927 0.273038
H168  H     H_    0.011760 0.119867 0.054547 0.272313
H169  H     H_    0.926617 0.194032 0.058266 0.269528
O84   O     O_3   0.927308 0.365566 0.903811 -0.598326
C206  C     C_3   0.988696 0.302802 0.908178 0.080554
H170  H     H_    0.046718 0.329648 0.917105 0.145529
H171  H     H_    0.005606 0.271547 0.889588 0.147600
C207  C     C_3   0.952657 0.237058 0.926685 -0.312096
H172  H     H_    0.935014 0.268081 0.945205 0.224150
H173  H     H_    0.895063 0.208877 0.918074 0.232782
C208  C     C_3   0.016378 0.167372 0.932208 -0.990687
H174  H     H_    0.032806 0.133603 0.914065 0.273645
H175  H     H_    0.988886 0.121566 0.946052 0.273045
H176  H     H_    0.074487 0.194120 0.940892 0.267670
N25   N     N_2   0.133928 0.582447 0.649150 -0.271384
H177  H     H_    0.169522 0.547480 0.661865 0.249579
C209  C     C_3   0.114031 0.666778 0.657745 -0.673442
H178  H     H_    0.066445 0.665151 0.673485 0.208919
H179  H     H_    0.089531 0.704777 0.641331 0.258174
H180  H     H_    0.171932 0.697522 0.665186 0.222799
N26   N     N_2   0.134574 0.418777 0.350912 -0.270993
H181  H     H_    0.169937 0.453928 0.338190 0.249600
C210  C     C_3   0.115474 0.334224 0.342377 -0.674368
H182  H     H_    0.067894 0.335348 0.326639 0.209329
H183  H     H_    0.091307 0.296154 0.358819 0.257618
H184  H     H_    0.173670 0.303890 0.334956 0.222644
N27   N     N_2   0.418444 0.134165 0.649006 -0.271554
H185  H     H_    0.453518 0.169571 0.661736 0.249672
C211  C     C_3   0.333920 0.114956 0.657543 -0.674090
H186  H     H_    0.335116 0.067430 0.673299 0.209286
H187  H     H_    0.295904 0.090666 0.641108 0.258106
H188  H     H_    0.303484 0.173129 0.664942 0.222717
N28   N     N_2   0.581278 0.134349 0.350985 -0.271245
H189  H     H_    0.546150 0.169717 0.338252 0.249743
C212  C     C_3   0.665847 0.115167 0.342460 -0.674882
H190  H     H_    0.664758 0.067597 0.326711 0.209392
H191  H     H_    0.703892 0.090945 0.358902 0.257275
H192  H     H_    0.696182 0.173338 0.335055 0.222836
N29   N     N_2   0.866222 0.418125 0.648955 -0.271770
H193  H     H_    0.830735 0.453109 0.661704 0.249823
C213  C     C_3   0.885708 0.333629 0.657473 -0.674778
H194  H     H_    0.933208 0.334913 0.673234 0.209305
H195  H     H_    0.910146 0.295680 0.641032 0.257716
H196  H     H_    0.827632 0.303060 0.664860 0.222940
N30   N     N_2   0.865395 0.581050 0.351011 -0.271282
H197  H     H_    0.830178 0.545717 0.338300 0.249840
C214  C     C_3   0.884093 0.665663 0.342455 -0.675599
H198  H     H_    0.931644 0.664698 0.326699 0.209663
H199  H     H_    0.908129 0.703892 0.358881 0.257067
H200  H     H_    0.825746 0.695714 0.335051 0.222772
N31   N     N_2   0.581893 0.865703 0.649100 -0.271407
H201  H     H_    0.546775 0.830271 0.661813 0.249663
C215  C     C_3   0.666325 0.885071 0.657678 -0.673044
H202  H     H_    0.664945 0.932649 0.673423 0.208941
H203  H     H_    0.704424 0.909360 0.641258 0.258255
H204  H     H_    0.696794 0.826970 0.665106 0.222845
N32   N     N_2   0.418459 0.865699 0.350936 -0.271209
H205  H     H_    0.453647 0.830291 0.338220 0.249748
C216  C     C_3   0.333955 0.884925 0.342375 -0.675912
H206  H     H_    0.335169 0.932485 0.326629 0.209639
H207  H     H_    0.295823 0.909180 0.358803 0.256872
H208  H     H_    0.303633 0.826767 0.334955 0.222751
N33   N     N_2   0.634112 0.082467 0.149205 -0.271626
H209  H     H_    0.669655 0.047342 0.161893 0.249560
C217  C     C_3   0.614378 0.166775 0.157858 -0.674256
H210  H     H_    0.566786 0.165128 0.173596 0.209176
H211  H     H_    0.589954 0.204940 0.141469 0.257721
H212  H     H_    0.672337 0.197353 0.165321 0.222777
N34   N     N_2   0.635258 0.920453 0.851054 -0.270981
H213  H     H_    0.670332 0.955795 0.838305 0.249546
C218  C     C_3   0.617058 0.835587 0.842627 -0.673609
H214  H     H_    0.569472 0.835993 0.826887 0.209584
H215  H     H_    0.593287 0.797490 0.859118 0.257668
H216  H     H_    0.675573 0.805767 0.835247 0.222508
N35   N     N_2   0.921532 0.635625 0.148818 -0.271072
H217  H     H_    0.957053 0.670473 0.161576 0.249547
C219  C     C_3   0.836461 0.618143 0.157192 -0.672414
H218  H     H_    0.836364 0.570594 0.172945 0.209709
H219  H     H_    0.798294 0.594639 0.140683 0.257976
H220  H     H_    0.807067 0.676923 0.164536 0.222457
N36   N     N_2   0.080023 0.634633 0.851185 -0.272075
H221  H     H_    0.044763 0.669770 0.838426 0.249707
C220  C     C_3   0.164854 0.616216 0.842747 -0.674473
H222  H     H_    0.164354 0.568719 0.826975 0.209714
H223  H     H_    0.202904 0.592229 0.859221 0.257455
H224  H     H_    0.194783 0.674682 0.835406 0.222751
N37   N     N_2   0.366081 0.918621 0.148894 -0.272020
H225  H     H_    0.330647 0.953563 0.161667 0.249792
C221  C     C_3   0.385421 0.834024 0.157349 -0.676615
H226  H     H_    0.432919 0.835102 0.173112 0.209815
H227  H     H_    0.409801 0.796167 0.140879 0.257174
H228  H     H_    0.327292 0.803494 0.164710 0.222783
N38   N     N_2   0.364558 0.080214 0.850921 -0.270980
H229  H     H_    0.329589 0.044439 0.838261 0.249826
C222  C     C_3   0.382482 0.164921 0.842295 -0.674867
H230  H     H_    0.430088 0.164266 0.826554 0.209874
H231  H     H_    0.406108 0.203523 0.858695 0.256706
H232  H     H_    0.323876 0.194354 0.834850 0.222664
N39   N     N_2   0.079923 0.364104 0.149212 -0.270661
H233  H     H_    0.044004 0.329159 0.161841 0.249745
C223  C     C_3   0.164622 0.381877 0.157869 -0.672648
H234  H     H_    0.164001 0.429544 0.173592 0.209533
H235  H     H_    0.203353 0.405360 0.141478 0.256878
H236  H     H_    0.193889 0.323232 0.165350 0.222764
N40   N     N_2   0.918381 0.365232 0.850732 -0.271249
H237  H     H_    0.953693 0.329804 0.838053 0.249614
C224  C     C_3   0.833962 0.384519 0.842103 -0.675958
H238  H     H_    0.835326 0.432151 0.826380 0.209756
H239  H     H_    0.795682 0.408703 0.858507 0.256286
H240  H     H_    0.803699 0.326402 0.834629 0.222717

loop_
_geom_bond_atom_site_label_1
_geom_bond_atom_site_label_2
_ccdc_geom_bond_type
C29   C133  A    
N40   H237  S    
N12   C148  S    
C182  H115  S    
N19   C155  S    
C186  H123  S    
N18   H37   S    
C21   C137  A    
C40   N24   S    
C201  H158  S    
C42   C58   A    
N36   C220  S    
C162  H67   S    
N20   C156  S    
O69   C161  S    
C24   C140  A    
C152  H32   S    
C45   C57   A    
N33   H209  S    
C72   O20   A    
O1    Zn5   S    
C180  H110  S    
N39   C223  S    
C222  H232  S    
C10   C94   A    
C149  H19   S    
C216  H206  S    
C213  H196  S    
C2    C90   A    
C48   O76   S    
C183  C184  S    
C35   C139  A    
C65   C96   S    
C215  H202  S    
C33   C137  A    
C79   O49   A    
C62   N1    S    
C67   C94   S    
C153  H35   S    
O1    Zn12  S    
C8    C92   A    
C8    N32   S    
C69   C92   S    
O10   Zn11  S    
C26   C130  A    
O4    Zn8   S    
C218  H215  S    
C100  C109  T    
C113  C133  A    
C146  H6    S    
C183  H117  S    
C204  H166  S    
C23   C143  A    
C20   C132  A    
C104  C105  T    
C44   O72   S    
C116  N4    A    
C68   O12   A    
C207  H173  S    
N11   C147  S    
N34   H213  S    
C149  H18   S    
C163  H69   S    
C53   O81   S    
C172  H92   S    
N25   C209  S    
C97   C112  T    
C85   O43   A    
C198  H151  S    
C99   C110  T    
O13   Zn8   S    
C60   N7    S    
C121  O61   S    
O42   Zn7   S    
O2    Zn2   S    
C158  H56   S    
C61   N2    S    
C192  H138  S    
C210  H184  S    
O20   Zn5   S    
C6    N30   S    
C25   N9    S    
C220  H224  S    
C151  H28   S    
O84   C206  S    
C83   O31   A    
N29   C213  S    
C164  C165  S    
O35   Zn13  S    
C125  N5    A    
O30   Zn12  S    
O78   C188  S    
O33   Zn15  S    
C33   N17   S    
C120  N4    A    
C76   C107  S    
C83   C100  S    
C150  H23   S    
C17   C133  A    
C174  H95   S    
C186  C187  S    
C181  H112  S    
C18   C130  A    
C201  C202  S    
O51   Zn5   S    
C162  C163  S    
C189  H130  S    
C50   O78   S    
C198  C199  S    
C75   C108  S    
O49   Zn7   S    
C22   C138  A    
C161  H65   S    
C1    C41   A    
C175  H98   S    
C221  H228  S    
O50   Zn8   S    
C214  H200  S    
C33   C38   A    
C4    N28   S    
C35   C40   A    
C27   N11   S    
C200  H157  S    
O11   Zn14  S    
C161  C162  S    
N25   H177  S    
C224  H238  S    
C165  H74   S    
C121  N5    A    
C170  C171  S    
N16   C152  S    
N37   H225  S    
C47   C59   A    
C55   O83   S    
C202  H162  S    
N17   C153  S    
C197  H149  S    
C146  H8    S    
C65   O9    A    
C168  H81   S    
C194  H143  S    
C67   O7    A    
C30   N14   S    
C28   C132  A    
C173  H93   S    
C68   O8    A    
C19   C135  A    
C5    C89   A    
C126  O66   S    
C15   C55   A    
C66   C95   S    
C120  O60   S    
C193  H140  S    
C49   O77   S    
O77   C185  S    
O2    Zn11  S    
C39   N23   S    
O3    Zn3   S    
C70   C91   S    
C163  H71   S    
O16   Zn1   S    
C171  H88   S    
C166  H78   S    
C73   C110  S    
C196  H146  S    
O3    Zn7   S    
N11   H9    S    
C214  H198  S    
C13   N37   S    
C3    C91   A    
C77   C106  S    
N18   C154  S    
C24   C144  A    
C74   O22   A    
C190  H133  S    
N13   H17   S    
C211  H188  S    
C193  H141  S    
C42   O70   S    
C169  H83   S    
O75   C179  S    
O9    Zn12  S    
C148  H14   S    
C86   C97   S    
C203  H163  S    
C86   O44   A    
C53   C61   A    
C128  N8    A    
O24   Zn13  S    
O74   C176  S    
C156  H47   S    
C55   C63   A    
C176  C177  S    
C119  C131  A    
C23   C24   A    
C56   C64   A    
O80   C194  S    
C117  C129  A    
C128  O68   S    
C189  C190  S    
C43   C59   A    
C156  H48   S    
C209  H180  S    
C71   O15   A    
N9    H1    S    
C46   C58   A    
C72   O16   A    
C10   N34   S    
C184  H119  S    
N15   H25   S    
C217  H212  S    
O34   Zn16  S    
N21   C157  S    
C85   O33   A    
C205  H168  S    
O28   Zn9   S    
C16   C96   A    
C195  H144  S    
C84   O32   A    
C215  H204  S    
C9    C49   A    
C199  H153  S    
C87   O41   A    
N24   C160  S    
C26   N10   S    
C147  H12   S    
C87   O35   A    
C206  H171  S    
C6    C90   A    
C34   C138  A    
C203  C204  S    
C77   O25   A    
C87   C104  S    
O1    Zn16  S    
C191  H135  S    
C159  H59   S    
C113  O53   S    
C16   C56   A    
O15   Zn2   S    
C154  H38   S    
C16   N40   S    
N38   C222  S    
C202  H160  S    
O19   Zn6   S    
C22   C142  A    
C167  H80   S    
C17   C18   A    
C114  C134  A    
C210  H183  S    
C102  C107  T    
C145  H3    S    
C69   O17   A    
C20   C136  A    
C224  H240  S    
N27   C211  S    
O76   C182  S    
C116  O56   S    
C32   N16   S    
C190  H134  S    
O40   Zn5   S    
C43   O71   S    
N23   H57   S    
C157  H51   S    
C41   O69   S    
C185  H121  S    
C71   O19   A    
N26   H181  S    
C187  H125  S    
C36   N20   S    
C176  H101  S    
C34   N18   S    
C196  H148  S    
C15   N39   S    
C219  H220  S    
O8    Zn9   S    
C36   C39   A    
C179  H107  S    
O45   Zn3   S    
C201  H159  S    
N14   H21   S    
C152  H31   S    
C82   O30   A    
C119  O59   S    
O4    Zn4   S    
C148  H16   S    
C14   N38   S    
C151  H27   S    
C117  O57   S    
C128  C140  A    
C126  N6    A    
C71   C90   S    
C115  C135  A    
C2    C42   A    
N15   C151  S    
C18   C134  A    
C168  C169  S    
C213  H195  S    
C155  H44   S    
C69   O13   A    
N36   H221  S    
C67   O11   A    
C194  H142  S    
O70   C164  S    
C185  C186  S    
C223  H236  S    
N30   H197  S    
C45   O73   S    
C21   C22   A    
C169  H85   S    
C209  H178  S    
C123  O63   S    
C34   C37   A    
C186  H124  S    
C145  H2    S    
C199  H155  S    
C66   O6    A    
C88   C103  S    
O37   Zn4   S    
C127  O67   S    
C147  H10   S    
N32   C216  S    
C59   N8    S    
C9    N33   S    
C37   C141  A    
C79   C112  S    
O2    Zn6   S    
C191  C192  S    
C122  N6    A    
C163  H70   S    
C154  H40   S    
C172  H91   S    
C15   C95   A    
C210  H182  S    
C178  H106  S    
N35   C219  S    
O17   Zn4   S    
C52   O80   S    
C119  N3    A    
N10   H5    S    
C115  N3    A    
C212  H192  S    
C66   O10   A    
C117  N1    A    
N19   H41   S    
C113  N1    A    
C158  H55   S    
O72   C170  S    
C162  H68   S    
C124  O64   S    
C80   O50   A    
C166  H76   S    
C220  H223  S    
O2    Zn15  S    
N16   H29   S    
C54   O82   S    
C164  H73   S    
O31   Zn9   S    
O44   Zn1   S    
C187  H127  S    
C155  H43   S    
C101  C108  T    
N33   C217  S    
C219  H218  S    
C190  H132  S    
N29   H193  S    
C182  C183  S    
C216  H207  S    
C179  C180  S    
C77   O51   A    
O82   C200  S    
C12   C52   A    
C189  H131  S    
C184  H118  S    
O25   Zn16  S    
C13   C53   A    
C75   O45   A    
C123  N7    A    
C21   C141  A    
C49   C61   A    
C75   O23   A    
C192  H137  S    
C121  C141  A    
C76   O24   A    
C180  C181  S    
C51   C63   A    
C65   O5    A    
C52   C64   A    
C221  H227  S    
C12   N36   S    
C4    C44   A    
O3    Zn14  S    
C125  C137  A    
C218  H214  S    
C5    C45   A    
C159  H58   S    
C13   C93   A    
C7    C47   A    
C103  C106  T    
C7    N31   S    
O46   Zn4   S    
N38   H229  S    
C8    C48   A    
O1    Zn1   S    
N17   H33   S    
C3    N27   S    
O21   Zn12  S    
C38   N22   S    
C153  H34   S    
C211  H186  S    
C206  C207  S    
C7    C91   A    
C203  H164  S    
C153  H36   S    
C170  H87   S    
C223  H234  S    
C177  H103  S    
C223  H235  S    
C86   O34   A    
O39   Zn6   S    
C197  H150  S    
C146  H7    S    
C183  H116  S    
C204  C205  S    
C51   O79   S    
C173  H94   S    
C31   N15   S    
C47   O75   S    
O36   Zn14  S    
C218  H216  S    
C32   C136  A    
C25   C30   A    
N28   C212  S    
C207  H172  S    
C82   O40   A    
C27   C32   A    
C78   O26   A    
C84   C99   S    
C83   O37   A    
C28   C31   A    
C199  H154  S    
C177  H102  S    
N26   C210  S    
C222  H231  S    
O43   Zn2   S    
C171  H89   S    
C178  H104  S    
C166  H77   S    
O5    Zn16  S    
C116  C136  A    
C197  C198  S    
C54   C62   A    
C19   C20   A    
O3    Zn10  S    
O48   Zn2   S    
C173  C174  S    
C2    N26   S    
C70   O18   A    
C192  C193  S    
C41   C57   A    
N24   H61   S    
C76   O46   A    
O38   Zn3   S    
C212  H191  S    
C211  H187  S    
C169  H84   S    
C44   C60   A    
C80   C111  S    
C167  C168  S    
O32   Zn10  S    
C171  C172  S    
O18   Zn3   S    
C122  O62   S    
C221  H226  S    
C214  H199  S    
C156  H46   S    
C150  H24   S    
C182  H114  S    
C174  H96   S    
C181  H111  S    
C12   C96   A    
C14   C94   A    
N28   H189  S    
C4    C92   A    
C207  C208  S    
C125  O65   S    
C149  H20   S    
C157  H50   S    
C209  H179  S    
C115  O55   S    
N30   C214  S    
C27   C131  A    
C160  H62   S    
C180  H109  S    
C81   O29   A    
C155  H42   S    
C25   C129  A    
C175  H97   S    
C74   C109  S    
N39   H233  S    
O81   C197  S    
C217  H211  S    
N21   H49   S    
C205  H169  S    
C3    C43   A    
C208  H174  S    
C200  H156  S    
C195  H145  S    
C78   C105  S    
C118  C130  A    
C80   O28   A    
C23   C139  A    
C215  H203  S    
C78   O52   A    
C200  C201  S    
C70   O14   A    
O26   Zn15  S    
C161  H66   S    
C147  H11   S    
C206  H170  S    
C150  H22   S    
C191  H136  S    
N37   C221  S    
C56   O84   S    
C85   C98   S    
N31   C215  S    
O4    Zn9   S    
C81   O39   A    
O71   C167  S    
N23   C159  S    
C195  C196  S    
C194  C195  S    
C29   N13   S    
C204  H165  S    
C84   O38   A    
O47   Zn1   S    
C224  H239  S    
N27   H185  S    
C58   N5    S    
C127  N7    A    
C188  C189  S    
C193  H139  S    
C124  N8    A    
N20   H45   S    
C185  H122  S    
C38   C142  A    
C127  C139  A    
C177  C178  S    
C165  H75   S    
C187  H126  S    
C48   C60   A    
C219  H219  S    
N34   C218  S    
C81   C102  S    
C196  H147  S    
C19   C131  A    
C35   N19   S    
N22   C158  S    
C17   C129  A    
O7    Zn10  S    
C88   O42   A    
C118  N2    A    
C114  N2    A    
C179  H108  S    
C208  H175  S    
N32   H205  S    
N13   C149  S    
O14   Zn7   S    
C30   C134  A    
C152  H30   S    
C165  C166  S    
C181  H113  S    
C222  H230  S    
C114  O54   S    
C148  H15   S    
O6    Zn15  S    
C174  C175  S    
C170  H86   S    
C217  H210  S    
O4    Zn13  S    
C213  H194  S    
O23   Zn14  S    
C57   N6    S    
C212  H190  S    
N31   H201  S    
C160  H63   S    
C168  H82   S    
O27   Zn10  S    
C36   C140  A    
O73   C173  S    
C14   C54   A    
C151  H26   S    
C39   C143  A    
C188  H128  S    
N9    C145  S    
C64   N3    S    
C46   O74   S    
C50   C62   A    
C160  H64   S    
C122  C142  A    
N12   H13   S    
C175  H99   S    
C9    C93   A    
C63   N4    S    
O83   C203  S    
C184  H120  S    
N14   C150  S    
O22   Zn11  S    
C11   C95   A    
C205  H167  S    
C126  C138  A    
C208  H176  S    
C1    C89   A    
C98   C111  T    
C6    C46   A    
C202  H161  S    
O12   Zn13  S    
C120  C132  A    
O41   Zn8   S    
C74   O48   A    
C188  H129  S    
C68   C93   S    
C40   C144  A    
C118  O58   S    
C159  H60   S    
C37   N21   S    
C198  H152  S    
N40   C224  S    
N22   H53   S    
O79   C191  S    
C154  H39   S    
C11   N35   S    
C172  H90   S    
C72   C89   S    
C178  H105  S    
N35   H217  S    
C176  H100  S    
O29   Zn11  S    
C73   O47   A    
C28   N12   S    
C167  H79   S    
C216  H208  S    
C82   C101  S    
C1    N25   S    
C145  H4    S    
C79   O27   A    
C73   O21   A    
C158  H54   S    
C31   C135  A    
C11   C51   A    
C88   O36   A    
C5    N29   S    
C26   C29   A    
C220  H222  S    
C157  H52   S    
C123  C143  A    
C124  C144  A    
N10   C146  S    
C164  H72   S    
O52   Zn6   S    
C10   C50   A    
