data_mof_unit_20851.cif
_audit_creation_date              2012-12-11T17:03:14-0500
_audit_creation_method            fapswitch 2.2
_symmetry_space_group_name_H-M    P1
_symmetry_Int_Tables_number       1
_space_group_crystal_system       triclinic
_cell_length_a                    16.706134
_cell_length_b                    7.097601
_cell_length_c                    15.227043
_cell_angle_alpha                 90.000017
_cell_angle_beta                  94.512802
_cell_angle_gamma                 90.0
_cell_volume                      1799.92585491

loop_
_atom_site_label
_atom_site_type_symbol
_atom_type_description
_atom_site_fract_x
_atom_site_fract_y
_atom_site_fract_z
_atom_type_partial_charge
O1    O     O_R   0.413460 0.494300 0.415980 -0.536847
O2    O     O_R   0.586540 0.994300 0.584020 -0.536847
O3    O     O_R   0.577100 0.822370 0.413730 -0.535653
O4    O     O_R   0.422900 0.322370 0.586270 -0.535653
C1    C     C_R   0.603958 0.655377 0.393579 0.717239
C2    C     C_R   0.396042 0.155377 0.606421 0.717238
O5    O     O_R   0.413490 0.823910 0.405510 -0.545289
O6    O     O_R   0.586510 0.323910 0.594490 -0.545290
O7    O     O_R   0.421770 0.995890 0.575740 -0.530258
O8    O     O_R   0.578230 0.495890 0.424260 -0.530258
C3    C     C_R   0.385704 0.655089 0.383345 0.699614
C4    C     C_R   0.614296 0.155089 0.616655 0.699615
O9    O     O_3   0.502910 0.661350 0.555860 -0.380242
O10   O     O_3   0.497090 0.161350 0.444140 -0.380243
V1    V     V_3+5 0.499460 0.935550 0.489640 1.391662
V2    V     V_3+5 0.500540 0.435550 0.510360 1.391661
C5    C     C_R   0.744212 0.012113 0.680031 0.008848
C6    C     C_R   0.255788 0.512114 0.319969 0.008850
C7    C     C_R   0.683680 0.146942 0.683555 -0.094836
C8    C     C_R   0.316319 0.646942 0.316445 -0.094838
C9    C     C_R   0.691990 0.277145 0.752979 -0.188749
C10   C     C_R   0.308010 0.777145 0.247020 -0.188747
H1    H     H_    0.644369 0.377599 0.759983 0.146183
H2    H     H_    0.355631 0.877598 0.240017 0.146183
C11   C     C_R   0.756967 0.267566 0.818187 -0.024782
C12   C     C_R   0.243034 0.767565 0.181813 -0.024784
C13   C     C_R   0.817209 0.125665 0.814532 -0.162254
C14   C     C_R   0.182791 0.625664 0.185468 -0.162253
C15   C     C_R   0.811381 0.006330 0.740568 -0.014532
C16   C     C_R   0.188620 0.506329 0.259431 -0.014542
C17   C     C_3   0.817975 0.795579 0.733014 0.121447
C18   C     C_3   0.182025 0.295579 0.266985 0.121447
C19   C     C_3   0.740917 0.802110 0.671895 0.106399
C20   C     C_3   0.259082 0.302110 0.328105 0.106404
H3    H     H_    0.813326 0.717064 0.795609 0.154174
H4    H     H_    0.186675 0.217064 0.204391 0.154173
H5    H     H_    0.748139 0.752401 0.603616 0.097696
H6    H     H_    0.251858 0.252403 0.396384 0.097701
C21   C     C_1   0.165707 0.120610 0.830944 -0.173028
C22   C     C_1   0.834292 0.620610 0.169056 -0.173028
C23   C     C_1   0.218395 0.128602 0.779673 0.010726
C24   C     C_1   0.781605 0.628602 0.220327 0.010726
C25   C     C_1   0.280635 0.138217 0.719547 0.006492
C26   C     C_1   0.719365 0.638217 0.280453 0.006491
C27   C     C_1   0.333378 0.146259 0.668336 -0.193036
C28   C     C_1   0.666622 0.646258 0.331664 -0.193037
O11   O     O_R   0.921840 0.772560 0.075830 -0.532115
O12   O     O_R   0.078160 0.272560 0.924170 -0.532115
O13   O     O_R   0.086520 0.441250 0.094510 -0.542825
O14   O     O_R   0.913480 0.941250 0.905490 -0.542824
C29   C     C_R   0.114535 0.610512 0.116631 0.694004
C30   C     C_R   0.885466 0.110512 0.883368 0.694005
O15   O     O_R   0.922920 0.442940 0.086290 -0.537260
O16   O     O_R   0.077080 0.942940 0.913710 -0.537258
O17   O     O_R   0.913440 0.271120 0.915960 -0.535380
O18   O     O_R   0.086560 0.771120 0.084040 -0.535381
C31   C     C_R   0.896811 0.611568 0.106982 0.747108
C32   C     C_R   0.103189 0.111568 0.893018 0.747107
O19   O     O_3   0.997130 0.604020 0.944190 -0.380389
O20   O     O_3   0.002870 0.104020 0.055810 -0.380389
V3    V     V_3+5 0.000530 0.329760 0.010360 1.417850
V4    V     V_3+5 0.999470 0.829760 0.989640 1.417851
C33   C     C_1   0.755769 0.395445 0.891821 0.304210
N1    N     N_1   0.754506 0.498115 0.950726 -0.385826
C34   C     C_1   0.244232 0.895444 0.108178 0.304207
N2    N     N_1   0.245495 0.998114 0.049273 -0.385825
N3    N     N_2   0.885739 0.738712 0.684692 -0.543269
H7    H     H_    0.898089 0.824577 0.632699 0.254787
C35   C     C_3   0.956193 0.673627 0.736800 -0.475548
H8    H     H_    0.000174 0.616976 0.692594 0.175980
H9    H     H_    0.939942 0.558370 0.781364 0.213231
H10   H     H_    0.984569 0.792078 0.775166 0.203489
N4    N     N_2   0.114260 0.238713 0.315306 -0.543269
H11   H     H_    0.101901 0.324593 0.367290 0.254788
C36   C     C_3   0.043813 0.173588 0.263197 -0.475554
H12   H     H_    0.999827 0.116953 0.307403 0.175976
H13   H     H_    0.060073 0.058311 0.218650 0.213223
H14   H     H_    0.015436 0.292016 0.224815 0.203509
N5    N     N_2   0.672580 0.714065 0.709965 -0.523772
H15   H     H_    0.627636 0.672650 0.663979 0.289054
C37   C     C_3   0.643066 0.784104 0.791146 -0.504904
H16   H     H_    0.608064 0.671859 0.821324 0.187051
H17   H     H_    0.602209 0.905429 0.777276 0.187773
H18   H     H_    0.692780 0.825860 0.839725 0.205775
N6    N     N_2   0.327420 0.214064 0.290038 -0.523772
H19   H     H_    0.372363 0.172652 0.336025 0.289056
C38   C     C_3   0.356935 0.284099 0.208856 -0.504902
H20   H     H_    0.391941 0.171856 0.178683 0.187048
H21   H     H_    0.397788 0.405432 0.222725 0.187774
H22   H     H_    0.307221 0.325843 0.160275 0.205775

loop_
_geom_bond_atom_site_label_1
_geom_bond_atom_site_label_2
_ccdc_geom_bond_type
C38   H20   S    
C2    C27   S    
C13   C15   A    
C5    C15   A    
N4    H11   S    
O1    C3    A    
O2    C4    A    
O11   V4    S    
C37   H16   S    
C21   C23   T    
N6    H19   S    
C17   N3    S    
C5    C19   S    
C18   H4    S    
C10   H2    S    
C7    C9    A    
C14   C29   S    
C4    C7    S    
C29   O18   A    
C11   C33   S    
C35   H9    S    
O15   V3    S    
O13   C29   A    
O14   C30   A    
C17   C19   S    
C6    C16   A    
O10   V2    S    
C30   O17   A    
C22   C24   T    
O6    V2    S    
C23   C25   S    
C24   C26   S    
C2    O7    A    
C37   H17   S    
C26   C28   T    
N6    C38   S    
C9    H1    S    
C3    C8    S    
O13   V3    S    
N3    H7    S    
O4    C2    A    
C18   N4    S    
N5    C37   S    
O15   C31   A    
C19   N5    S    
O16   V4    S    
C21   C32   S    
C19   H5    S    
C33   N1    T    
O20   V3    S    
N3    C35   S    
C20   N6    S    
C18   C20   S    
O4    V2    S    
C35   H10   S    
O5    C3    A    
C36   H12   S    
O11   C31   A    
C6    C20   S    
O6    C4    A    
O1    V2    S    
O2    V1    S    
C36   H13   S    
C8    C10   A    
O9    V1    S    
O14   V4    S    
O18   V4    S    
O9    V2    S    
N4    C36   S    
C37   H18   S    
O3    V1    S    
C13   C30   S    
O16   C32   A    
C9    C11   A    
O19   V4    S    
C22   C31   S    
C20   H6    S    
C12   C34   S    
O3    C1    A    
O12   C32   A    
C11   C13   A    
C1    C28   S    
C12   C14   A    
C14   C16   A    
O7    V1    S    
C1    O8    A    
C25   C27   T    
O8    V2    S    
C16   C18   S    
O12   V3    S    
O17   V3    S    
C17   H3    S    
O5    V1    S    
C5    C7    A    
C6    C8    A    
C35   H8    S    
C36   H14   S    
N5    H15   S    
C15   C17   S    
C34   N2    T    
C10   C12   A    
C38   H22   S    
C38   H21   S    
O10   V1    S    
