data_mof_unit_36256.cif
_audit_creation_date              2013-03-05T15:49:45-0500
_audit_creation_method            fapswitch 2.2
_symmetry_space_group_name_H-M    P1
_symmetry_Int_Tables_number       1
_space_group_crystal_system       triclinic
_cell_length_a                    12.068858
_cell_length_b                    12.838472
_cell_length_c                    13.176167
_cell_angle_alpha                 87.207576
_cell_angle_beta                  114.302105
_cell_angle_gamma                 92.979301
_cell_volume                      1857.32857916

loop_
_atom_site_label
_atom_site_type_symbol
_atom_site_description
_atom_site_fract_x
_atom_site_fract_y
_atom_site_fract_z
_atom_type_partial_charge
O1    O     O_R   0.579910 0.341070 0.505280 -0.553719
O2    O     O_R   0.388440 0.353740 0.492580 -0.629315
C1    C     C_R   0.477241 0.300157 0.497306 0.961226
O3    O     O_R   0.643280 0.490550 0.663120 -0.535404
O4    O     O_R   0.451810 0.503220 0.650420 -0.658688
C2    C     C_R   0.568639 0.506409 0.708619 0.901299
Zn1   Zn    Zn3+2 0.627850 0.491540 0.508480 1.063211
Zn2   Zn    Zn3+2 0.372150 0.508460 0.491520 1.014033
O5    O     O_R   0.611560 0.646260 0.507420 -0.611368
O6    O     O_R   0.420090 0.658930 0.494720 -0.637079
O7    O     O_R   0.548190 0.496780 0.349580 -0.639697
O8    O     O_R   0.356720 0.509450 0.336880 -0.521967
C3    C     C_R   0.522494 0.699989 0.501525 0.927592
C4    C     C_R   0.431718 0.501155 0.290592 0.958328
C5    C     C_R   0.251204 0.574051 0.986515 -0.154404
H1    H     H_    0.251735 0.652705 0.791496 0.147894
C6    C     C_R   0.388717 0.508007 0.168853 -0.160154
C7    C     C_R   0.736997 0.506603 0.904166 -0.028614
C8    C     C_R   0.765394 0.492477 0.017548 -0.176216
C9    C     C_R   0.676415 0.498742 0.057931 -0.173174
C10   C     C_R   0.556530 0.526389 0.986339 0.093402
C11   C     C_R   0.531168 0.551549 0.873954 0.089784
C12   C     C_R   0.461209 0.531337 0.022692 0.077384
C13   C     C_R   0.347580 0.573089 0.951381 0.054402
C14   C     C_R   0.333259 0.613808 0.846553 -0.243203
C15   C     C_R   0.423462 0.603998 0.809210 -0.127848
C16   C     C_R   0.476305 0.494845 0.128171 -0.265036
C17   C     C_R   0.270806 0.538092 0.095656 0.310748
C18   C     C_R   0.614868 0.525294 0.829595 -0.100234
H2    H     H_    0.557839 0.456458 0.182141 0.198007
H3    H     H_    0.706941 0.487760 0.146794 0.152925
H4    H     H_    0.857823 0.477251 0.075890 0.195248
H5    H     H_    0.407308 0.639685 0.728827 0.178930
C19   C     C_R   0.535034 0.811019 0.496735 -0.034971
C20   C     C_R   0.465077 0.189460 0.501235 -0.128842
C21   C     C_R   0.449558 0.037767 0.608076 -0.176879
C22   C     C_R   0.436021 0.143222 0.585223 -0.214856
C23   C     C_R   0.500441 0.131232 0.433366 0.275342
C24   C     C_R   0.511916 0.023816 0.454317 0.060175
C25   C     C_R   0.489181 0.976814 0.544592 0.066441
C26   C     C_R   0.507467 0.870237 0.569218 -0.055625
C27   C     C_R   0.556520 0.856590 0.408174 -0.225479
C28   C     C_R   0.545983 0.962624 0.387361 -0.106278
H6    H     H_    0.576484 0.809195 0.352257 0.153353
H7    H     H_    0.430466 0.005810 0.676780 0.147571
H8    H     H_    0.560614 0.995162 0.316404 0.197304
H9    H     H_    0.410077 0.190003 0.637754 0.163447
N1    N     N_R   0.798200 0.480260 0.519790 -0.143533
N2    N     N_R   0.201820 0.519740 0.480210 -0.107552
C29   C     C_R   0.018331 0.619116 0.426499 -0.360563
C30   C     C_R   0.134182 0.605981 0.427886 0.130297
C31   C     C_R   0.152386 0.445650 0.529571 -0.014804
C32   C     C_R   0.034131 0.456139 0.527104 0.022279
C33   C     C_R   0.966665 0.544081 0.475117 0.088560
C34   C     C_R   0.848432 0.554747 0.471974 -0.090506
C35   C     C_R   0.864554 0.393816 0.571907 0.478215
C36   C     C_R   0.981692 0.381003 0.575489 -0.355964
H10   H     H_    0.796108 0.622051 0.430257 0.148274
H11   H     H_    0.967559 0.687596 0.385481 0.151744
H12   H     H_    0.031601 0.312350 0.616847 0.187950
H13   H     H_    0.205003 0.378576 0.571535 0.135192
N3    N     N_R   0.170357 0.519600 0.127269 0.218342
O9    O     O_R   0.155008 0.428629 0.168610 -0.377975
O10   O     O_R   0.088424 0.588916 0.106680 -0.337502
N4    N     N_R   0.526731 0.182125 0.345614 0.187053
O11   O     O_R   0.446078 0.240101 0.270403 -0.403805
O12   O     O_R   0.636076 0.181606 0.349202 -0.357681
N5    N     N_R   0.816393 0.313594 0.622952 0.220028
O13   O     O_R   0.820550 0.216477 0.601124 -0.353789
O14   O     O_R   0.794522 0.334422 0.708270 -0.408330
C37   C     C_2   0.177150 0.690255 0.371528 0.503948
H14   H     H_    0.158004 0.770601 0.378747 0.017103
O15   O     O_2   0.226113 0.671734 0.310421 -0.493103
C38   C     C_2   0.130039 0.608388 0.907112 0.487125
H15   H     H_    0.083012 0.568459 0.829304 0.063527
O16   O     O_2   0.086314 0.685586 0.924508 -0.456497
C39   C     C_2   0.839806 0.508408 0.870522 0.579155
H16   H     H_    0.915720 0.458041 0.913900 0.068672
O17   O     O_2   0.845290 0.571426 0.800177 -0.519307
C40   C     C_2   0.503680 0.820851 0.672102 0.364064
H17   H     H_    0.429320 0.834104 0.695409 0.047112
O18   O     O_2   0.586099 0.765817 0.732810 -0.546723

loop_
_geom_bond_atom_site_label_1
_geom_bond_atom_site_label_2
_geom_bond_distance
_ccdc_geom_bond_type
N1    C34   1.369082 A    
C27   H6    1.084508 S    
C11   C18   1.419948 A    
C8    C9    1.387902 A    
C19   C27   1.392110 A    
C26   C40   1.485265 S    
C39   H16   1.085716 S    
Zn1   O7    1.910124 S    
C29   C33   1.390474 A    
C38   O16   1.220399 D    
C29   H11   1.085183 S    
C21   C22   1.375907 A    
C20   C22   1.390597 A    
C31   H13   1.082578 S    
C23   C24   1.395876 A    
O7    C4    1.299184 A    
C35   C36   1.412931 A    
Zn1   O5    2.005028 S    
C7    C8    1.393132 A    
O5    C3    1.280797 A    
N3    O10   1.300190 A    
N5    O13   1.301213 A    
N2    C30   1.387054 A    
C12   C13   1.420419 A    
C12   C16   1.386091 A    
C22   H9    1.084565 S    
C10   C11   1.407615 A    
C16   H2    1.075718 S    
C4    C6    1.468276 S    
C19   C26   1.399792 A    
C30   C37   1.473543 S    
O3    Zn1   1.967717 S    
C8    H4    1.084312 S    
C39   O17   1.220624 D    
C38   H15   1.085353 S    
C6    C16   1.388206 A    
C21   C25   1.404516 A    
C20   C23   1.397566 A    
C13   C14   1.397685 A    
O3    C2    1.299164 A    
C24   C25   1.426798 A    
C37   O15   1.216092 D    
C32   C36   1.395071 A    
C36   H12   1.083900 S    
C24   C28   1.401502 A    
N4    O12   1.301282 A    
C14   C15   1.379965 A    
C35   N5    1.429347 S    
O1    C1    1.285633 A    
N3    O9    1.301409 A    
C15   H5    1.077849 S    
C23   N4    1.439185 S    
C1    C20   1.421757 S    
Zn2   O8    1.967718 S    
N2    C31   1.372538 A    
C2    C18   1.484076 S    
C29   C30   1.409574 A    
C21   H7    1.080090 S    
C7    C18   1.420320 A    
C40   O18   1.221299 D    
C25   C26   1.398353 A    
O8    C4    1.293575 A    
C10   C12   1.421637 A    
C27   C28   1.377481 A    
C31   C32   1.427395 A    
H1    C14   1.082578 S    
N1    C35   1.382036 A    
C33   C34   1.423991 A    
C5    C13   1.418666 A    
O1    Zn1   1.984963 S    
C6    C17   1.412663 A    
Zn2   O6    1.984961 S    
O2    Zn2   2.005028 S    
C40   H17   1.084653 S    
O6    C3    1.288038 A    
O4    Zn2   1.910123 S    
C32   C33   1.402880 A    
Zn1   N1    2.011640 S    
O2    C1    1.281899 A    
C3    C19   1.426701 S    
C5    C17   1.415537 A    
O4    C2    1.298033 A    
C7    C39   1.478289 S    
C28   H8    1.081653 S    
C37   H14   1.085761 S    
C5    C38   1.479905 S    
C9    C10   1.416556 A    
N5    O14   1.298372 A    
N4    O11   1.301177 A    
C11   C15   1.411795 A    
C34   H10   1.082724 S    
Zn2   N2    2.011400 S    
C9    H3    1.077415 S    
C17   N3    1.440698 S    
