data_mof_unit_33216.cif
_audit_creation_date              2012-12-10T20:49:44-0500
_audit_creation_method            fapswitch 2.2
_symmetry_space_group_name_H-M    P1
_symmetry_Int_Tables_number       1
_space_group_crystal_system       triclinic
_cell_length_a                    8.113266
_cell_length_b                    8.930064
_cell_length_c                    16.771186
_cell_angle_alpha                 89.980922
_cell_angle_beta                  83.922687
_cell_angle_gamma                 89.935372
_cell_volume                      1208.27595017

loop_
_atom_site_label
_atom_site_type_symbol
_atom_type_description
_atom_site_fract_x
_atom_site_fract_y
_atom_site_fract_z
_atom_type_partial_charge
C1    C     C_R   0.499909 0.781988 0.500155 0.938910
C2    C     C_R   0.500054 0.218007 0.500020 0.938716
C3    C     C_1   0.499903 0.934788 0.500134 -0.147200
C4    C     C_1   0.500075 0.065189 0.500085 -0.153850
C5    C     C_R   0.475218 0.502213 0.653494 0.914371
C6    C     C_R   0.524655 0.502426 0.346619 0.938674
C7    C     C_R   0.453417 0.536325 0.738413 -0.213942
C8    C     C_R   0.544387 0.520109 0.260396 -0.212158
C9    C     C_R   0.528437 0.667710 0.764274 0.366584
C10   C     C_R   0.471222 0.413307 0.213679 0.365611
C11   C     C_R   0.501229 0.708556 0.845787 -0.084738
C12   C     C_R   0.482380 0.433582 0.129931 -0.077836
C13   C     C_R   0.400528 0.617034 0.899017 -0.021719
C14   C     C_R   0.563995 0.561353 0.095735 -0.027374
C15   C     C_R   0.315874 0.495247 0.871125 -0.147096
C16   C     C_R   0.644636 0.660656 0.142194 -0.147344
C17   C     C_R   0.343067 0.451625 0.791569 0.373154
C18   C     C_R   0.633498 0.643759 0.224619 0.365970
C19   C     C_2   0.409535 0.623682 0.985089 -0.145338
C20   C     C_2   0.556471 0.599800 0.012063 -0.157117
H1    H     H_    0.238546 0.425803 0.912880 0.186293
H2    H     H_    0.708032 0.757575 0.114716 0.186957
H3    H     H_    0.671019 0.601060 0.972051 0.168232
H4    H     H_    0.295794 0.615573 0.025477 0.165171
N1    N     N_1   0.926360 0.500000 0.499990 -0.010247
N2    N     N_1   0.073640 0.500000 0.500010 -0.012487
O1    O     O_R   0.363150 0.714660 0.500000 -0.620740
O2    O     O_R   0.636850 0.285340 0.500000 -0.618082
O3    O     O_R   0.636850 0.714660 0.500000 -0.600677
O4    O     O_R   0.363150 0.285340 0.500000 -0.608282
O5    O     O_R   0.346950 0.500000 0.615800 -0.620742
O6    O     O_R   0.653050 0.500000 0.384200 -0.624706
O7    O     O_R   0.620700 0.500000 0.615800 -0.566402
O8    O     O_R   0.379300 0.500000 0.384200 -0.580668
Zn1   Zn    Zn3+2 0.317220 0.500000 0.500010 1.038214
Zn2   Zn    Zn3+2 0.682780 0.500000 0.499990 1.044751
C21   C     C_1   0.413837 0.323993 0.078878 0.176653
N3    N     N_1   0.359365 0.236396 0.038119 -0.177888
C22   C     C_1   0.575996 0.841866 0.875647 0.187455
N4    N     N_1   0.635511 0.948262 0.899600 -0.169539
O9    O     O_3   0.624612 0.752608 0.707817 -0.748265
H5    H     H_    0.668353 0.842444 0.732727 0.344120
O10   O     O_3   0.391550 0.292131 0.252433 -0.746841
H6    H     H_    0.340836 0.227603 0.213884 0.350167
O11   O     O_3   0.705032 0.754060 0.267378 -0.735040
H7    H     H_    0.657468 0.751897 0.324079 0.331590
O12   O     O_3   0.264459 0.323122 0.769587 -0.734558
H8    H     H_    0.316208 0.287444 0.716968 0.329281

loop_
_geom_bond_atom_site_label_1
_geom_bond_atom_site_label_2
_ccdc_geom_bond_type
C1    C3    S    
C7    C17   A    
C2    C4    S    
O10   H6    S    
C15   C17   A    
C21   N3    T    
C14   C16   A    
C11   C13   A    
O9    H5    S    
C6    O6    A    
O12   H8    S    
C20   H3    S    
C2    O4    A    
C19   C20   D    
C1    O3    A    
C19   H4    S    
C10   O10   S    
O11   H7    S    
C11   C22   S    
C9    C11   A    
O3    Zn2   S    
C10   C12   A    
O4    Zn1   S    
C6    C8    S    
O6    Zn2   S    
C16   C18   A    
C12   C14   A    
C7    C9    A    
C13   C15   A    
O5    Zn1   S    
C2    O2    A    
C13   C19   S    
N1    Zn2   S    
C3    C4    T    
C22   N4    T    
C18   O11   S    
C14   C20   S    
N2    Zn1   S    
C15   H1    S    
O7    Zn2   S    
O2    Zn2   S    
C1    O1    A    
O8    Zn1   S    
C12   C21   S    
C5    C7    S    
C16   H2    S    
O1    Zn1   S    
N1    N2    T    
C9    O9    S    
C8    C10   A    
C8    C18   A    
C6    O8    A    
C17   O12   S    
C5    O5    A    
C5    O7    A    
