data_mof_unit_54323.cif
_audit_creation_date              2012-12-10T19:09:27-0500
_audit_creation_method            fapswitch 2.2
_symmetry_space_group_name_H-M    P1
_symmetry_Int_Tables_number       1
_space_group_crystal_system       triclinic
_cell_length_a                    14.652679
_cell_length_b                    15.667696
_cell_length_c                    9.772309
_cell_angle_alpha                 90.453067
_cell_angle_beta                  90.781455
_cell_angle_gamma                 89.769689
_cell_volume                      2243.16936769

loop_
_atom_site_label
_atom_site_type_symbol
_atom_type_description
_atom_site_fract_x
_atom_site_fract_y
_atom_site_fract_z
_atom_type_partial_charge
C1    C     C_R   0.120884 0.378503 0.500011 0.955202
C2    C     C_R   0.124777 0.618415 0.501291 0.940824
C3    C     C_R   0.620884 0.878503 0.500011 0.955203
C4    C     C_R   0.624777 0.118415 0.501291 0.940824
C5    C     C_3   0.904596 0.498909 0.078797 -0.268198
C6    C     C_3   0.904629 0.498830 0.917397 -0.269311
C7    C     C_3   0.404596 0.998910 0.078797 -0.268198
C8    C     C_3   0.404629 0.998830 0.917397 -0.269311
C9    C     C_R   0.874425 0.383248 0.499190 0.856653
C10   C     C_R   0.876226 0.618615 0.499676 0.866897
C11   C     C_R   0.374425 0.883248 0.499190 0.856653
C12   C     C_R   0.376226 0.118615 0.499676 0.866897
C13   C     C_3   0.803521 0.275260 0.643377 -0.340915
C14   C     C_3   0.833407 0.247801 0.390004 -0.355947
C15   C     C_3   0.821102 0.743583 0.373109 -0.351849
C16   C     C_3   0.819902 0.740960 0.630223 -0.352553
C17   C     C_3   0.303521 0.775261 0.643378 -0.340916
C18   C     C_3   0.333407 0.747801 0.390004 -0.355947
C19   C     C_3   0.321102 0.243583 0.373109 -0.351849
C20   C     C_3   0.319902 0.240960 0.630223 -0.352553
C21   C     C_3   0.227091 0.710557 0.652523 0.152337
C22   C     C_3   0.276329 0.667179 0.408160 0.141053
C23   C     C_3   0.243987 0.308427 0.363449 0.135651
C24   C     C_3   0.249782 0.312746 0.631641 0.130098
C25   C     C_3   0.727091 0.210556 0.652523 0.152336
C26   C     C_3   0.776329 0.167179 0.408159 0.141052
C27   C     C_3   0.743986 0.808427 0.363449 0.135651
C28   C     C_3   0.749782 0.812746 0.631640 0.130097
C29   C     C_3   0.709790 0.347967 0.460492 -0.449246
C30   C     C_3   0.709623 0.648424 0.496355 -0.424481
C31   C     C_3   0.209790 0.847967 0.460491 -0.449246
C32   C     C_3   0.209623 0.148424 0.496354 -0.424481
C33   C     C_3   0.806370 0.315344 0.498344 0.007075
C34   C     C_3   0.807579 0.686138 0.499403 -0.009383
C35   C     C_3   0.306370 0.815344 0.498344 0.007075
C36   C     C_3   0.307579 0.186138 0.499403 -0.009384
C37   C     C_3   0.193222 0.687660 0.503921 -0.047834
C38   C     C_3   0.188321 0.309204 0.499459 -0.031596
C39   C     C_3   0.693222 0.187661 0.503921 -0.047833
C40   C     C_3   0.688321 0.809203 0.499459 -0.031596
C41   C     C_3   0.145158 0.770131 0.447868 -0.459473
C42   C     C_3   0.138334 0.221763 0.503137 -0.483950
C43   C     C_3   0.645158 0.270131 0.447869 -0.459473
C44   C     C_3   0.638334 0.721763 0.503138 -0.483949
C45   C     C_3   0.047776 0.424046 0.081479 0.222879
C46   C     C_3   0.048074 0.424151 0.918773 0.221322
C47   C     C_3   0.044844 0.576779 0.921097 0.229115
C48   C     C_3   0.045110 0.576937 0.083410 0.227339
C49   C     C_3   0.547776 0.924045 0.081479 0.222879
C50   C     C_3   0.548074 0.924151 0.918773 0.221322
C51   C     C_3   0.544844 0.076779 0.921097 0.229115
C52   C     C_3   0.545110 0.076937 0.083410 0.227339
H1    H     H_    0.791830 0.324669 0.723934 0.183289
H2    H     H_    0.820634 0.273221 0.285274 0.211335
H3    H     H_    0.820479 0.705391 0.276570 0.215486
H4    H     H_    0.810299 0.701506 0.723274 0.206395
H5    H     H_    0.291829 0.824669 0.723934 0.183289
H6    H     H_    0.320635 0.773220 0.285274 0.211335
H7    H     H_    0.320480 0.205391 0.276570 0.215487
H8    H     H_    0.310298 0.201506 0.723274 0.206395
H9    H     H_    0.870842 0.244707 0.664925 0.265649
H10   H     H_    0.908054 0.234419 0.396393 0.217688
H11   H     H_    0.888486 0.775947 0.381663 0.236097
H12   H     H_    0.890789 0.766274 0.634982 0.235379
H13   H     H_    0.370842 0.744707 0.664926 0.265649
H14   H     H_    0.408054 0.734418 0.396394 0.217687
H15   H     H_    0.388486 0.275947 0.381665 0.236096
H16   H     H_    0.390789 0.266274 0.634983 0.235379
H17   H     H_    0.169312 0.740551 0.708352 0.175493
H18   H     H_    0.251086 0.645413 0.305841 0.160532
H19   H     H_    0.197238 0.287357 0.278931 0.175159
H20   H     H_    0.205875 0.303613 0.722526 0.169107
H21   H     H_    0.669312 0.240551 0.708352 0.175493
H22   H     H_    0.751085 0.145413 0.305840 0.160532
H23   H     H_    0.697237 0.787356 0.278931 0.175159
H24   H     H_    0.705876 0.803613 0.722526 0.169106
H25   H     H_    0.685012 0.392687 0.541013 0.196392
H26   H     H_    0.710345 0.383295 0.362129 0.200529
H27   H     H_    0.698797 0.610491 0.400773 0.196460
H28   H     H_    0.700322 0.604771 0.584341 0.193883
H29   H     H_    0.185011 0.892687 0.541012 0.196392
H30   H     H_    0.210345 0.883295 0.362128 0.200529
H31   H     H_    0.198797 0.110491 0.400772 0.196460
H32   H     H_    0.200322 0.104771 0.584340 0.193883
H33   H     H_    0.081270 0.783780 0.504647 0.204909
H34   H     H_    0.125751 0.760806 0.338423 0.250812
H35   H     H_    0.089200 0.215680 0.415729 0.222543
H36   H     H_    0.097973 0.216220 0.598338 0.234396
H37   H     H_    0.581270 0.283780 0.504648 0.204908
H38   H     H_    0.625750 0.260806 0.338424 0.250812
H39   H     H_    0.589200 0.715680 0.415731 0.222542
H40   H     H_    0.597973 0.716221 0.598340 0.234397
H41   H     H_    0.120054 0.426233 0.117266 0.115412
H42   H     H_    0.120529 0.426642 0.886243 0.109482
H43   H     H_    0.116639 0.574859 0.890276 0.130578
H44   H     H_    0.117572 0.576390 0.119216 0.099397
H45   H     H_    0.620054 0.926233 0.117266 0.115412
H46   H     H_    0.620529 0.926642 0.886243 0.109482
H47   H     H_    0.616639 0.074859 0.890276 0.130578
H48   H     H_    0.617572 0.076390 0.119216 0.099396
H49   H     H_    0.866879 0.442277 0.115257 0.206361
H50   H     H_    0.867081 0.442043 0.878342 0.203408
H51   H     H_    0.865008 0.554623 0.879392 0.201592
H52   H     H_    0.864985 0.554733 0.116456 0.201774
H53   H     H_    0.366879 0.942277 0.115257 0.206361
H54   H     H_    0.367081 0.942043 0.878343 0.203408
H55   H     H_    0.365008 0.054623 0.879392 0.201592
H56   H     H_    0.364985 0.054734 0.116456 0.201774
N1    N     N_3   0.998760 0.500000 0.138610 -0.140819
N2    N     N_3   0.998760 0.500000 0.861390 -0.142258
N3    N     N_3   0.498760 0.000000 0.138610 -0.140819
N4    N     N_3   0.498760 0.000000 0.861390 -0.142258
O1    O     O_R   0.092530 0.407440 0.616040 -0.586739
O2    O     O_R   0.092530 0.407440 0.383960 -0.584040
O3    O     O_R   0.092530 0.592560 0.383960 -0.601536
O4    O     O_R   0.092530 0.592560 0.616040 -0.566509
O5    O     O_R   0.592530 0.907440 0.616040 -0.586740
O6    O     O_R   0.592530 0.907440 0.383960 -0.584040
O7    O     O_R   0.592530 0.092560 0.383960 -0.601536
O8    O     O_R   0.592530 0.092560 0.616040 -0.566509
O9    O     O_R   0.907330 0.407420 0.616040 -0.601530
O10   O     O_R   0.907330 0.407420 0.383960 -0.595425
O11   O     O_R   0.907330 0.592580 0.383960 -0.596541
O12   O     O_R   0.907330 0.592580 0.616040 -0.598650
O13   O     O_R   0.407330 0.907420 0.616040 -0.601530
O14   O     O_R   0.407330 0.907420 0.383960 -0.595425
O15   O     O_R   0.407330 0.092580 0.383960 -0.596541
O16   O     O_R   0.407330 0.092580 0.616040 -0.598650
Zn1   Zn    Zn3+2 0.999890 0.500000 0.654960 1.023308
Zn2   Zn    Zn3+2 0.999890 0.500000 0.345040 1.013295
Zn3   Zn    Zn3+2 0.499890 0.000000 0.654960 1.023308
Zn4   Zn    Zn3+2 0.499890 0.000000 0.345040 1.013295
Br1   Br    Br    0.269902 0.620090 0.773258 -0.381139
Br2   Br    Br    0.361784 0.581146 0.472473 -0.352176
Br3   Br    Br    0.290136 0.415749 0.296087 -0.408138
Br4   Br    Br    0.311470 0.418691 0.668136 -0.339940
Br5   Br    Br    0.769903 0.120090 0.773257 -0.381139
Br6   Br    Br    0.861784 0.081146 0.472471 -0.352175
Br7   Br    Br    0.790136 0.915749 0.296086 -0.408137
Br8   Br    Br    0.811470 0.918691 0.668134 -0.339940
Cl1   Cl    Cl    0.004884 0.326202 0.151464 -0.553081
Cl2   Cl    Cl    0.006472 0.325990 0.844512 -0.547033
Cl3   Cl    Cl    0.001210 0.673988 0.847961 -0.546673
Cl4   Cl    Cl    0.999258 0.673939 0.154920 -0.555621
Cl5   Cl    Cl    0.504884 0.826202 0.151464 -0.553081
Cl6   Cl    Cl    0.506472 0.825990 0.844512 -0.547033
Cl7   Cl    Cl    0.501209 0.173988 0.847961 -0.546673
Cl8   Cl    Cl    0.499258 0.173939 0.154920 -0.555621

loop_
_geom_bond_atom_site_label_1
_geom_bond_atom_site_label_2
_ccdc_geom_bond_type
C16   C28   S    
C9    C33   S    
O16   Zn3   S    
C51   N4    S    
C29   C33   S    
O8    Zn3   S    
C6    N2    S    
C25   Br5   S    
C28   Br8   S    
C45   H41   S    
C14   C33   S    
C7    C8    S    
C46   Cl2   S    
C12   O15   A    
C45   C46   S    
C41   H34   S    
C43   H37   S    
C31   H30   S    
O1    Zn1   S    
C22   Br2   S    
C32   C36   S    
C17   C35   S    
C11   O13   A    
C38   C42   S    
C10   O12   A    
C19   C36   S    
C8    N4    S    
C5    C6    S    
C45   N1    S    
C26   C39   S    
C28   C40   S    
C14   H10   S    
C47   Cl3   S    
C48   Cl4   S    
N2    Zn1   S    
O15   Zn4   S    
C3    O5    A    
C16   C34   S    
C2    O4    A    
C18   H6    S    
C29   H26   S    
C20   C24   S    
C24   C38   S    
C7    H53   S    
C4    O7    A    
C19   H15   S    
C51   Cl7   S    
C12   C36   S    
C48   H44   S    
C18   C35   S    
C15   C34   S    
C44   H40   S    
C26   Br6   S    
C49   N3    S    
C30   H28   S    
C24   Br4   S    
C48   N1    S    
C5    H52   S    
C52   Cl8   S    
C29   C43   S    
C45   Cl1   S    
O2    Zn2   S    
C30   C44   S    
C1    O1    A    
C27   H23   S    
C21   Br1   S    
O7    Zn4   S    
C13   H1    S    
C51   H47   S    
C15   C27   S    
C32   H32   S    
C5    H49   S    
C50   H46   S    
C43   H38   S    
C30   C34   S    
C49   Cl5   S    
C51   C52   S    
C23   H19   S    
C11   O14   A    
C10   O11   A    
C39   C43   S    
C52   N3    S    
C19   H7    S    
C22   C37   S    
C52   H48   S    
C27   Br7   S    
C21   H17   S    
C15   H3    S    
C19   C23   S    
C16   H4    S    
C13   C33   S    
C3    O6    A    
C2    O3    A    
O13   Zn3   S    
C9    O9    A    
C47   C48   S    
C46   H42   S    
C4    C39   S    
O14   Zn4   S    
C27   C40   S    
C50   N4    S    
C9    O10   A    
C21   C37   S    
C10   C34   S    
C6    H51   S    
C14   C26   S    
C44   H39   S    
C1    C38   S    
C30   H27   S    
C14   H2    S    
C3    C40   S    
C46   N2    S    
O11   Zn2   S    
C31   C35   S    
C42   H36   S    
C1    O2    A    
C47   N2    S    
C8    H55   S    
C22   H18   S    
C24   H20   S    
C32   H31   S    
C29   H25   S    
C47   H43   S    
C31   C41   S    
C18   C22   S    
C20   H16   S    
O9    Zn1   S    
C13   C25   S    
C8    H54   S    
C12   O16   A    
C18   H14   S    
C23   C38   S    
C41   H33   S    
C17   H13   S    
C31   H29   S    
C23   Br3   S    
C11   C35   S    
C25   C39   S    
C2    C37   S    
C50   Cl6   S    
C32   C42   S    
C5    N1    S    
C26   H22   S    
C7    N3    S    
O12   Zn1   S    
C25   H21   S    
C6    H50   S    
N4    Zn3   S    
C37   C41   S    
O5    Zn3   S    
C17   C21   S    
O6    Zn4   S    
O4    Zn1   S    
C49   H45   S    
C20   C36   S    
N3    Zn4   S    
C40   C44   S    
C13   H9    S    
C49   C50   S    
N1    Zn2   S    
C15   H11   S    
C7    H56   S    
C4    O8    A    
C42   H35   S    
C16   H12   S    
C20   H8    S    
O10   Zn2   S    
C17   H5    S    
O3    Zn2   S    
C28   H24   S    
