data_mof_unit_65907.cif
_audit_creation_date              2012-12-10T20:36:14-0500
_audit_creation_method            fapswitch 2.2
_symmetry_space_group_name_H-M    P1
_symmetry_Int_Tables_number       1
_space_group_crystal_system       triclinic
_cell_length_a                    25.632871
_cell_length_b                    39.751984
_cell_length_c                    23.629951
_cell_angle_alpha                 89.973805
_cell_angle_beta                  122.798844
_cell_angle_gamma                 90.052183
_cell_volume                      20239.3462031

loop_
_atom_site_label
_atom_site_type_symbol
_atom_type_description
_atom_site_fract_x
_atom_site_fract_y
_atom_site_fract_z
_atom_type_partial_charge
C1    C     C_R   0.358349 0.749894 0.000062 0.545824
C2    C     C_3   0.244507 0.227838 0.955974 0.245821
C3    C     C_1   0.234866 0.249990 0.469739 -0.025336
C4    C     C_1   0.734863 0.250011 0.469738 -0.026262
C5    C     C_1   0.265136 0.749989 0.530262 -0.025931
C6    C     C_1   0.265134 0.250011 0.530261 -0.025336
C7    C     C_1   0.734865 0.749989 0.469739 -0.025977
C8    C     C_R   0.487648 0.431210 0.042731 -0.114727
C9    C     C_R   0.512358 0.568790 0.957273 -0.114792
C10   C     C_R   0.512369 0.431249 0.957229 -0.114682
C11   C     C_R   0.487639 0.568751 0.042777 -0.114785
C12   C     C_R   0.987642 0.931210 0.042727 -0.114791
C13   C     C_3   0.275379 0.779981 0.016166 0.232404
C14   C     C_R   0.012352 0.068790 0.957269 -0.114726
C15   C     C_R   0.012361 0.931249 0.957223 -0.114783
C16   C     C_R   0.987631 0.068751 0.042771 -0.114682
C17   C     C_R   0.487634 0.396086 0.042783 -0.125251
C18   C     C_R   0.512370 0.603914 0.957220 -0.125605
C19   C     C_R   0.512381 0.396122 0.957170 -0.125589
C20   C     C_R   0.487623 0.603877 0.042833 -0.125668
C21   C     C_R   0.987630 0.896086 0.042780 -0.125604
C22   C     C_R   0.012367 0.103914 0.957217 -0.125252
C23   C     C_R   0.012377 0.896122 0.957167 -0.125667
C24   C     C_3   0.724613 0.220020 0.983818 0.232381
C25   C     C_R   0.987618 0.103877 0.042829 -0.125588
C26   C     C_R   0.500007 0.378189 0.999976 0.033189
C27   C     C_R   0.499996 0.621811 0.000026 0.033312
C28   C     C_R   0.000004 0.878189 0.999974 0.033313
C29   C     C_R   0.999993 0.121811 0.000024 0.033189
C30   C     C_R   0.500009 0.448801 0.999983 0.038069
C31   C     C_R   0.499999 0.551199 0.000023 0.038107
C32   C     C_R   0.000001 0.948801 0.999976 0.038107
C33   C     C_R   0.999991 0.051199 0.000017 0.038069
C34   C     C_1   0.500007 0.484875 0.999995 -0.026779
C35   C     C_3   0.255493 0.272162 0.044026 0.245819
C36   C     C_1   0.500002 0.515125 0.000012 -0.026780
C37   C     C_1   0.999998 0.984875 0.999987 -0.026780
C38   C     C_1   0.999993 0.015125 0.000005 -0.026779
C39   C     C_R   0.499998 0.658937 0.000012 0.498764
C40   C     C_R   0.500002 0.341063 0.999988 0.500192
C41   C     C_R   0.999998 0.158937 0.000012 0.500193
C42   C     C_R   0.000002 0.841063 0.999988 0.498762
C43   C     C_R   0.500017 0.840962 0.000017 0.579547
C44   C     C_R   0.499987 0.159035 0.999969 0.572918
C45   C     C_R   0.000013 0.340966 0.000031 0.572867
C46   C     C_3   0.775266 0.720010 0.016144 0.232351
C47   C     C_R   0.999983 0.659039 0.999983 0.579670
C48   C     C_R   0.446342 0.068552 0.983334 -0.124881
C49   C     C_R   0.553611 0.931415 0.016144 -0.125023
C50   C     C_R   0.553637 0.068626 0.016326 -0.125393
C51   C     C_R   0.446512 0.931378 0.983857 -0.125058
C52   C     C_R   0.946428 0.568589 0.983993 -0.125027
C53   C     C_R   0.053673 0.431451 0.016721 -0.124883
C54   C     C_R   0.053449 0.568626 0.016006 -0.125062
C55   C     C_R   0.946348 0.431377 0.983618 -0.125392
C56   C     C_R   0.445683 0.103914 0.983227 0.194053
C57   C     C_3   0.775387 0.279979 0.016181 0.232381
C58   C     C_R   0.554242 0.896052 0.016290 0.195839
C59   C     C_R   0.554264 0.103988 0.016461 0.196585
C60   C     C_R   0.445867 0.896016 0.983776 0.195875
C61   C     C_R   0.945798 0.603952 0.983847 0.195801
C62   C     C_R   0.054332 0.396088 0.016828 0.194057
C63   C     C_R   0.054093 0.603988 0.016087 0.195837
C64   C     C_R   0.945720 0.396014 0.983484 0.196599
C65   C     C_R   0.499974 0.121807 0.999883 0.109943
C66   C     C_R   0.500048 0.878183 0.000039 0.109785
C67   C     C_R   0.999952 0.621820 0.999961 0.109831
C68   C     C_3   0.224621 0.720018 0.983834 0.232405
C69   C     C_R   0.000026 0.378194 0.000117 0.109923
C70   C     C_R   0.500002 0.051143 0.999839 -0.026994
C71   C     C_R   0.500062 0.948843 0.999976 -0.026851
C72   C     C_R   0.999938 0.551161 0.000023 -0.026846
C73   C     C_R   0.999998 0.448860 0.000160 -0.026995
C74   C     C_1   0.500033 0.015104 0.999880 -0.009980
C75   C     C_1   0.500055 0.984882 0.999924 -0.009840
C76   C     C_1   0.999945 0.515121 0.000076 -0.009841
C77   C     C_1   0.999967 0.484900 0.000120 -0.009981
C78   C     C_3   0.259050 0.281003 0.982865 -0.145761
C79   C     C_3   0.763701 0.741631 0.062271 -0.151262
C80   C     C_3   0.763702 0.258362 0.062264 -0.151137
C81   C     C_R   0.641651 0.250106 0.999938 0.546314
C82   C     C_3   0.236300 0.741630 0.937740 -0.151207
C83   C     C_3   0.736300 0.758369 0.937729 -0.151265
C84   C     C_3   0.240950 0.218997 0.017135 -0.145756
C85   C     C_3   0.263699 0.758370 0.062260 -0.151211
C86   C     C_3   0.736298 0.241638 0.937736 -0.151136
C87   C     C_3   0.301232 0.249991 0.999955 0.056994
C88   C     C_3   0.698782 0.749593 0.000041 0.057331
C89   C     C_3   0.698761 0.250428 0.999998 0.057164
C90   C     C_3   0.301239 0.749572 0.000002 0.057267
C91   C     C_3   0.801218 0.750407 0.999959 0.057329
C92   C     C_R   0.641663 0.749905 0.999962 0.545853
C93   C     C_3   0.198768 0.250009 0.000045 0.056993
C94   C     C_3   0.198761 0.750428 0.999998 0.057265
C95   C     C_3   0.801239 0.249572 0.000002 0.057164
C96   C     C_3   0.298620 0.241678 0.062166 -0.146608
C97   C     C_3   0.710110 0.727192 0.954272 -0.130888
C98   C     C_3   0.710214 0.272824 0.954278 -0.130968
C99   C     C_3   0.289792 0.727182 0.045734 -0.130935
C100  C     C_3   0.789890 0.772807 0.045728 -0.130882
C101  C     C_3   0.201379 0.258322 0.937834 -0.146613
C102  C     C_3   0.210208 0.772818 0.954266 -0.130929
C103  C     C_R   0.358312 0.250022 0.999981 0.526550
C104  C     C_3   0.789786 0.227176 0.045722 -0.130971
C105  C     C_R   0.147548 0.771403 0.362479 -0.114237
C106  C     C_R   0.852473 0.228610 0.637521 -0.114688
C107  C     C_R   0.852480 0.771422 0.637518 -0.114242
C108  C     C_R   0.147508 0.228588 0.362481 -0.114002
C109  C     C_R   0.647527 0.271390 0.362479 -0.114688
C110  C     C_R   0.352453 0.728598 0.637521 -0.114238
C111  C     C_R   0.352492 0.271412 0.637518 -0.114002
C112  C     C_R   0.647520 0.728579 0.362482 -0.114243
C113  C     C_R   0.112360 0.771443 0.292191 -0.123466
C114  C     C_R   0.858349 0.249894 0.000062 0.546309
C115  C     C_R   0.887660 0.228570 0.707809 -0.124990
C116  C     C_R   0.887666 0.771462 0.707805 -0.123499
C117  C     C_R   0.112321 0.228548 0.292195 -0.123548
C118  C     C_R   0.612340 0.271430 0.292191 -0.124989
C119  C     C_R   0.387640 0.728557 0.707809 -0.123467
C120  C     C_R   0.387679 0.271452 0.707805 -0.123548
C121  C     C_R   0.612334 0.728538 0.292195 -0.123500
C122  C     C_R   0.128135 0.750058 0.256298 0.034235
C123  C     C_R   0.871867 0.249943 0.743702 0.033508
C124  C     C_R   0.871858 0.750057 0.743690 0.034185
C125  C     C_R   0.141651 0.750106 0.999938 0.545836
C126  C     C_R   0.128143 0.249944 0.256309 0.033761
C127  C     C_R   0.628133 0.250057 0.256298 0.033508
C128  C     C_R   0.371865 0.749942 0.743702 0.034233
C129  C     C_R   0.371856 0.250056 0.743691 0.033762
C130  C     C_R   0.628142 0.749943 0.256310 0.034184
C131  C     C_R   0.179754 0.728662 0.292090 -0.123115
C132  C     C_R   0.820230 0.271327 0.707910 -0.123850
C133  C     C_R   0.820208 0.728641 0.707898 -0.123185
C134  C     C_R   0.179809 0.271349 0.292101 -0.120037
C135  C     C_R   0.679770 0.228673 0.292090 -0.123850
C136  C     C_R   0.141688 0.249978 0.000019 0.526544
C137  C     C_R   0.320246 0.771338 0.707910 -0.123113
C138  C     C_R   0.320191 0.228651 0.707899 -0.120038
C139  C     C_R   0.679792 0.771359 0.292102 -0.123183
C140  C     C_R   0.214855 0.728677 0.362372 -0.113892
C141  C     C_R   0.785129 0.271312 0.637628 -0.114394
C142  C     C_R   0.785107 0.728655 0.637617 -0.113918
C143  C     C_R   0.214909 0.271335 0.362382 -0.113260
C144  C     C_R   0.714871 0.228688 0.362372 -0.114393
C145  C     C_R   0.285145 0.771323 0.637628 -0.113892
C146  C     C_R   0.285090 0.228665 0.637618 -0.113260
C147  C     C_R   0.858337 0.750095 0.000038 0.545866
C148  C     C_R   0.714893 0.771344 0.362383 -0.113918
C149  C     C_R   0.198776 0.750032 0.397574 0.038049
C150  C     C_R   0.801226 0.249969 0.602426 0.037907
C151  C     C_R   0.801220 0.750031 0.602422 0.038050
C152  C     C_R   0.198782 0.249969 0.397578 0.037737
C153  C     C_R   0.698774 0.250031 0.397573 0.037907
C154  C     C_R   0.301224 0.749968 0.602426 0.038049
C155  C     C_R   0.301218 0.250031 0.602422 0.037737
C156  C     C_R   0.698780 0.749969 0.397578 0.038050
C157  C     C_R   0.591010 0.749942 0.182038 0.500348
C158  C     C_3   0.724734 0.779989 0.983857 0.232351
C159  C     C_R   0.408990 0.250058 0.817962 0.501849
C160  C     C_R   0.409000 0.749941 0.817979 0.500115
C161  C     C_R   0.591000 0.250059 0.182021 0.496669
C162  C     C_R   0.091010 0.249942 0.182038 0.501848
C163  C     C_R   0.908990 0.750058 0.817962 0.500351
C164  C     C_R   0.909000 0.249941 0.817979 0.496667
C165  C     C_R   0.091000 0.750059 0.182021 0.500120
C166  C     C_1   0.234864 0.750011 0.469738 -0.025931
C167  C     C_1   0.765137 0.249989 0.530262 -0.026262
C168  C     C_1   0.765135 0.750011 0.530261 -0.025977
H1    H     H_    0.405080 0.054578 0.970853 0.110696
H2    H     H_    0.521977 0.555364 0.924008 0.112846
H3    H     H_    0.521989 0.444707 0.923966 0.112874
H4    H     H_    0.478020 0.555293 0.076041 0.112866
H5    H     H_    0.978023 0.944636 0.075992 0.112846
H6    H     H_    0.021971 0.055364 0.924003 0.112990
H7    H     H_    0.021980 0.944707 0.923959 0.112866
H8    H     H_    0.978011 0.055293 0.076034 0.112874
H9    H     H_    0.477939 0.382979 0.076290 0.134615
H10   H     H_    0.522062 0.617021 0.923711 0.134070
H11   H     H_    0.522074 0.383042 0.923663 0.134012
H12   H     H_    0.594803 0.945374 0.028331 0.110701
H13   H     H_    0.477930 0.616958 0.076340 0.133996
H14   H     H_    0.977938 0.882979 0.076289 0.134070
H15   H     H_    0.022061 0.117021 0.923709 0.134615
H16   H     H_    0.022069 0.883042 0.923660 0.133996
H17   H     H_    0.977926 0.116958 0.076337 0.134012
H18   H     H_    0.267734 0.306435 0.970218 0.122734
H19   H     H_    0.774002 0.734144 0.112600 0.119216
H20   H     H_    0.774007 0.265849 0.112587 0.119417
H21   H     H_    0.225998 0.734135 0.887422 0.119193
H22   H     H_    0.725997 0.765856 0.887400 0.119214
H23   H     H_    0.594910 0.054710 0.028792 0.110631
H24   H     H_    0.232266 0.193565 0.029782 0.122735
H25   H     H_    0.274001 0.765864 0.112578 0.119191
H26   H     H_    0.725993 0.234150 0.887413 0.119419
H27   H     H_    0.339057 0.235553 0.113148 0.122346
H28   H     H_    0.677600 0.708077 0.917987 0.134828
H29   H     H_    0.677792 0.291951 0.918001 0.134781
H30   H     H_    0.322219 0.708060 0.082020 0.134759
H31   H     H_    0.822400 0.791923 0.082013 0.134830
H32   H     H_    0.160943 0.264446 0.886852 0.122343
H33   H     H_    0.177781 0.791940 0.917979 0.134761
H34   H     H_    0.405325 0.945308 0.971644 0.110644
H35   H     H_    0.822208 0.208049 0.081998 0.134780
H36   H     H_    0.072876 0.788190 0.266026 0.134948
H37   H     H_    0.927159 0.211833 0.733974 0.134761
H38   H     H_    0.927176 0.788224 0.733975 0.134898
H39   H     H_    0.072800 0.211793 0.266026 0.135055
H40   H     H_    0.572841 0.288167 0.266026 0.134761
H41   H     H_    0.427124 0.711810 0.733974 0.134948
H42   H     H_    0.427200 0.288207 0.733974 0.135055
H43   H     H_    0.572824 0.711776 0.266025 0.134899
H44   H     H_    0.193036 0.711922 0.265850 0.139744
H45   H     H_    0.905267 0.554631 0.971913 0.110706
H46   H     H_    0.806933 0.288058 0.734150 0.139709
H47   H     H_    0.806903 0.711886 0.734139 0.139653
H48   H     H_    0.193126 0.288097 0.265860 0.146580
H49   H     H_    0.693067 0.211942 0.265850 0.139705
H50   H     H_    0.306963 0.788078 0.734150 0.139755
H51   H     H_    0.306874 0.211903 0.734140 0.146575
H52   H     H_    0.693098 0.788114 0.265861 0.139664
H53   H     H_    0.254493 0.712051 0.389236 0.114163
H54   H     H_    0.745477 0.287929 0.610764 0.114093
H55   H     H_    0.745445 0.712014 0.610749 0.114116
H56   H     H_    0.094947 0.445425 0.029245 0.110695
H57   H     H_    0.254584 0.287969 0.389250 0.115666
H58   H     H_    0.754523 0.212071 0.389236 0.114092
H59   H     H_    0.245507 0.787949 0.610764 0.114164
H60   H     H_    0.245416 0.212031 0.610750 0.115666
H61   H     H_    0.754556 0.787986 0.389250 0.114118
H62   H     H_    0.359707 0.105112 0.958257 0.324767
H63   H     H_    0.640018 0.894812 0.040596 0.325288
H64   H     H_    0.640197 0.105307 0.041280 0.325083
H65   H     H_    0.360095 0.894720 0.959492 0.325280
H66   H     H_    0.860094 0.605195 0.959773 0.325318
H67   H     H_    0.094606 0.554696 0.028112 0.110646
H68   H     H_    0.140336 0.394892 0.041890 0.324765
H69   H     H_    0.139793 0.605288 0.040138 0.325308
H70   H     H_    0.859760 0.394697 0.958573 0.325072
H71   H     H_    0.723517 0.826080 0.959506 0.320283
H72   H     H_    0.198435 0.194092 0.889056 0.320524
H73   H     H_    0.276762 0.826075 0.040531 0.320219
H74   H     H_    0.723215 0.173931 0.959423 0.320307
H75   H     H_    0.301565 0.305908 0.110944 0.320524
H76   H     H_    0.776483 0.673920 0.040494 0.320277
H77   H     H_    0.776785 0.326068 0.040577 0.320308
H78   H     H_    0.905063 0.445293 0.971110 0.110629
H79   H     H_    0.223238 0.673925 0.959469 0.320213
H80   H     H_    0.134818 0.788018 0.389429 0.113015
H81   H     H_    0.865217 0.212004 0.610572 0.113208
H82   H     H_    0.865234 0.788052 0.610571 0.112995
H83   H     H_    0.134742 0.211965 0.389429 0.113410
H84   H     H_    0.634782 0.287995 0.389428 0.113208
H85   H     H_    0.365183 0.711983 0.610571 0.113016
H86   H     H_    0.365258 0.288035 0.610571 0.113410
H87   H     H_    0.634765 0.711948 0.389429 0.112995
H88   H     H_    0.478029 0.444636 0.075997 0.112990
O1    O     O_3   0.500000 0.749960 0.000000 -0.453128
O2    O     O_R   0.136890 0.730430 0.039220 -0.504357
O3    O     O_R   0.136890 0.269570 0.039220 -0.476060
O4    O     O_R   0.863110 0.730430 0.960780 -0.504541
O5    O     O_R   0.544080 0.730330 0.149660 -0.546143
O6    O     O_R   0.455920 0.269670 0.850340 -0.546967
O7    O     O_R   0.455920 0.730330 0.850340 -0.546191
O8    O     O_R   0.544080 0.269670 0.149660 -0.548608
O9    O     O_R   0.044080 0.230330 0.149660 -0.546968
O10   O     O_R   0.955920 0.769670 0.850340 -0.546140
O11   O     O_R   0.955920 0.230330 0.850340 -0.548610
O12   O     O_3   0.500000 0.250040 0.000000 -0.455076
O13   O     O_R   0.044080 0.769670 0.149660 -0.546188
O14   O     O_R   0.488890 0.675130 0.039250 -0.549454
O15   O     O_R   0.511110 0.324870 0.960750 -0.548978
O16   O     O_R   0.511110 0.675130 0.960750 -0.549352
O17   O     O_R   0.488890 0.324870 0.039250 -0.547002
O18   O     O_R   0.988890 0.175130 0.039250 -0.548976
O19   O     O_R   0.011110 0.824870 0.960750 -0.549457
O20   O     O_R   0.011110 0.175130 0.960750 -0.547002
O21   O     O_R   0.988890 0.824870 0.039250 -0.549354
O22   O     O_R   0.449630 0.824780 0.960760 -0.489279
O23   O     O_3   1.000000 0.249960 0.000000 -0.455079
O24   O     O_R   0.550370 0.175220 0.039240 -0.490917
O25   O     O_R   0.550370 0.824780 0.039240 -0.489517
O26   O     O_R   0.449630 0.175220 0.960760 -0.491097
O27   O     O_R   0.949630 0.324780 0.960760 -0.490887
O28   O     O_R   0.050370 0.675220 0.039240 -0.489350
O29   O     O_R   0.050370 0.324780 0.039240 -0.491072
O30   O     O_R   0.949630 0.675220 0.960760 -0.489587
O31   O     O_R   0.605560 0.769560 0.149640 -0.548200
O32   O     O_R   0.394440 0.230440 0.850360 -0.539052
O33   O     O_R   0.394440 0.769560 0.850360 -0.548247
O34   O     O_3   1.000000 0.750040 0.000000 -0.453118
O35   O     O_R   0.605560 0.230440 0.149640 -0.548902
O36   O     O_R   0.105560 0.269560 0.149640 -0.539045
O37   O     O_R   0.894440 0.730440 0.850360 -0.548217
O38   O     O_R   0.894440 0.269560 0.850360 -0.548894
O39   O     O_R   0.105560 0.730440 0.149640 -0.548264
O40   O     O_R   0.402350 0.730330 0.039260 -0.557731
O41   O     O_R   0.597650 0.269670 0.960740 -0.557691
O42   O     O_R   0.597650 0.730330 0.960740 -0.557601
O43   O     O_R   0.402350 0.269670 0.039260 -0.564080
O44   O     O_R   0.902350 0.230330 0.039260 -0.557692
O45   O     O_R   0.363110 0.769570 0.960780 -0.504359
O46   O     O_R   0.097650 0.769670 0.960740 -0.557729
O47   O     O_R   0.097650 0.230330 0.960740 -0.564080
O48   O     O_R   0.902350 0.769670 0.039260 -0.557599
O49   O     O_3   0.393119 0.121354 0.968490 -0.665136
O50   O     O_3   0.606669 0.878586 0.030658 -0.657044
O51   O     O_3   0.606797 0.121502 0.031153 -0.656300
O52   O     O_3   0.393433 0.878516 0.969446 -0.656923
O53   O     O_3   0.893417 0.621420 0.969617 -0.657064
O54   O     O_3   0.106914 0.378650 0.031620 -0.665105
O55   O     O_3   0.106481 0.621491 0.030279 -0.656941
O56   O     O_R   0.636890 0.230430 0.039220 -0.503436
O57   O     O_3   0.893170 0.378502 0.968736 -0.656296
O58   O     O_3   0.696255 0.811569 0.966873 -0.659814
O59   O     O_3   0.240087 0.204413 0.909453 -0.651666
O60   O     O_3   0.303984 0.811552 0.033184 -0.659769
O61   O     O_3   0.695999 0.188452 0.966783 -0.659583
O62   O     O_3   0.259913 0.295587 0.090547 -0.651665
O63   O     O_3   0.803745 0.688431 0.033127 -0.659783
O64   O     O_3   0.804001 0.311548 0.033216 -0.659595
O65   O     O_3   0.196016 0.688447 0.966816 -0.659737
O66   O     O_R   0.636890 0.769570 0.039220 -0.504543
O67   O     O_R   0.363110 0.230430 0.960780 -0.476057
O68   O     O_R   0.863110 0.269570 0.960780 -0.503437
Zn1   Zn    Zn3+2 0.571950 0.777980 0.056050 0.995000
Zn2   Zn    Zn3+2 0.515890 0.278080 0.943930 0.932620
Zn3   Zn    Zn3+2 0.515890 0.721920 0.943930 0.930828
Zn4   Zn    Zn3+2 0.484110 0.278080 0.056070 0.922973
Zn5   Zn    Zn3+2 0.984110 0.221920 0.056070 0.932616
Zn6   Zn    Zn3+2 0.015890 0.778080 0.943930 0.930861
Zn7   Zn    Zn3+2 0.015890 0.221920 0.943930 0.922969
Zn8   Zn    Zn3+2 0.984110 0.778080 0.056070 0.930839
Zn9   Zn    Zn3+2 0.428050 0.222020 0.943950 1.006134
Zn10  Zn    Zn3+2 0.428050 0.777980 0.943950 0.994963
Zn11  Zn    Zn3+2 0.571950 0.222020 0.056050 0.988890
Zn12  Zn    Zn3+2 0.071950 0.277980 0.056050 1.006133
Zn13  Zn    Zn3+2 0.928050 0.722020 0.943950 0.994997
Zn14  Zn    Zn3+2 0.928050 0.277980 0.943950 0.988891
Zn15  Zn    Zn3+2 0.071950 0.722020 0.056050 0.994960
Zn16  Zn    Zn3+2 0.484110 0.721920 0.056070 0.930850

loop_
_geom_bond_atom_site_label_1
_geom_bond_atom_site_label_2
_ccdc_geom_bond_type
C157  O5    A    
C7    C168  T    
C45   O27   A    
C22   C29   A    
C93   C136  S    
C144  H58   S    
C14   C33   A    
C101  H32   S    
C15   C32   A    
C124  C133  A    
C50   C59   A    
C52   C61   A    
O7    Zn3   S    
C46   C79   S    
O66   Zn1   S    
C5    C166  T    
C54   C63   A    
C135  H49   S    
C147  O4    A    
H71   O58   S    
C131  C140  A    
C134  C143  A    
C139  H52   S    
C113  C122  A    
C70   C74   S    
C160  O7    A    
C78   H18   S    
C88   C158  S    
C91   C100  S    
C117  C126  A    
C88   C97   S    
C39   O14   A    
C46   O63   S    
H63   O50   S    
C119  C128  A    
C4    C153  S    
C78   C101  S    
O1    Zn10  S    
C51   C71   A    
O23   Zn5   S    
O3    Zn12  S    
C109  C118  A    
C25   C29   A    
C164  O11   A    
C11   C20   A    
O8    Zn4   S    
C115  C123  A    
C45   C69   S    
C133  H47   S    
C93   C101  S    
C42   O21   A    
C112  H87   S    
C46   C91   S    
C10   H3    S    
H73   O60   S    
C8    H88   S    
O1    Zn1   S    
C142  C151  A    
C105  H80   S    
C37   C38   T    
C52   C72   A    
C10   C30   A    
O13   Zn8   S    
C50   H23   S    
C25   H17   S    
O34   Zn6   S    
C87   C103  S    
C21   C28   A    
C19   H11   S    
O46   Zn6   S    
C17   H9    S    
C16   C25   A    
C35   C78   S    
C1    O40   A    
O19   Zn6   S    
C33   C38   S    
C48   C70   A    
C83   C91   S    
C162  O9    A    
C8    C17   A    
C106  C115  A    
C120  H42   S    
C50   C70   A    
C122  C131  A    
C159  O6    A    
O42   Zn3   S    
C84   C93   S    
O44   Zn5   S    
C86   C95   S    
C48   H1    S    
C94   C102  S    
C49   C71   A    
C13   C85   S    
C73   C77   S    
C31   C36   S    
C111  C155  A    
C116  H38   S    
C78   C87   S    
H70   O57   S    
O43   Zn4   S    
C106  C150  A    
C123  C132  A    
C83   H22   S    
C64   O57   S    
C121  C130  A    
C3    C6    T    
C91   C147  S    
C136  O47   A    
C134  H48   S    
C35   C96   S    
C145  H59   S    
O21   Zn8   S    
C133  C142  A    
O1    Zn3   S    
O56   Zn11  S    
C130  C157  S    
C105  C113  A    
C102  H33   S    
C56   O49   S    
C43   C66   S    
C150  C167  S    
C53   C62   A    
C81   O56   A    
C43   O25   A    
C96   H27   S    
C7    C156  S    
C51   H34   S    
C124  C163  S    
C107  C151  A    
C122  C165  S    
C55   C64   A    
C57   C80   S    
O37   Zn13  S    
C44   C65   S    
O9    Zn5   S    
C143  H57   S    
C141  C150  A    
C35   O62   S    
C80   H20   S    
C21   H14   S    
C139  C148  A    
O26   Zn9   S    
C30   C34   S    
C120  C129  A    
O22   Zn10  S    
C64   C69   A    
C125  O2    A    
C68   C94   S    
H66   O53   S    
C24   O61   S    
C85   C99   S    
H77   O64   S    
C61   C67   A    
C44   O26   A    
C82   C102  S    
C2    C87   S    
C32   C37   S    
C126  C134  A    
C145  C154  A    
C138  H51   S    
C82   H21   S    
O34   Zn15  S    
C90   C99   S    
C94   C125  S    
C132  C141  A    
C107  H82   S    
C29   C41   S    
C108  C117  A    
C6    C155  S    
C47   O30   A    
C110  C119  A    
C63   O55   S    
C62   O54   S    
C159  O32   A    
C89   C98   S    
C68   C82   S    
C14   C22   A    
C112  C121  A    
C163  O10   A    
C59   C65   A    
O10   Zn6   S    
C44   O24   A    
O29   Zn12  S    
C146  H60   S    
C40   O17   A    
C138  C146  A    
C99   H30   S    
C34   C36   T    
C107  C116  A    
C55   C73   A    
C9    C18   A    
C132  H46   S    
C18   H10   S    
O17   Zn4   S    
C112  C156  A    
C2    O59   S    
C51   C60   A    
C13   C102  S    
C24   C86   S    
C140  C149  A    
C20   H13   S    
C1    C90   S    
O23   Zn14  S    
C13   C90   S    
O48   Zn8   S    
C2    C84   S    
H72   O59   S    
C164  O38   A    
C9    H2    S    
C165  O39   A    
C39   O16   A    
C103  O43   A    
C3    C152  S    
C165  O13   A    
C80   C104  S    
C137  C145  A    
C161  O35   A    
H76   O63   S    
C127  C135  A    
C162  O36   A    
O33   Zn10  S    
H64   O51   S    
C95   C114  S    
C5    C154  S    
C45   O29   A    
C57   O64   S    
O6    Zn2   S    
C80   C89   S    
C19   C26   A    
C108  C152  A    
C146  C155  A    
C55   H78   S    
O45   Zn10  S    
O34   Zn13  S    
C109  C153  A    
C98   H29   S    
C81   C89   S    
C16   H8    S    
C60   C66   A    
C11   H4    S    
H74   O61   S    
C24   C89   S    
O28   Zn15  S    
C114  O44   A    
O2    Zn15  S    
O16   Zn3   S    
C130  C139  A    
C59   O51   S    
C79   C88   S    
C163  O37   A    
C92   O66   A    
C119  H41   S    
C149  C166  S    
C104  H35   S    
C79   C100  S    
O36   Zn12  S    
O5    Zn16  S    
O20   Zn7   S    
C92   O42   A    
C53   H56   S    
C118  C127  A    
C68   O65   S    
C10   C19   A    
O12   Zn9   S    
C136  O3    A    
C13   O60   S    
C79   H19   S    
C42   O19   A    
C143  C152  A    
C46   C97   S    
O25   Zn1   S    
C106  H81   S    
H62   O49   S    
O15   Zn2   S    
O12   Zn2   S    
C147  O48   A    
C116  C124  A    
H75   O62   S    
C117  H39   S    
C20   C27   A    
C82   C90   S    
C4    C167  T    
C8    C30   A    
O47   Zn7   S    
C14   H6    S    
C123  C164  S    
C83   C158  S    
C57   C98   S    
C86   C98   S    
C100  C158  S    
O31   Zn1   S    
C62   C69   A    
C83   C97   S    
C148  C156  A    
C142  H55   S    
C86   H26   S    
C41   O18   A    
C56   C65   A    
C12   H5    S    
C109  H84   S    
O40   Zn16  S    
O67   Zn9   S    
O14   Zn16  S    
C72   C76   S    
C26   C40   S    
C160  O33   A    
C157  O31   A    
O1    Zn16  S    
C103  O67   A    
C17   C26   A    
C158  O58   S    
C97   H28   S    
C140  H53   S    
C110  H85   S    
C151  C168  S    
O12   Zn11  S    
C84   C96   S    
C113  H36   S    
C28   C42   S    
C144  C153  A    
O32   Zn9   S    
C58   C66   A    
O4    Zn13  S    
C88   C92   S    
C27   C39   S    
C137  H50   S    
O23   Zn12  S    
H68   O54   S    
C141  H54   S    
C49   H12   S    
H69   O55   S    
C111  H86   S    
C15   C23   A    
O12   Zn4   S    
C11   C31   A    
C127  C161  S    
O38   Zn14  S    
C1    O45   A    
C114  O68   A    
C54   H67   S    
C47   C67   S    
C35   C93   S    
C63   C67   A    
C74   C75   T    
C129  C138  A    
C108  H83   S    
C76   C77   T    
C2    C101  S    
C12   C21   A    
C49   C58   A    
C111  C120  A    
C24   C104  S    
C118  H40   S    
C128  C137  A    
C22   H15   S    
C110  C154  A    
C81   O41   A    
C16   C33   A    
C60   O52   S    
C85   C94   S    
O24   Zn11  S    
C61   O53   S    
C87   C96   S    
C41   O20   A    
C125  O46   A    
C135  C144  A    
O18   Zn5   S    
C115  H37   S    
C23   C28   A    
H65   O52   S    
C129  C159  S    
C95   C104  S    
C128  C160  S    
C40   O15   A    
C48   C56   A    
O27   Zn14  S    
C53   C73   A    
C18   C27   A    
O23   Zn7   S    
C105  C149  A    
C15   H7    S    
O68   Zn14  S    
O30   Zn13  S    
C68   C99   S    
O39   Zn15  S    
C23   H16   S    
C58   O50   S    
O11   Zn7   S    
C71   C75   S    
C161  O8    A    
C85   H25   S    
C43   O22   A    
O35   Zn11  S    
C52   H45   S    
C84   H24   S    
C121  H43   S    
C47   O28   A    
C9    C31   A    
C100  H31   S    
C54   C72   A    
C57   C95   S    
C131  H44   S    
C148  H61   S    
C126  C162  S    
C12   C32   A    
O34   Zn8   S    
O41   Zn2   S    
H79   O65   S    
