data_mof_unit_35690.cif
_audit_creation_date              2012-12-10T20:35:50-0500
_audit_creation_method            fapswitch 2.2
_symmetry_space_group_name_H-M    P1
_symmetry_Int_Tables_number       1
_space_group_crystal_system       triclinic
_cell_length_a                    15.709232
_cell_length_b                    10.664347
_cell_length_c                    9.927185
_cell_angle_alpha                 89.841604
_cell_angle_beta                  88.44725
_cell_angle_gamma                 90.491823
_cell_volume                      1662.40900398

loop_
_atom_site_label
_atom_site_type_symbol
_atom_type_description
_atom_site_fract_x
_atom_site_fract_y
_atom_site_fract_z
_atom_type_partial_charge
C1    C     C_R   0.496714 0.260493 0.500002 0.914980
C2    C     C_R   0.496698 0.128334 0.497533 -0.149652
C3    C     C_R   0.450929 0.062011 0.399883 0.158792
C4    C     C_R   0.338468 0.500082 0.501616 0.911610
C5    C     C_R   0.455047 0.932766 0.398989 -0.240414
C6    C     C_R   0.502040 0.871175 0.496223 -0.162676
C7    C     C_R   0.554003 0.937852 0.581885 0.105508
C8    C     C_3   0.562647 0.930022 0.731127 -0.003603
C9    C     C_3   0.559161 0.072351 0.731960 -0.470477
C10   C     C_R   0.434786 0.444839 0.074137 0.205041
C11   C     C_R   0.568424 0.546416 0.065073 0.167752
C12   C     C_3   0.945274 0.441962 0.634653 -0.401083
C13   C     C_R   0.567039 0.544934 0.922229 -0.147616
C14   C     C_R   0.434929 0.444635 0.932076 0.193354
C15   C     C_3   0.343453 0.480325 0.929771 -0.487610
C16   C     C_R   0.500383 0.739398 0.499653 0.894632
C17   C     C_3   0.343341 0.481500 0.082598 -0.429153
C18   C     C_R   0.661569 0.500266 0.498384 0.907833
C19   C     C_3   0.044037 0.440015 0.639707 -0.034162
C20   C     C_3   0.051111 0.418497 0.376623 0.318827
C21   C     C_3   0.952502 0.412209 0.383015 -0.433876
C22   C     C_1   0.750506 0.499596 0.495315 -0.172571
C23   C     C_3   0.917272 0.496257 0.498251 0.240352
C24   C     C_3   0.082735 0.493168 0.502857 0.192755
C25   C     C_3   0.649163 0.602891 0.121302 -0.352490
C26   C     C_3   0.636157 0.731127 0.187416 -0.696140
C27   C     C_3   0.076916 0.309813 0.684168 -0.407261
C28   C     C_3   0.063549 0.288338 0.835678 -0.812356
C29   C     C_3   0.953074 0.631160 0.480998 -0.383950
C30   C     C_3   0.050731 0.630662 0.492731 -0.451115
C31   C     C_1   0.825867 0.498376 0.495437 -0.068215
C32   C     C_1   0.174266 0.496398 0.504876 -0.051305
C33   C     C_1   0.249607 0.498576 0.504707 -0.135427
C34   C     C_R   0.551356 0.065796 0.582334 0.046886
H1    H     H_    0.917340 0.346358 0.648810 0.187168
H2    H     H_    0.333882 0.574588 0.884731 0.219409
H3    H     H_    0.303008 0.404403 0.888276 0.217057
H4    H     H_    0.334035 0.576579 0.126035 0.220138
H5    H     H_    0.302259 0.406896 0.128983 0.254077
H6    H     H_    0.930390 0.314019 0.400628 0.187148
H7    H     H_    0.925924 0.441995 0.285399 0.195255
H8    H     H_    0.068632 0.684629 0.583742 0.182707
H9    H     H_    0.080844 0.681787 0.405975 0.225971
H10   H     H_    0.924794 0.693983 0.559316 0.194914
H11   H     H_    0.571871 0.768932 0.168541 0.260495
H12   H     H_    0.063122 0.507015 0.719800 0.181316
H13   H     H_    0.646867 0.725290 0.297082 0.250669
H14   H     H_    0.683508 0.799826 0.145532 0.234425
H15   H     H_    0.683390 0.535278 0.183245 0.218214
H16   H     H_    0.697176 0.618771 0.038378 0.178831
H17   H     H_    0.100804 0.358177 0.892945 0.280727
H18   H     H_    0.995101 0.295860 0.865182 0.267519
H19   H     H_    0.085705 0.193138 0.862627 0.268251
H20   H     H_    0.043185 0.233601 0.630988 0.247784
H21   H     H_    0.146115 0.301120 0.660841 0.237166
H22   H     H_    0.919529 0.500365 0.718947 0.176951
H23   H     H_    0.936070 0.669224 0.380800 0.203633
H24   H     H_    0.417129 0.880375 0.328513 0.184963
H25   H     H_    0.506840 0.884635 0.783213 0.163234
H26   H     H_    0.500847 0.109151 0.783556 0.202096
H27   H     H_    0.619476 0.118813 0.761147 0.228464
H28   H     H_    0.619500 0.583107 0.862025 0.185886
I1    I     I_    0.364399 0.144529 0.264881 -0.348261
I2    I     I_    0.684343 0.857788 0.782585 -0.440079
I3    I     I_    0.092659 0.506132 0.187992 -0.435557
I4    I     I_    0.102918 0.232160 0.354236 -0.372469
N1    N     N_R   0.499430 0.499140 0.142800 -0.118142
N2    N     N_R   0.499430 0.499180 0.857150 -0.124072
O1    O     O_R   0.500010 0.316790 0.614690 -0.618305
O2    O     O_R   0.500000 0.316760 0.385350 -0.590292
O3    O     O_R   0.377150 0.500020 0.614720 -0.625553
O4    O     O_R   0.377140 0.499990 0.385380 -0.600840
O5    O     O_R   0.500000 0.683240 0.614650 -0.609633
O6    O     O_R   0.499990 0.683210 0.385310 -0.625774
O7    O     O_R   0.622860 0.500010 0.614620 -0.607697
O8    O     O_R   0.622850 0.499980 0.385280 -0.628841
Zn1   Zn    Zn3+2 0.500010 0.500020 0.653130 0.957526
Zn2   Zn    Zn3+2 0.499990 0.499980 0.346870 0.966347

loop_
_geom_bond_atom_site_label_1
_geom_bond_atom_site_label_2
_ccdc_geom_bond_type
C18   O7    A    
O2    Zn2   S    
C28   H18   S    
O1    Zn1   S    
C4    O4    A    
C19   H12   S    
C7    C8    S    
C10   N1    A    
C12   C23   S    
C5    H24   S    
C16   O6    A    
C23   C29   S    
C20   I4    S    
O8    Zn2   S    
C8    H25   S    
C5    C6    A    
C28   H17   S    
C27   H21   S    
C11   C25   S    
C10   C17   S    
C1    C2    S    
C17   H5    S    
O5    Zn1   S    
C25   H16   S    
C15   H3    S    
O4    Zn2   S    
C26   H11   S    
C13   H28   S    
C20   C24   S    
C8    C9    S    
C19   C27   S    
C26   H14   S    
C2    C34   A    
N1    Zn2   S    
C11   N1    A    
C24   C30   S    
C27   H20   S    
C22   C31   T    
C16   O5    A    
C20   I3    S    
C10   C14   A    
C25   C26   S    
C1    O1    A    
C23   C31   S    
C24   C32   S    
C29   C30   S    
C12   H1    S    
O7    Zn1   S    
C12   H22   S    
C26   H13   S    
C8    I2    S    
C21   H7    S    
C29   H23   S    
C21   C23   S    
C29   H10   S    
C9    C34   S    
C7    C34   A    
C9    H27   S    
C30   H9    S    
C15   H2    S    
O3    Zn1   S    
N2    Zn1   S    
C15   C17   S    
C4    C33   S    
C18   O8    A    
C18   C22   S    
C3    C5    A    
C28   H19   S    
C6    C7    A    
C3    I1    S    
C1    O2    A    
C9    H26   S    
C32   C33   T    
C2    C3    A    
C11   C13   A    
C21   H6    S    
C12   C19   S    
C19   C24   S    
C17   H4    S    
C25   H15   S    
C6    C16   S    
C20   C21   S    
O6    Zn2   S    
C27   C28   S    
C14   N2    A    
C14   C15   S    
C30   H8    S    
C4    O3    A    
C13   N2    A    
