data_mof_unit_53185.cif
_audit_creation_date              2012-12-11T19:09:14-0500
_audit_creation_method            fapswitch 2.2
_symmetry_space_group_name_H-M    P1
_symmetry_Int_Tables_number       1
_space_group_crystal_system       triclinic
_cell_length_a                    8.24415
_cell_length_b                    15.055262
_cell_length_c                    26.921734
_cell_angle_alpha                 98.820515
_cell_angle_beta                  93.079793
_cell_angle_gamma                 81.08416
_cell_volume                      3260.51574539

loop_
_atom_site_label
_atom_site_type_symbol
_atom_type_description
_atom_site_fract_x
_atom_site_fract_y
_atom_site_fract_z
_atom_type_partial_charge
Ba1   Ba    Ba6+2 0.860050 0.456430 0.522540 1.227308
Ba2   Ba    Ba6+2 0.329780 0.543490 0.477450 1.274217
C1    C     C_3   0.734589 0.133717 0.649708 -0.283861
C2    C     C_R   0.962816 0.595409 0.186454 0.603385
C3    C     C_2   0.763029 0.570114 0.274220 -0.114721
C4    C     C_3   0.093657 0.267914 0.652757 0.238945
C5    C     C_3   0.734152 0.593310 0.329971 -0.020918
C6    C     C_1   0.983526 0.485706 0.343348 0.080006
C7    C     C_2   0.023578 0.478180 0.295336 -0.023684
C8    C     C_2   0.907126 0.521113 0.257808 0.231078
C9    C     C_R   0.021737 0.509369 0.103104 -0.115495
C10   C     C_R   0.013210 0.428952 0.122921 -0.110414
C11   C     C_R   0.030511 0.346372 0.090237 -0.009705
C12   C     C_3   0.655487 0.226733 0.637553 0.398860
C13   C     C_R   0.995454 0.593172 0.135178 0.011526
C14   C     C_2   0.846549 0.534568 0.361743 -0.258799
C15   C     C_2   0.347676 0.476056 0.641154 -0.381966
C16   C     C_3   0.093272 0.245722 0.706067 -0.289058
C17   C     C_R   0.142978 0.419538 0.969546 -0.016617
C18   C     C_R   0.073589 0.585909 0.978522 0.011349
C19   C     C_R   0.126149 0.501510 0.948417 0.090749
C20   C     C_R   0.223581 0.340034 0.940898 0.021752
C21   C     C_R   0.264424 0.338289 0.891053 -0.037535
C22   C     C_R   0.232793 0.417015 0.868072 -0.068617
C23   C     C_3   0.482706 0.684146 0.631630 0.314557
C24   C     C_R   0.165813 0.499273 0.897015 -0.056198
C25   C     C_R   0.140775 0.579516 0.874872 -0.043313
C26   C     C_R   0.180538 0.576249 0.823987 0.632692
C27   C     C_R   0.272418 0.415869 0.817375 0.720073
C28   C     C_3   0.196471 0.255769 0.405152 0.185068
C29   C     C_2   0.452102 0.476031 0.730366 0.374684
C30   C     C_3   0.494130 0.482280 0.676583 0.008429
C31   C     C_1   0.203510 0.516320 0.657386 0.080274
C32   C     C_2   0.162212 0.516642 0.704572 -0.170065
C33   C     C_2   0.292009 0.493611 0.743952 0.132333
C34   C     C_3   0.478944 0.712010 0.688480 0.202459
C35   C     C_R   0.088599 0.421046 0.019473 0.004812
C36   C     C_R   0.054991 0.506235 0.051112 0.036344
C37   C     C_R   0.051569 0.588645 0.031037 0.035250
C38   C     C_R   0.061668 0.341938 0.039225 0.328192
C39   C     C_R   0.001250 0.673380 0.115339 -0.021607
C40   C     C_3   0.202899 0.155013 0.381918 0.339675
C41   C     C_R   0.046196 0.664940 0.954935 -0.093080
C42   C     C_R   0.077952 0.661564 0.904240 -0.022490
C43   C     C_R   0.027631 0.671351 0.064480 -0.084576
C44   C     C_R   0.343666 0.173654 0.528281 0.053651
C45   C     C_3   0.969793 0.762055 0.344893 0.343921
C46   C     C_R   0.573491 0.208213 0.486655 0.075940
C47   C     C_R   0.760274 0.769907 0.485089 -0.198187
C48   C     C_R   0.844835 0.828114 0.464796 0.075609
C49   C     C_R   0.780610 0.920212 0.467228 -0.079251
C50   C     C_R   0.633370 0.956623 0.492931 0.080590
C51   C     C_R   0.553137 0.896321 0.515663 -0.053044
C52   C     C_3   0.000006 0.745325 0.594165 0.283650
C53   C     C_R   0.565875 0.051042 0.498498 0.041430
C54   C     C_R   0.415725 0.081533 0.524167 0.021908
C55   C     C_R   0.341172 0.019886 0.545576 0.005398
C56   C     C_3   0.870053 0.831548 0.315320 0.294929
C57   C     C_R   0.410702 0.930186 0.542642 -0.039229
C58   C     C_R   0.641804 0.116470 0.479553 -0.111564
C59   C     C_R   0.426639 0.236345 0.511251 -0.282449
C60   C     C_R   0.617992 0.803180 0.511452 0.061564
C61   C     C_3   0.039192 0.840008 0.615408 0.165776
C62   C     C_3   0.692064 0.345128 0.372131 0.314294
C63   C     C_3   0.679187 0.327573 0.314880 0.263322
C64   C     C_3   0.469473 0.785681 0.366337 0.382221
C65   C     C_3   0.418036 0.875215 0.346232 -0.244003
C66   C     C_R   0.978272 0.433298 0.174438 0.645494
Cl1   Cl    Cl    0.161128 0.085552 0.426150 -0.707626
Cl2   Cl    Cl    0.973231 0.921122 0.574543 -0.772229
Cl3   Cl    Cl    0.836019 0.239149 0.290189 -0.542639
Cl4   Cl    Cl    0.682617 0.704828 0.715038 -0.567400
Cl5   Cl    Cl    0.999204 0.876472 0.277546 -0.511836
Cl6   Cl    Cl    0.612394 0.464390 0.776207 -0.587937
Cl7   Cl    Cl    0.028945 0.239109 0.001447 -0.650197
H1    H     H_    0.696019 0.230416 0.599308 0.072939
H2    H     H_    0.692285 0.390175 0.299422 0.000687
H3    H     H_    0.557117 0.308150 0.302547 0.083083
H4    H     H_    0.679462 0.079244 0.625046 0.132216
H5    H     H_    0.356229 0.675851 0.617659 -0.065186
H6    H     H_    0.565030 0.618310 0.622817 0.072867
H7    H     H_    0.414679 0.782738 0.697629 0.101338
H8    H     H_    0.411203 0.666809 0.705597 0.031461
H9    H     H_    0.715990 0.128064 0.689601 0.140563
H10   H     H_    0.219390 0.219542 0.718747 0.153316
H11   H     H_    0.043224 0.708598 0.318655 0.155702
H12   H     H_    0.104422 0.149104 0.352270 0.205841
H13   H     H_    0.882079 0.728657 0.362501 -1.283432
H14   H     H_    0.778143 0.798539 0.290329 0.072531
H15   H     H_    0.804037 0.888010 0.341636 0.061485
H16   H     H_    0.605638 0.774863 0.369487 -0.107432
H17   H     H_    0.420057 0.791827 0.404484 0.100952
H18   H     H_    0.473007 0.929880 0.370696 0.097399
H19   H     H_    0.282688 0.893733 0.346053 0.238877
H20   H     H_    0.968183 0.291374 0.640386 0.134439
H21   H     H_    0.461573 0.869818 0.307411 0.151740
H22   H     H_    0.141383 0.440949 0.282868 0.122166
H23   H     H_    0.867474 0.749468 0.584120 0.042510
H24   H     H_    0.012459 0.284617 0.103873 0.185080
H25   H     H_    0.323931 0.274888 0.870767 0.140428
H26   H     H_    0.264874 0.279169 0.957265 0.149060
H27   H     H_    0.677550 0.603084 0.248202 0.131384
H28   H     H_    0.983825 0.738811 0.139152 0.169743
H29   H     H_    0.996245 0.730577 0.974548 0.099003
H30   H     H_    0.168888 0.323024 0.653121 0.043539
H31   H     H_    0.054815 0.724282 0.888229 0.149188
H32   H     H_    0.036166 0.538505 0.715704 0.196473
H33   H     H_    0.033125 0.736015 0.052634 0.098172
H34   H     H_    0.073002 0.717904 0.560375 0.077101
H35   H     H_    0.826172 0.545933 0.401848 0.111250
H36   H     H_    0.362517 0.444649 0.602240 0.116218
H37   H     H_    0.373533 0.307358 0.515474 0.089952
H38   H     H_    0.228419 0.039850 0.565574 0.162221
H39   H     H_    0.753358 0.098702 0.458920 0.125953
H40   H     H_    0.811311 0.698817 0.483214 0.073639
H41   H     H_    0.851415 0.961482 0.450397 0.130708
H42   H     H_    0.046095 0.308126 0.731911 0.144711
H43   H     H_    0.348231 0.887804 0.561529 0.140934
H44   H     H_    0.013776 0.193563 0.708082 0.136477
H45   H     H_    0.976631 0.864320 0.651585 0.130005
H46   H     H_    0.318487 0.269301 0.420757 -0.000915
H47   H     H_    0.106228 0.273276 0.435318 0.115236
H48   H     H_    0.454147 0.121849 0.386808 0.187735
H49   H     H_    0.382476 0.158876 0.332605 0.218523
H50   H     H_    0.441448 0.242768 0.674385 0.218459
H51   H     H_    0.426738 0.287592 0.620519 0.116144
H52   H     H_    0.173634 0.836989 0.622668 0.062404
H53   H     H_    0.816279 0.360022 0.384244 0.002751
H54   H     H_    0.600012 0.405166 0.384910 0.031215
H55   H     H_    0.867887 0.122801 0.642553 0.145305
N1    N     N_R   0.951976 0.516123 0.205538 -0.433097
N2    N     N_R   0.246661 0.495074 0.795851 -0.399726
N3    N     N_3   0.360785 0.118268 0.359064 -0.451598
N4    N     N_3   0.478314 0.231153 0.637119 -0.500782
O1    O     O_2   0.906490 0.548660 0.619040 -0.406434
O2    O     O_2   0.183982 0.825160 0.472784 -0.411067
O3    O     O_3   0.077370 0.805100 0.379570 -0.553944
O4    O     O_3   0.138490 0.548590 0.558860 -0.467720
O5    O     O_3   0.572560 0.389970 0.472910 -0.472910
O6    O     O_2   0.345680 0.723560 0.528460 -0.452476
O7    O     O_3   0.538956 0.752298 0.610025 -0.616105
O8    O     O_2   0.417342 0.536996 0.323235 -0.465336
O9    O     O_3   0.408576 0.714511 0.334012 -0.534001
O10   O     O_2   0.968823 0.363480 0.191324 -0.520482
O11   O     O_2   0.330265 0.344310 0.792417 -0.605731
O12   O     O_3   0.662117 0.268005 0.391398 -0.604083
O13   O     O_2   0.944206 0.668229 0.214217 -0.545872
O14   O     O_2   0.158536 0.646011 0.804970 -0.530545
O15   O     O_3   0.686290 0.382320 0.585720 -0.483115
O16   O     O_2   0.831024 0.440720 0.671978 -0.438453
O17   O     O_3   0.035990 0.692931 0.633027 -0.610386
O18   O     O_3   0.704333 0.295736 0.674409 -0.576832
O19   O     O_2   0.844020 0.276410 0.471510 -0.433881
O20   O     O_3   0.101490 0.335510 0.560360 -0.493487
O21   O     O_2   0.000817 0.174360 0.531605 -0.412445
O22   O     O_3   0.154480 0.190276 0.619781 -0.613036
O23   O     O_2   0.283210 0.451320 0.380930 -0.440344
O24   O     O_3   0.051220 0.451340 0.441130 -0.471178
O25   O     O_3   0.503420 0.617610 0.414270 -0.451427
O26   O     O_3   0.150273 0.307180 0.366419 -0.611842
O27   O     O_3   0.617160 0.609950 0.527080 -0.439935
O28   O     O_3   0.088220 0.664410 0.439630 -0.441788
P1    P     P_3+3 0.071960 0.575810 0.612130 1.039844
P2    P     P_3+3 0.664360 0.290070 0.457280 1.038336
P3    P     P_3+3 0.146155 0.217979 0.558554 0.999810
P4    P     P_3+3 0.117760 0.424110 0.387870 1.067694
P5    P     P_3+3 0.048892 0.782093 0.439982 1.083156
P6    P     P_3+3 0.674859 0.400817 0.651558 0.939994
P7    P     P_3+3 0.532179 0.723628 0.544559 0.947757
P8    P     P_3+3 0.515432 0.611882 0.349235 1.035902

loop_
_geom_bond_atom_site_label_1
_geom_bond_atom_site_label_2
_ccdc_geom_bond_type
H50   N4    S    
C53   C54   A    
O6    P7    D    
O25   P8    S    
C66   N1    Am   
C23   H5    S    
C58   H39   S    
C19   C24   A    
C1    H4    S    
Ba2   O28   S    
C51   C57   A    
C14   H35   S    
C28   O26   S    
C10   C11   A    
C10   C66   A    
C24   C25   A    
C20   H26   S    
H49   N3    S    
H48   N3    S    
C40   N3    S    
C32   H32   S    
O5    P2    S    
C17   C19   A    
C22   C24   A    
C32   C33   S    
C35   C38   A    
C27   O11   D    
C36   C37   A    
C55   C57   A    
C27   N2    Am   
C52   C61   S    
C34   H8    S    
C1    H55   S    
C54   C55   A    
Ba1   Ba2   S    
C41   H29   S    
C11   C38   A    
C17   C35   A    
C22   C27   A    
C9    C13   A    
C25   C42   A    
C28   H47   S    
Ba1   P2    S    
C34   H7    S    
C6    C7    D    
C62   H53   S    
C65   H19   S    
C21   C22   A    
C61   Cl2   S    
O20   P3    S    
Ba1   O15   S    
O4    P1    S    
C63   H3    S    
O26   P4    S    
C7    C8    S    
Ba2   P4    S    
Ba1   O5    S    
C43   H33   S    
C37   C43   A    
O27   P7    S    
C21   H25   S    
Ba1   O27   S    
C6    C14   D    
C53   C58   A    
C23   H6    S    
O15   P6    S    
C15   C31   D    
C15   H36   S    
Ba2   O27   S    
O18   P6    S    
C46   C58   A    
C2    N1    Am   
C4    C16   S    
C26   O14   D    
C16   H10   S    
C63   H2    S    
O19   P2    D    
C49   C50   A    
Ba2   O4    S    
C45   H11   S    
C17   C20   A    
C13   C39   A    
C3    C5    S    
C18   C37   A    
Ba2   O25   S    
C29   Cl6   S    
C64   H17   S    
C64   O9    S    
C44   C59   A    
C63   Cl3   S    
C2    O13   D    
O12   P2    S    
C40   Cl1   S    
C39   H28   S    
C52   H34   S    
C26   N2    Am   
C12   H1    S    
C11   H24   S    
C9    C36   A    
C41   C42   A    
C35   C36   A    
C51   C60   A    
C29   C30   S    
C28   H46   S    
Ba2   O24   S    
O16   P6    D    
C45   O3    S    
O7    P7    S    
C48   C49   A    
C62   H54   S    
Ba1   O19   S    
C56   H15   S    
C16   H42   S    
H51   N4    S    
C52   O17   S    
C1    C12   S    
C6    P4    S    
C5    C14   S    
C47   H40   S    
C47   C48   A    
C44   P3    S    
O17   P1    S    
C30   P6    S    
C65   H21   S    
C29   C33   D    
Ba2   O5    S    
C12   O18   S    
O3    P5    S    
C18   C41   A    
C50   C51   A    
O24   P4    S    
C60   P7    S    
C3    H27   S    
Ba1   O24   S    
C7    H22   S    
C47   C60   A    
C62   O12   S    
O1    P1    D    
C23   O7    S    
C8    N1    S    
O9    P8    S    
O23   P4    D    
C66   O10   D    
C55   H38   S    
C9    C10   A    
C50   C53   A    
C64   H16   S    
C46   P2    S    
O2    P5    D    
C42   H31   S    
C57   H43   S    
C12   N4    S    
C49   H41   S    
C38   Cl7   S    
O8    P8    D    
Ba2   O6    S    
C62   C63   S    
C2    C13   A    
C3    C8    D    
C45   H13   S    
C45   C56   S    
C61   H45   S    
C46   C59   A    
O22   P3    S    
O21   P3    D    
Ba2   O23   S    
C33   N2    S    
C31   P1    S    
C4    H30   S    
C31   C32   D    
C64   C65   S    
C28   C40   S    
Ba1   O20   S    
C56   H14   S    
C4    O22   S    
C1    H9    S    
C23   C34   S    
O28   P5    S    
C18   C19   A    
Ba1   P1    S    
C4    H20   S    
C5    P8    S    
C44   C54   A    
C48   P5    S    
C65   H18   S    
C15   C30   S    
C39   C43   A    
C20   C21   A    
C52   H23   S    
C40   H12   S    
Ba1   O1    S    
C59   H37   S    
C16   H44   S    
C61   H52   S    
Ba1   O4    S    
C34   Cl4   S    
C56   Cl5   S    
C25   C26   A    
