data_mof_unit_55732.cif
_audit_creation_date              2012-12-10T16:52:04-0500
_audit_creation_method            fapswitch 2.2
_symmetry_space_group_name_H-M    P1
_symmetry_Int_Tables_number       1
_space_group_crystal_system       triclinic
_cell_length_a                    7.922647
_cell_length_b                    8.680533
_cell_length_c                    14.850102
_cell_angle_alpha                 92.095709
_cell_angle_beta                  84.790368
_cell_angle_gamma                 92.954047
_cell_volume                      1015.19054678

loop_
_atom_site_label
_atom_site_type_symbol
_atom_type_description
_atom_site_fract_x
_atom_site_fract_y
_atom_site_fract_z
_atom_type_partial_charge
C1    C     C_R   0.544064 0.793103 0.498399 0.922444
C2    C     C_R   0.455910 0.206904 0.501590 0.920853
C3    C     C_R   0.622318 0.767424 0.950230 -0.040394
C4    C     C_R   0.351647 0.245965 0.051531 -0.042370
C5    C     C_2   0.567355 0.955374 0.502155 -0.032232
C6    C     C_2   0.432522 0.044618 0.497939 -0.049334
C7    C     C_R   0.500139 0.498205 0.672140 0.879825
C8    C     C_R   0.499896 0.502810 0.327890 0.891780
C9    C     C_R   0.436350 0.377838 0.188795 -0.252462
C10   C     C_R   0.556308 0.628468 0.811334 -0.251248
C11   C     C_R   0.498307 0.509068 0.232792 -0.153776
C12   C     C_R   0.500147 0.494873 0.767414 -0.147056
C13   C     C_R   0.545894 0.645732 0.187988 -0.045285
C14   C     C_R   0.438686 0.363378 0.813535 -0.035023
C15   C     C_R   0.545039 0.644176 0.093736 0.044745
C16   C     C_R   0.428949 0.368986 0.908066 0.041129
C17   C     C_R   0.484123 0.508986 0.047992 0.052379
C18   C     C_R   0.489355 0.504555 0.953656 0.055551
C19   C     C_R   0.420843 0.377258 0.096655 0.066553
C20   C     C_R   0.557963 0.634336 0.904666 0.063285
C21   C     C_R   0.611566 0.771621 0.044247 -0.165019
C22   C     C_R   0.360218 0.242409 0.957619 -0.176464
H1    H     H_    0.402976 0.276003 0.227787 0.176506
H2    H     H_    0.595451 0.727891 0.771268 0.172282
H3    H     H_    0.664035 0.873217 0.078211 0.188353
H4    H     H_    0.309373 0.140150 0.923643 0.193307
N1    N     N_2   0.950330 0.457950 0.475660 0.015797
N2    N     N_2   0.049670 0.542050 0.524340 0.016130
O1    O     O_R   0.389250 0.738570 0.505970 -0.584332
O2    O     O_R   0.610750 0.261430 0.494030 -0.574295
O3    O     O_R   0.678390 0.711620 0.490370 -0.638633
O4    O     O_R   0.321610 0.288380 0.509630 -0.656779
O5    O     O_R   0.355420 0.513510 0.639950 -0.623408
O6    O     O_R   0.644580 0.486490 0.360050 -0.601310
O7    O     O_R   0.644560 0.486560 0.624350 -0.623350
O8    O     O_R   0.355440 0.513440 0.375650 -0.638903
Zn1   Zn    Zn3+2 0.306940 0.517990 0.510420 0.965992
Zn2   Zn    Zn3+2 0.693060 0.482010 0.489580 0.981285
C23   C     C_2   0.593665 0.788411 0.239933 0.865813
O9    O     O_2   0.714651 0.790696 0.285450 -0.664368
O10   O     O_R   0.500134 0.919857 0.236022 -0.794246
H5    H     H_    0.544052 0.009591 0.274360 0.321041
C24   C     C_2   0.392968 0.219930 0.762254 0.879900
O11   O     O_2   0.243877 0.179311 0.757671 -0.662513
O12   O     O_R   0.521859 0.130826 0.720911 -0.793488
H6    H     H_    0.476448 0.030992 0.692656 0.319486
C25   C     C_2   0.709694 0.901243 0.902705 0.924974
O13   O     O_2   0.683454 0.032614 0.931187 -0.605517
O14   O     O_R   0.828251 0.877322 0.828423 -0.816368
H7    H     H_    0.879885 0.977474 0.802706 0.371094
C26   C     C_2   0.263947 0.112756 0.099610 0.954995
O15   O     O_2   0.281034 0.981516 0.068448 -0.595055
O16   O     O_R   0.155380 0.137549 0.177920 -0.826893
H8    H     H_    0.102346 0.037947 0.203702 0.357794
N3    N     N_2   0.733407 0.017174 0.516066 -0.280336
H9    H     H_    0.785790 0.970193 0.569132 0.221167
C27   C     C_3   0.846976 0.029759 0.434452 -0.624659
H10   H     H_    0.949666 0.116073 0.447276 0.218408
H11   H     H_    0.780671 0.070800 0.377672 0.249324
H12   H     H_    0.902148 0.916997 0.415061 0.252611
N4    N     N_2   0.265379 0.982855 0.486684 -0.291527
H13   H     H_    0.210421 0.029542 0.434396 0.218736
C28   C     C_3   0.155991 0.972363 0.569983 -0.635380
H14   H     H_    0.049092 0.889658 0.558820 0.220974
H15   H     H_    0.106639 0.086782 0.591174 0.251225
H16   H     H_    0.224015 0.927530 0.625003 0.250890
N5    N     N_2   0.024078 0.399173 0.395010 -0.244562
H17   H     H_    0.126770 0.332251 0.396722 0.245273
C29   C     C_3   0.003415 0.484568 0.315146 -0.513380
H18   H     H_    0.127089 0.507089 0.275864 0.221586
H19   H     H_    0.947640 0.597548 0.333309 0.256493
H20   H     H_    0.921626 0.414809 0.270674 0.234313
N6    N     N_2   0.976017 0.600271 0.605143 -0.243249
H21   H     H_    0.873625 0.667642 0.603611 0.241033
C30   C     C_3   0.996826 0.514350 0.684827 -0.505460
H22   H     H_    0.872986 0.490581 0.723750 0.226203
H23   H     H_    0.077550 0.584400 0.729718 0.230963
H24   H     H_    0.054129 0.401968 0.666551 0.246181

loop_
_geom_bond_atom_site_label_1
_geom_bond_atom_site_label_2
_ccdc_geom_bond_type
N3    H9    S    
C28   H15   S    
C7    O5    A    
O10   H5    S    
C24   O11   D    
C25   O14   S    
O16   H8    S    
C1    C5    S    
C6    N4    S    
O8    Zn1   S    
C29   H18   S    
C8    O8    A    
C5    C6    D    
C27   H11   S    
N1    Zn2   S    
C1    O3    A    
O2    Zn2   S    
C2    O4    A    
N6    H21   S    
C30   H23   S    
C4    C19   A    
C9    C19   A    
C10   C20   A    
C9    C11   A    
C28   H16   S    
N6    C30   S    
C2    C6    S    
N2    N6    S    
C7    C12   S    
C29   H19   S    
C4    C26   S    
N5    H17   S    
O7    Zn2   S    
C23   O10   S    
C23   O9    D    
C9    H1    S    
C27   H12   S    
C10   H2    S    
O12   H6    S    
O5    Zn1   S    
C26   O15   D    
N5    C29   S    
C29   H20   S    
C30   H22   S    
C4    C22   A    
C25   O13   D    
C1    O1    A    
C17   C18   A    
C3    C20   A    
C8    O6    A    
O4    Zn1   S    
C24   O12   S    
C10   C12   A    
C12   C14   A    
C13   C15   A    
C14   C16   A    
C3    C21   A    
C15   C17   A    
C21   H3    S    
C16   C22   A    
O6    Zn2   S    
C7    O7    A    
C5    N3    S    
N4    C28   S    
O3    Zn2   S    
C2    O2    A    
N3    C27   S    
C11   C13   A    
C27   H10   S    
N2    Zn1   S    
C8    C11   S    
C3    C25   S    
C17   C19   A    
C18   C20   A    
N4    H13   S    
C30   H24   S    
C13   C23   S    
N1    N5    S    
C28   H14   S    
C15   C21   A    
C16   C18   A    
O14   H7    S    
C22   H4    S    
O1    Zn1   S    
N1    N2    D    
C26   O16   S    
C14   C24   S    
