data_mof_unit_32439.cif
_audit_creation_date              2012-12-11T14:07:22-0500
_audit_creation_method            fapswitch 2.2
_symmetry_space_group_name_H-M    P1
_symmetry_Int_Tables_number       1
_space_group_crystal_system       triclinic
_cell_length_a                    19.727419
_cell_length_b                    17.046666
_cell_length_c                    15.326825
_cell_angle_alpha                 90.339584
_cell_angle_beta                  53.339637
_cell_angle_gamma                 89.695205
_cell_volume                      4134.32345129

loop_
_atom_site_label
_atom_site_type_symbol
_atom_type_description
_atom_site_fract_x
_atom_site_fract_y
_atom_site_fract_z
_atom_type_partial_charge
C1    C     C_R   0.339485 0.174698 0.051546 -0.110010
C2    C     C_R   0.375297 0.802659 0.994909 -0.113689
C3    C     C_R   0.839485 0.674698 0.051547 -0.110007
C4    C     C_R   0.875302 0.302658 0.994906 -0.113693
C5    C     C_R   0.633765 0.895152 0.105156 -0.139133
C6    C     C_R   0.669390 0.082693 0.050595 -0.062986
C7    C     C_R   0.133766 0.395152 0.105154 -0.139141
C8    C     C_R   0.169397 0.582689 0.050581 -0.062958
C9    C     C_R   0.709939 0.147032 0.982234 0.115183
C10   C     C_R   0.651270 0.816493 0.073068 0.137673
C11   C     C_R   0.209949 0.647024 0.982210 0.115172
C12   C     C_R   0.151273 0.316494 0.073063 0.137664
C13   C     C_R   0.690207 0.859244 0.676491 -0.005787
C14   C     C_R   0.610270 0.181250 0.694811 0.004316
C15   C     C_R   0.190201 0.359248 0.676479 -0.005782
C16   C     C_R   0.110255 0.681256 0.694820 0.004311
C17   C     C_3   0.261564 0.217312 0.445561 -0.404834
C18   C     C_3   0.179195 0.861796 0.514805 -0.367318
C19   C     C_3   0.761543 0.717422 0.445464 -0.404771
C20   C     C_3   0.679189 0.361784 0.514791 -0.367309
C21   C     C_3   0.202302 0.261167 0.553131 -0.386642
C22   C     C_3   0.126246 0.814359 0.620205 -0.425070
C23   C     C_3   0.702269 0.761358 0.552962 -0.386562
C24   C     C_3   0.626270 0.314354 0.620201 -0.425053
C25   C     C_3   0.374628 0.220801 0.474981 -0.333510
C26   C     C_3   0.305902 0.771841 0.454294 -0.371532
C27   C     C_3   0.874504 0.720645 0.475086 -0.333476
C28   C     C_3   0.805911 0.271856 0.454302 -0.371483
C29   C     C_3   0.866921 0.828009 0.369742 -0.375990
C30   C     C_3   0.710753 0.242456 0.400517 -0.400505
C31   C     C_3   0.366791 0.328024 0.369692 -0.376058
C32   C     C_3   0.210725 0.742475 0.400532 -0.400473
C33   C     C_3   0.354842 0.238824 0.392795 0.369245
C34   C     C_3   0.252618 0.809825 0.421190 0.415649
C35   C     C_3   0.854835 0.738807 0.392815 0.369147
C36   C     C_3   0.752626 0.309820 0.421184 0.415665
C37   C     C_3   0.752871 0.817488 0.573574 0.397120
C38   C     C_3   0.657729 0.228154 0.596351 0.388188
C39   C     C_3   0.252868 0.317502 0.573554 0.397153
C40   C     C_3   0.157714 0.728161 0.596360 0.388210
C41   C     C_3   0.816504 0.769253 0.580109 -0.451452
C42   C     C_3   0.750471 0.223876 0.556266 -0.410746
C43   C     C_3   0.316696 0.269497 0.579943 -0.451440
C44   C     C_3   0.250455 0.723894 0.556285 -0.410731
C45   C     C_R   0.352467 0.825956 0.218096 -0.212721
C46   C     C_R   0.404974 0.201085 0.204438 -0.242668
C47   C     C_R   0.852469 0.325955 0.218093 -0.212738
C48   C     C_R   0.904973 0.701084 0.204447 -0.242664
C49   C     C_3   0.804675 0.874554 0.475977 -0.409404
C50   C     C_3   0.652698 0.195523 0.505100 -0.394224
C51   C     C_3   0.304453 0.374551 0.475900 -0.409527
C52   C     C_3   0.152691 0.695525 0.505104 -0.394228
C53   C     C_2   0.282948 0.686069 0.962284 -0.194523
C54   C     C_2   0.191544 0.260191 0.099757 -0.194707
C55   C     C_2   0.782932 0.186076 0.962322 -0.194498
C56   C     C_2   0.691542 0.760190 0.099760 -0.194704
C57   C     C_2   0.809835 0.253258 0.906626 -0.200502
C58   C     C_2   0.710846 0.687685 0.055729 -0.199989
C59   C     C_2   0.309824 0.753266 0.906629 -0.200498
C60   C     C_2   0.210847 0.187685 0.055727 -0.199989
C61   C     C_R   0.365434 0.888799 0.896514 -0.164019
C62   C     C_R   0.328919 0.086753 0.953296 -0.150132
C63   C     C_R   0.865437 0.388798 0.896513 -0.164022
C64   C     C_R   0.828919 0.586753 0.953297 -0.150131
C65   C     C_R   0.424547 0.112952 0.291679 0.543414
C66   C     C_R   0.360556 0.917127 0.316860 0.448249
C67   C     C_R   0.924548 0.612944 0.291679 0.543414
C68   C     C_R   0.860557 0.417126 0.316858 0.448262
C69   C     C_R   0.286688 0.148070 0.027553 0.140808
C70   C     C_R   0.347150 0.812747 0.932980 0.150693
C71   C     C_R   0.786687 0.648070 0.027553 0.140806
C72   C     C_R   0.847155 0.312745 0.932978 0.150699
C73   C     C_R   0.312111 0.855430 0.322571 -0.144607
C74   C     C_R   0.407152 0.191159 0.291737 -0.120603
C75   C     C_R   0.812115 0.355427 0.322567 -0.144595
C76   C     C_R   0.907142 0.691147 0.291752 -0.120590
C77   C     C_R   0.659596 0.177981 0.955274 -0.116806
C78   C     C_R   0.623959 0.800135 0.010883 -0.130435
C79   C     C_R   0.159603 0.677971 0.955255 -0.116801
C80   C     C_R   0.123964 0.300136 0.010877 -0.130420
C81   C     C_R   0.649119 0.826535 0.779406 -0.136177
C82   C     C_R   0.601569 0.197938 0.789567 -0.147123
C83   C     C_R   0.149117 0.326530 0.779391 -0.136172
C84   C     C_R   0.101560 0.697940 0.789573 -0.147115
C85   C     C_R   0.591582 0.104076 0.696316 -0.150452
C86   C     C_R   0.640285 0.920281 0.684042 -0.135683
C87   C     C_R   0.091573 0.604081 0.696321 -0.150473
C88   C     C_R   0.140280 0.420288 0.684043 -0.135699
H1    H     H_    0.329782 0.223276 0.103231 0.089221
H2    H     H_    0.384802 0.747587 0.020800 0.080019
H3    H     H_    0.829782 0.723276 0.103231 0.089215
H4    H     H_    0.884816 0.247586 0.020790 0.080023
H5    H     H_    0.244566 0.232514 0.390216 0.165261
H6    H     H_    0.138263 0.882306 0.491731 0.148764
H7    H     H_    0.744645 0.732645 0.390018 0.165209
H8    H     H_    0.638239 0.382253 0.491722 0.148767
H9    H     H_    0.654654 0.794734 0.550681 0.159330
H10   H     H_    0.558372 0.317280 0.653625 0.158303
H11   H     H_    0.154489 0.294362 0.551074 0.159352
H12   H     H_    0.058358 0.817279 0.653583 0.158314
H13   H     H_    0.167507 0.218065 0.620278 0.163223
H14   H     H_    0.132174 0.840974 0.681768 0.163303
H15   H     H_    0.667234 0.718298 0.620133 0.163181
H16   H     H_    0.632238 0.340969 0.681730 0.163331
H17   H     H_    0.363227 0.157862 0.497632 0.221454
H18   H     H_    0.338551 0.815951 0.469898 0.218274
H19   H     H_    0.863087 0.657685 0.497630 0.221462
H20   H     H_    0.838521 0.315984 0.469953 0.218283
H21   H     H_    0.783590 0.728262 0.649647 0.160710
H22   H     H_    0.756389 0.246659 0.619728 0.164513
H23   H     H_    0.283954 0.228600 0.649586 0.160663
H24   H     H_    0.256370 0.746709 0.619737 0.164537
H25   H     H_    0.933021 0.844373 0.335006 0.159927
H26   H     H_    0.759378 0.201191 0.336629 0.154136
H27   H     H_    0.432855 0.344496 0.334984 0.159953
H28   H     H_    0.259336 0.701215 0.336623 0.154127
H29   H     H_    0.855227 0.844467 0.309714 0.147331
H30   H     H_    0.674014 0.266475 0.372838 0.166539
H31   H     H_    0.355094 0.344393 0.309646 0.147308
H32   H     H_    0.173968 0.766511 0.372891 0.166548
H33   H     H_    0.762531 0.909257 0.464986 0.150109
H34   H     H_    0.586456 0.198737 0.531782 0.168634
H35   H     H_    0.262161 0.409007 0.464937 0.150212
H36   H     H_    0.086446 0.698713 0.531790 0.168612
H37   H     H_    0.839849 0.916611 0.490777 0.155992
H38   H     H_    0.673983 0.133169 0.485727 0.153303
H39   H     H_    0.339520 0.416820 0.490605 0.155958
H40   H     H_    0.174000 0.633177 0.485719 0.153311
H41   H     H_    0.441874 0.233742 0.438247 0.185409
H42   H     H_    0.356115 0.733190 0.387180 0.152295
H43   H     H_    0.941733 0.733570 0.438471 0.185498
H44   H     H_    0.856160 0.233230 0.387174 0.152283
H45   H     H_    0.335712 0.775510 0.192480 0.124419
H46   H     H_    0.401358 0.256363 0.173297 0.122199
H47   H     H_    0.835713 0.275509 0.192478 0.124422
H48   H     H_    0.901330 0.756368 0.173338 0.122195
H49   H     H_    0.854898 0.809234 0.591918 0.164897
H50   H     H_    0.773474 0.161838 0.538656 0.160394
H51   H     H_    0.355125 0.309644 0.591480 0.164943
H52   H     H_    0.273458 0.661856 0.538713 0.160383
H53   H     H_    0.302853 0.667282 0.011280 0.125075
H54   H     H_    0.218493 0.283706 0.138527 0.123457
H55   H     H_    0.802809 0.167300 0.011356 0.125063
H56   H     H_    0.718491 0.783706 0.138531 0.123455
H57   H     H_    0.792147 0.270957 0.854881 0.128285
H58   H     H_    0.682030 0.663199 0.019902 0.124888
H59   H     H_    0.292112 0.770979 0.854918 0.128293
H60   H     H_    0.182031 0.163199 0.019900 0.124888
H61   H     H_    0.361303 0.914377 0.835380 0.105072
H62   H     H_    0.307584 0.052552 0.914449 0.103532
H63   H     H_    0.861306 0.414374 0.835378 0.105068
H64   H     H_    0.807583 0.552552 0.914450 0.103531
H65   H     H_    0.669449 0.229089 0.907976 0.091906
H66   H     H_    0.617612 0.743712 0.984256 0.086058
H67   H     H_    0.169460 0.729070 0.907943 0.091904
H68   H     H_    0.117620 0.243713 0.984243 0.086060
H69   H     H_    0.667078 0.775147 0.802219 0.095047
H70   H     H_    0.606383 0.254567 0.817452 0.088791
H71   H     H_    0.167078 0.275128 0.802179 0.095023
H72   H     H_    0.106373 0.754569 0.817460 0.088788
H73   H     H_    0.582566 0.073508 0.642086 0.097939
H74   H     H_    0.649447 0.955017 0.619356 0.092940
H75   H     H_    0.082554 0.573515 0.642092 0.097941
H76   H     H_    0.149444 0.455047 0.619374 0.092971
H77   H     H_    0.637862 0.922616 0.165635 0.131462
H78   H     H_    0.690797 0.048989 0.089533 0.107073
H79   H     H_    0.137862 0.422615 0.165635 0.131470
H80   H     H_    0.190807 0.548984 0.089514 0.107071
H81   H     H_    0.252168 0.153029 0.460258 0.177294
H82   H     H_    0.200741 0.915117 0.532079 0.216798
H83   H     H_    0.752045 0.653149 0.460230 0.177243
H84   H     H_    0.700716 0.415134 0.532044 0.216772
N1    N     N_R   0.408680 0.130160 0.995800 -0.043888
N2    N     N_R   0.408680 0.869840 0.995800 -0.043150
N3    N     N_R   0.908680 0.630160 0.995800 -0.043886
N4    N     N_R   0.908680 0.369840 0.995800 -0.043149
N5    N     N_R   0.421680 0.867580 0.153120 -0.059079
N6    N     N_R   0.421680 0.132420 0.153120 -0.063012
N7    N     N_R   0.921680 0.367580 0.153120 -0.059080
N8    N     N_R   0.921680 0.632420 0.153120 -0.063005
N9    N     N_R   0.403730 0.921770 0.935950 -0.041825
N10   N     N_R   0.403730 0.078230 0.935950 -0.041041
N11   N     N_R   0.903730 0.421770 0.935950 -0.041825
N12   N     N_R   0.903730 0.578230 0.935950 -0.041040
N13   N     N_R   0.426630 0.075970 0.212960 -0.079928
N14   N     N_R   0.426630 0.924030 0.212960 -0.063400
N15   N     N_R   0.926630 0.575970 0.212960 -0.079914
N16   N     N_R   0.926630 0.424030 0.212960 -0.063403
N17   N     N_R   0.591320 0.134600 0.004200 -0.049937
N18   N     N_R   0.591320 0.865400 0.004200 -0.050240
N19   N     N_R   0.091320 0.634600 0.004200 -0.049936
N20   N     N_R   0.091320 0.365400 0.004200 -0.050239
N21   N     N_R   0.578320 0.867660 0.846880 -0.038227
N22   N     N_R   0.578320 0.132340 0.846880 -0.035877
N23   N     N_R   0.078320 0.367660 0.846880 -0.038222
N24   N     N_R   0.078320 0.632340 0.846880 -0.035879
N25   N     N_R   0.573370 0.074390 0.787040 -0.033428
N26   N     N_R   0.573370 0.925610 0.787040 -0.035739
N27   N     N_R   0.073370 0.574390 0.787040 -0.033430
N28   N     N_R   0.073370 0.425610 0.787040 -0.035742
N29   N     N_R   0.596270 0.927870 0.064040 -0.041192
N30   N     N_R   0.596270 0.072130 0.064040 -0.030261
N31   N     N_R   0.096270 0.427870 0.064040 -0.041192
N32   N     N_R   0.096270 0.572130 0.064040 -0.030251
Ni1   Ni    Ni4+2 0.500000 0.131190 0.000000 0.203023
Ni2   Ni    Ni4+2 0.500000 0.868810 0.000000 0.198844
Ni3   Ni    Ni4+2 0.000000 0.631190 0.000000 0.203030
Ni4   Ni    Ni4+2 0.000000 0.368810 0.000000 0.198846
Ni5   Ni    Ni4+2 0.488650 0.000000 0.862740 0.211429
Ni6   Ni    Ni4+2 0.988650 0.500000 0.862740 0.211424
Ni7   Ni    Ni4+2 0.511350 0.000000 0.137260 0.300430
Ni8   Ni    Ni4+2 0.011350 0.500000 0.137260 0.300433
Cl1   Cl    Cl    0.495813 0.084325 0.319920 -0.690025
Cl2   Cl    Cl    0.350409 0.964951 0.426088 -0.733667
Cl3   Cl    Cl    0.995830 0.584316 0.319896 -0.690068
Cl4   Cl    Cl    0.850389 0.464967 0.426091 -0.733752

loop_
_geom_bond_atom_site_label_1
_geom_bond_atom_site_label_2
_ccdc_geom_bond_type
C61   C70   A    
C42   H22   S    
N4    N11   A    
C87   H75   S    
C6    H78   S    
C51   H35   S    
C57   H57   S    
C42   H50   S    
C27   H43   S    
C48   C76   A    
C20   C36   S    
C67   Cl3   S    
C50   H34   S    
C87   N27   A    
N30   Ni7   S    
C45   C73   A    
C25   H41   S    
C25   C43   S    
C6    C9    A    
C84   H72   S    
C26   C44   S    
C54   C60   D    
C68   C75   A    
C1    N1    A    
C17   C33   S    
C64   H64   S    
C24   H10   S    
C3    H3    S    
C36   C75   S    
C19   H83   S    
C38   C42   S    
N1    Ni1   S    
C5    N29   A    
C82   H70   S    
C17   H81   S    
C58   C71   S    
N22   N25   A    
C46   H46   S    
N21   N26   A    
N6    Ni1   S    
C13   C81   A    
C16   C84   A    
C85   H73   S    
N5    Ni2   S    
N9    Ni5   S    
C64   C71   A    
C28   C42   S    
C2    H2    S    
N26   Ni5   S    
C46   N6    A    
C32   C52   S    
C47   N7    A    
C8    H80   S    
C81   H69   S    
C77   H65   S    
C39   C51   S    
N6    N13   A    
N18   Ni2   S    
C23   H15   S    
N23   Ni4   S    
C20   C24   S    
N17   Ni1   S    
C78   N18   A    
C13   C86   A    
C16   C87   A    
C7    N31   A    
C31   C33   S    
N28   Ni6   S    
C43   H51   S    
C86   H74   S    
N3    Ni3   S    
N8    Ni3   S    
C10   C56   S    
C15   C39   S    
C13   C37   S    
C11   C53   S    
C45   N5    A    
C52   H36   S    
C21   H13   S    
C20   H8    S    
C49   H33   S    
C44   H52   S    
C20   H84   S    
C79   N19   A    
N14   Ni7   S    
C37   C41   S    
C80   N20   A    
C26   H18   S    
C63   H63   S    
C43   H23   S    
C32   H32   S    
N24   N27   A    
N2    N9    A    
C31   H27   S    
C67   N15   A    
C80   H68   S    
C28   H44   S    
C18   H82   S    
C53   C59   D    
C7    C12   A    
C30   C50   S    
C65   N13   A    
C35   C76   S    
C48   N8    A    
C63   N11   A    
C25   H17   S    
C8    N32   A    
C55   H55   S    
C78   H66   S    
C56   H56   S    
C29   C49   S    
N7    N16   A    
C30   H30   S    
C27   C35   S    
C34   C73   S    
C40   C52   S    
C66   C73   A    
C29   H29   S    
N10   Ni5   S    
C1    C69   A    
N5    N14   A    
C62   C69   A    
N11   Ni6   S    
C32   C34   S    
C66   Cl2   S    
C19   C23   S    
C65   Cl1   S    
N8    N15   A    
C62   N10   A    
C37   C49   S    
C45   H45   S    
C27   C41   S    
C24   C38   S    
C21   C39   S    
C27   H19   S    
C88   H76   S    
C22   C40   S    
N32   Ni8   S    
N13   Ni7   S    
C47   H47   S    
N19   Ni3   S    
C32   H28   S    
N12   Ni6   S    
C18   C34   S    
C46   C74   A    
C31   H31   S    
C11   C79   A    
C86   N26   A    
C50   H38   S    
C44   H24   S    
C85   N25   A    
C23   H9    S    
C16   C40   S    
N1    N10   A    
N20   Ni4   S    
C5    H77   S    
C66   N14   A    
C18   H6    S    
C68   N16   A    
N31   Ni8   S    
C17   H5    S    
N19   N32   A    
C14   C82   A    
C14   C38   S    
C4    C72   A    
C19   H7    S    
N23   N28   A    
C30   H26   S    
C3    N3    A    
N22   Ni1   S    
C7    H79   S    
N7    Ni4   S    
C1    H1    S    
N21   Ni2   S    
C62   H62   S    
C26   C34   S    
C18   C22   S    
C41   H49   S    
C48   H48   S    
C14   C85   A    
C31   C51   S    
N15   Ni8   S    
C26   H42   S    
C52   H40   S    
C15   C83   A    
C58   H58   S    
N18   N29   A    
C6    N30   A    
C3    C71   A    
C38   C50   S    
N17   N30   A    
C49   H37   S    
C29   C35   S    
C61   N9    A    
C22   H14   S    
C30   C36   S    
C84   N24   A    
N27   Ni6   S    
C77   N17   A    
C54   H54   S    
N4    Ni4   S    
N24   Ni3   S    
C55   C57   D    
C9    C77   A    
C47   C75   A    
C5    C10   A    
C23   C37   S    
C2    N2    A    
N16   Ni8   S    
C88   N28   A    
C60   C69   S    
C28   H20   S    
C8    C11   A    
C21   H11   S    
C12   C80   A    
C19   C35   S    
C63   C72   A    
N20   N31   A    
C56   C58   D    
C10   C78   A    
C53   H53   S    
C57   C72   S    
C83   N23   A    
C9    C55   S    
C68   Cl4   S    
C17   C21   S    
C82   N22   A    
C22   H12   S    
N25   Ni5   S    
C65   C74   A    
C59   C70   S    
C79   H67   S    
C64   N12   A    
C33   C74   S    
C40   C44   S    
C83   H71   S    
C51   H39   S    
C28   C36   S    
C4    N4    A    
C39   C43   S    
C29   H25   S    
N2    Ni2   S    
C15   C88   A    
C41   H21   S    
C81   N21   A    
C60   H60   S    
C24   H16   S    
C2    C70   A    
C61   H61   S    
N29   Ni7   S    
C12   C54   S    
C67   C76   A    
C25   C33   S    
N3    N12   A    
C4    H4    S    
C59   H59   S    
