data_mof_unit_60272.cif
_audit_creation_date              2012-12-10T19:17:22-0500
_audit_creation_method            fapswitch 2.2
_symmetry_space_group_name_H-M    P1
_symmetry_Int_Tables_number       1
_space_group_crystal_system       triclinic
_cell_length_a                    22.380991
_cell_length_b                    22.290943
_cell_length_c                    15.001013
_cell_angle_alpha                 89.996377
_cell_angle_beta                  90.003751
_cell_angle_gamma                 90.015129
_cell_volume                      7483.90600709

loop_
_atom_site_label
_atom_site_type_symbol
_atom_type_description
_atom_site_fract_x
_atom_site_fract_y
_atom_site_fract_z
_atom_type_partial_charge
C1    C     C_R   0.080972 0.419121 0.500025 0.907537
C2    C     C_R   0.080981 0.580864 0.500002 0.906606
C3    C     C_R   0.581013 0.919164 0.500000 0.894163
C4    C     C_R   0.580986 0.080884 0.499968 0.904622
C5    C     C_1   0.164192 0.660998 0.499805 0.093442
C6    C     C_1   0.163897 0.338706 0.501336 0.185023
C7    C     C_1   0.662819 0.162489 0.498379 0.082200
C8    C     C_1   0.664714 0.839563 0.499931 0.182331
C9    C     C_1   0.835819 0.338882 0.501215 0.167754
C10   C     C_1   0.837233 0.662455 0.501318 0.246519
C11   C     C_1   0.336891 0.837900 0.498368 0.240600
C12   C     C_1   0.336366 0.161558 0.500567 0.249147
C13   C     C_1   0.874137 0.375556 0.500287 -0.043666
C14   C     C_1   0.874816 0.625054 0.500276 -0.062110
C15   C     C_1   0.374628 0.875147 0.499646 -0.046631
C16   C     C_1   0.374396 0.124614 0.500112 -0.060022
C17   C     C_3   0.040808 0.448095 0.053834 0.643872
C18   C     C_3   0.037272 0.445465 0.946998 0.547350
C19   C     C_3   0.024266 0.562813 0.053331 0.593770
C20   C     C_3   0.024800 0.562066 0.946578 0.686981
C21   C     C_3   0.524324 0.937975 0.053809 0.611553
C22   C     C_3   0.519734 0.936608 0.946954 0.549520
C23   C     C_3   0.541961 0.052541 0.053316 0.583388
C24   C     C_3   0.542498 0.051612 0.946568 0.684639
C25   C     C_3   0.999676 0.500595 0.089976 -0.361129
C26   C     C_3   0.998852 0.500194 0.910062 -0.379312
C27   C     C_3   0.500320 0.000221 0.089994 -0.310470
C28   C     C_3   0.499263 0.000409 0.910119 -0.340920
C29   C     C_3   0.932243 0.493280 0.946691 0.673504
C30   C     C_3   0.933197 0.491807 0.053472 0.731826
C31   C     C_3   0.433729 0.013866 0.947108 0.606364
C32   C     C_3   0.434291 0.011027 0.053961 0.722489
C33   C     C_1   0.999493 0.500062 0.809080 0.200645
C34   C     C_1   0.999785 0.500209 0.190910 0.359434
C35   C     C_1   0.499643 0.000147 0.809098 0.195610
C36   C     C_1   0.500017 0.000080 0.190911 0.450726
C37   C     C_R   0.919049 0.419085 0.500024 0.903281
C38   C     C_R   0.919065 0.580902 0.500017 0.892259
C39   C     C_R   0.419041 0.919127 0.499975 0.894619
C40   C     C_R   0.419051 0.080884 0.500004 0.899100
C41   C     C_3   0.814946 0.234989 0.549852 0.728814
C42   C     C_3   0.771985 0.279169 0.401286 0.622784
C43   C     C_3   0.815012 0.763933 0.559965 0.640880
C44   C     C_3   0.781337 0.729621 0.402641 0.669597
C45   C     C_3   0.278767 0.772732 0.596880 0.608965
C46   C     C_3   0.315353 0.735638 0.442160 0.661371
C47   C     C_3   0.287419 0.236378 0.598364 0.642453
C48   C     C_3   0.308999 0.257187 0.431381 0.666650
C49   C     C_3   0.269536 0.680827 0.450880 0.149278
C50   C     C_3   0.223714 0.727380 0.599258 0.095946
C51   C     C_3   0.256221 0.304635 0.422216 0.062784
C52   C     C_3   0.243587 0.293184 0.597625 0.122077
C53   C     C_3   0.714983 0.236867 0.399830 0.132346
C54   C     C_3   0.770209 0.180351 0.534445 0.197502
C55   C     C_3   0.726473 0.774982 0.399483 0.057882
C56   C     C_3   0.769544 0.819120 0.551127 0.118773
C57   C     C_1   0.125881 0.624325 0.499980 -0.075461
C58   C     C_1   0.125730 0.375504 0.500302 -0.051740
C59   C     C_1   0.625247 0.125048 0.499615 -0.063099
C60   C     C_1   0.626172 0.875969 0.499988 -0.054672
C61   C     C_3   0.789117 0.293798 0.502193 -0.270919
C62   C     C_3   0.791321 0.708408 0.502684 -0.182710
C63   C     C_3   0.290900 0.792039 0.496651 -0.205607
C64   C     C_3   0.290042 0.207089 0.501281 -0.182719
C65   C     C_3   0.210750 0.706261 0.498980 -0.239749
C66   C     C_3   0.210242 0.293220 0.502804 -0.242297
C67   C     C_3   0.708654 0.208430 0.497820 -0.252112
C68   C     C_3   0.711390 0.794413 0.500224 -0.241110
C69   C     C_3   0.185884 0.762237 0.442430 0.773574
C70   C     C_3   0.177456 0.230111 0.487915 0.774243
C71   C     C_3   0.687628 0.260398 0.564865 0.746332
C72   C     C_3   0.684982 0.737700 0.552693 0.776384
C73   C     C_3   0.730623 0.317708 0.554276 -0.306733
C74   C     C_3   0.729991 0.681604 0.542948 -0.397650
C75   C     C_3   0.230635 0.818007 0.452690 -0.307369
C76   C     C_3   0.226629 0.178163 0.473329 -0.391961
N1    N     N_1   0.999850 0.500000 0.731150 -0.086050
N2    N     N_1   0.999850 0.500000 0.268850 -0.090418
N3    N     N_1   0.499850 0.000000 0.731150 -0.090103
N4    N     N_1   0.499850 0.000000 0.268850 -0.087998
O1    O     O_R   0.061440 0.438650 0.574260 -0.601456
O2    O     O_R   0.061440 0.438650 0.425740 -0.599223
O3    O     O_R   0.061440 0.561350 0.574260 -0.582236
O4    O     O_R   0.061440 0.561350 0.425740 -0.627215
O5    O     O_R   0.561440 0.938650 0.574260 -0.605010
O6    O     O_R   0.561440 0.938650 0.425740 -0.599544
O7    O     O_R   0.561440 0.061350 0.574260 -0.618841
O8    O     O_R   0.561440 0.061350 0.425740 -0.589785
O9    O     O_R   0.938580 0.438650 0.574260 -0.599418
O10   O     O_R   0.938580 0.438650 0.425740 -0.599139
O11   O     O_R   0.938580 0.561350 0.574260 -0.606165
O12   O     O_R   0.938580 0.561350 0.425740 -0.598639
O13   O     O_R   0.438580 0.938650 0.574260 -0.596932
O14   O     O_R   0.438580 0.938650 0.425740 -0.589554
O15   O     O_R   0.438580 0.061350 0.574260 -0.620938
O16   O     O_R   0.438580 0.061350 0.425740 -0.580755
Zn1   Zn    Zn3+2 0.000010 0.500000 0.599130 1.054275
Zn2   Zn    Zn3+2 0.000010 0.500000 0.400870 1.056481
Zn3   Zn    Zn3+2 0.500010 1.000000 0.599130 1.033269
Zn4   Zn    Zn3+2 0.500010 0.000000 0.400870 1.089220
C77   C     C_2   0.233942 0.676821 0.667991 0.881836
O17   O     O_2   0.220822 0.624696 0.652343 -0.579949
O18   O     O_R   0.254737 0.691935 0.753086 -0.750253
H1    H     H_    0.258716 0.655805 0.793718 0.383484
C78   C     C_2   0.293912 0.623622 0.496820 0.948762
O19   O     O_2   0.344239 0.620541 0.527969 -0.541530
O20   O     O_R   0.258473 0.571812 0.497224 -0.759615
H2    H     H_    0.278780 0.536434 0.527015 0.386483
C79   C     C_2   0.272686 0.354545 0.618982 0.970999
O21   O     O_2   0.326057 0.360371 0.633606 -0.538599
O22   O     O_R   0.235716 0.404810 0.628841 -0.771343
H3    H     H_    0.258657 0.442545 0.644811 0.377628
C80   C     C_2   0.280990 0.368729 0.412134 0.872515
O23   O     O_2   0.258646 0.411345 0.450898 -0.620982
O24   O     O_R   0.327039 0.379074 0.350941 -0.711450
H4    H     H_    0.339115 0.422866 0.347759 0.377094
C81   C     C_2   0.797056 0.129736 0.477307 0.863736
O25   O     O_2   0.768638 0.105933 0.417627 -0.619355
O26   O     O_R   0.851517 0.104198 0.503173 -0.681594
H5    H     H_    0.863810 0.069331 0.463831 0.372104
C82   C     C_2   0.715009 0.191325 0.321911 1.046287
O27   O     O_2   0.753433 0.192067 0.263971 -0.506858
O28   O     O_R   0.667138 0.151388 0.312559 -0.792774
H6    H     H_    0.671035 0.124612 0.258233 0.369383
C83   C     C_2   0.794821 0.876695 0.507383 0.977123
O29   O     O_2   0.845806 0.880148 0.478811 -0.535781
O30   O     O_R   0.759436 0.928528 0.506703 -0.776130
H7    H     H_    0.780366 0.964261 0.478824 0.381841
C84   C     C_2   0.738100 0.825938 0.332400 0.876130
O31   O     O_2   0.725491 0.878021 0.349155 -0.601302
O32   O     O_R   0.758916 0.811342 0.247162 -0.707704
H8    H     H_    0.763681 0.847821 0.207413 0.381299
O33   O     O_3   0.874576 0.222186 0.523124 -0.720756
H9    H     H_    0.876644 0.207283 0.461569 0.375446
O34   O     O_3   0.820800 0.251518 0.358589 -0.790651
H10   H     H_    0.851431 0.282667 0.346155 0.376762
O35   O     O_3   0.873173 0.779970 0.531591 -0.716362
H11   H     H_    0.902406 0.751266 0.557296 0.363608
O36   O     O_3   0.835341 0.753626 0.368445 -0.694363
H12   H     H_    0.838462 0.796617 0.382284 0.362835
O37   O     O_3   0.331990 0.749015 0.634182 -0.685633
H13   H     H_    0.335329 0.705906 0.621255 0.365410
O38   O     O_3   0.372984 0.719881 0.473136 -0.727180
H14   H     H_    0.402697 0.748145 0.447550 0.361245
O39   O     O_3   0.345673 0.252500 0.626223 -0.718634
H15   H     H_    0.367022 0.215968 0.646741 0.363660
O40   O     O_3   0.364427 0.282616 0.457220 -0.694734
H16   H     H_    0.358144 0.316215 0.498603 0.363173
O41   O     O_3   0.759299 0.332824 0.354589 -0.678553
H17   H     H_    0.753114 0.322107 0.290976 0.395206
O42   O     O_3   0.817853 0.245556 0.642563 -0.586969
H18   H     H_    0.855030 0.268261 0.655762 0.391160
O43   O     O_3   0.768533 0.679302 0.348815 -0.651326
H19   H     H_    0.768031 0.692886 0.285762 0.418855
O44   O     O_3   0.818962 0.746442 0.650305 -0.709087
H20   H     H_    0.842787 0.777186 0.682533 0.404908
O45   O     O_3   0.320656 0.751708 0.351354 -0.661375
H21   H     H_    0.345291 0.720704 0.321115 0.398212
O46   O     O_3   0.265116 0.824157 0.647852 -0.691816
H22   H     H_    0.267927 0.813112 0.711864 0.398379
O47   O     O_3   0.319627 0.230235 0.347738 -0.649611
H23   H     H_    0.336642 0.261347 0.307707 0.418075
O48   O     O_3   0.265596 0.193207 0.659171 -0.712341
H24   H     H_    0.273476 0.208046 0.720523 0.402390
O49   O     O_3   0.255771 0.661876 0.363022 -0.676999
H25   H     H_    0.225406 0.629449 0.364412 0.366897
O50   O     O_3   0.171843 0.757858 0.628565 -0.641391
H26   H     H_    0.175269 0.767607 0.692974 0.384592
O51   O     O_3   0.226602 0.293398 0.340741 -0.623898
H27   H     H_    0.194918 0.324102 0.332199 0.377436
O52   O     O_3   0.201990 0.285045 0.667799 -0.712614
H28   H     H_    0.171241 0.317072 0.666426 0.382794
O53   O     O_3   0.664781 0.273439 0.382544 -0.667166
H29   H     H_    0.628146 0.248257 0.383126 0.397318
O54   O     O_3   0.760328 0.152992 0.618538 -0.600600
H30   H     H_    0.735272 0.116542 0.611001 0.339421
O55   O     O_3   0.676912 0.743852 0.363937 -0.624795
H31   H     H_    0.642811 0.772140 0.358138 0.373760
O56   O     O_3   0.754814 0.837746 0.638715 -0.707763
H32   H     H_    0.723439 0.869149 0.637044 0.384595
C85   C     C_2   0.742521 0.345152 0.646983 1.042543
O57   O     O_2   0.792475 0.361123 0.669952 -0.598078
O58   O     O_R   0.694033 0.356748 0.703377 -0.753524
H33   H     H_    0.706509 0.376182 0.761583 0.378877
C86   C     C_2   0.703383 0.372146 0.504565 1.056667
O59   O     O_2   0.734124 0.417037 0.493637 -0.573299
O60   O     O_R   0.644331 0.373331 0.474137 -0.670018
H34   H     H_    0.633509 0.412458 0.443678 0.371167
C87   C     C_2   0.736241 0.648916 0.633072 0.952322
O61   O     O_2   0.785010 0.635751 0.664201 -0.538284
O62   O     O_R   0.684410 0.630397 0.677522 -0.761760
H35   H     H_    0.693339 0.608341 0.735112 0.379036
C88   C     C_2   0.707396 0.629771 0.482436 1.071512
O63   O     O_2   0.736649 0.583380 0.478168 -0.583510
O64   O     O_R   0.655229 0.633614 0.431414 -0.665862
H36   H     H_    0.647171 0.596010 0.395323 0.369838
C89   C     C_2   0.206921 0.871136 0.509086 1.048764
O65   O     O_2   0.160472 0.868410 0.551732 -0.450292
O66   O     O_R   0.240042 0.924477 0.511805 -0.797598
H37   H     H_    0.220928 0.956380 0.550628 0.372868
C90   C     C_2   0.238957 0.848579 0.361270 1.090766
O67   O     O_2   0.288348 0.861910 0.332539 -0.544985
O68   O     O_R   0.188162 0.865741 0.313080 -0.716476
H38   H     H_    0.198392 0.886730 0.255090 0.372101
C91   C     C_2   0.208701 0.121267 0.525375 0.944544
O69   O     O_2   0.244003 0.094680 0.573447 -0.553182
O70   O     O_R   0.151531 0.097266 0.512474 -0.758389
H39   H     H_    0.144635 0.059247 0.548129 0.373179
C92   C     C_2   0.230793 0.153038 0.376927 1.072434
O71   O     O_2   0.263301 0.109887 0.362413 -0.587698
O72   O     O_R   0.199548 0.177770 0.305026 -0.666050
H40   H     H_    0.207639 0.156277 0.246693 0.370735
O73   O     O_3   0.127860 0.778838 0.471026 -0.635759
H41   H     H_    0.098029 0.749254 0.449667 0.336808
O74   O     O_3   0.182109 0.746613 0.350938 -0.676322
H42   H     H_    0.152370 0.714007 0.343240 0.337225
O75   O     O_3   0.138652 0.218838 0.561019 -0.698271
H43   H     H_    0.159892 0.198899 0.610448 0.397887
O76   O     O_3   0.139530 0.234806 0.413287 -0.656674
H44   H     H_    0.113096 0.198973 0.412917 0.394786
O77   O     O_3   0.691021 0.238721 0.653501 -0.663256
H45   H     H_    0.658002 0.209594 0.662747 0.366818
O78   O     O_3   0.627313 0.275298 0.548239 -0.706836
H46   H     H_    0.613162 0.300404 0.598697 0.389744
O79   O     O_3   0.673941 0.754163 0.642732 -0.702122
H47   H     H_    0.709919 0.748946 0.679938 0.397961
O80   O     O_3   0.628340 0.723718 0.517370 -0.659526
H48   H     H_    0.608862 0.694850 0.558670 0.395211
O81   O     O_3   0.095311 0.446488 0.909715 -0.777490
H49   H     H_    0.092600 0.433854 0.846383 0.379785
O82   O     O_3   0.099815 0.455436 0.086732 -0.692480
H50   H     H_    0.124064 0.480639 0.046727 0.391623
O83   O     O_3   0.082571 0.573089 0.911597 -0.691663
H51   H     H_    0.112518 0.547977 0.941924 0.386966
O84   O     O_3   0.082370 0.573974 0.086354 -0.765438
H52   H     H_    0.079253 0.583332 0.150888 0.365636
O85   O     O_3   0.575260 0.920094 0.909224 -0.776782
H53   H     H_    0.568658 0.908852 0.845950 0.380254
O86   O     O_3   0.582978 0.927794 0.086394 -0.696247
H54   H     H_    0.613410 0.944404 0.045923 0.392486
O87   O     O_3   0.600925 0.044626 0.911749 -0.691485
H55   H     H_    0.622018 0.011811 0.942357 0.387830
O88   O     O_3   0.600723 0.046226 0.086574 -0.769550
H56   H     H_    0.600321 0.056074 0.151109 0.359907
O89   O     O_3   0.986784 0.609477 0.084125 -0.661907
H57   H     H_    0.007175 0.648181 0.071670 0.402185
O90   O     O_3   0.988391 0.609621 0.916311 -0.646640
H58   H     H_    0.995699 0.615422 0.851586 0.368217
O91   O     O_3   0.020191 0.393572 0.090168 -0.711953
H59   H     H_    0.051652 0.362780 0.080826 0.387501
O92   O     O_3   0.009286 0.391433 0.920478 -0.703086
H60   H     H_    0.038686 0.358349 0.926887 0.376806
O93   O     O_3   0.519564 0.108175 0.083885 -0.640983
H61   H     H_    0.550426 0.139194 0.071897 0.399536
O94   O     O_3   0.522157 0.107968 0.916108 -0.649741
H62   H     H_    0.530925 0.111207 0.851392 0.363902
O95   O     O_3   0.488947 0.891796 0.090373 -0.707657
H63   H     H_    0.510026 0.853147 0.080543 0.387089
O96   O     O_3   0.476743 0.893550 0.920767 -0.699339
H64   H     H_    0.494902 0.853112 0.926873 0.377929
O97   O     O_3   0.907730 0.438321 0.087940 -0.688416
H65   H     H_    0.920920 0.403054 0.053293 0.421701
O98   O     O_3   0.905257 0.440295 0.913851 -0.681264
H66   H     H_    0.901224 0.443355 0.848170 0.356894
O99   O     O_3   0.896966 0.539248 0.084668 -0.583690
H67   H     H_    0.889610 0.533184 0.149325 0.366557
O100  O     O_3   0.896462 0.542262 0.919196 -0.612321
H68   H     H_    0.893764 0.542225 0.853186 0.337609
O101  O     O_3   0.395323 0.966459 0.088343 -0.684525
H69   H     H_    0.396623 0.929803 0.051387 0.422345
O102  O     O_3   0.391920 0.971980 0.913469 -0.690765
H70   H     H_    0.388757 0.976928 0.847940 0.358135
O103  O     O_3   0.413718 0.066141 0.088514 -0.615155
H71   H     H_    0.370116 0.068693 0.076611 0.400904
O104  O     O_3   0.414588 0.071749 0.920939 -0.665568
H72   H     H_    0.412064 0.073199 0.854947 0.340162

loop_
_geom_bond_atom_site_label_1
_geom_bond_atom_site_label_2
_ccdc_geom_bond_type
C76   C92   S    
O52   H28   S    
C47   O39   S    
C77   O17   D    
C71   O77   S    
C3    O5    A    
C72   C74   S    
C55   O55   S    
O51   H27   S    
C6    C58   T    
C78   O19   D    
C2    O4    A    
O48   H24   S    
C69   O74   S    
C41   C61   S    
O74   H42   S    
C31   O104  S    
O4    Zn2   S    
C41   O33   S    
O39   H15   S    
C75   C90   S    
C2    C57   S    
C53   O53   S    
O98   H66   S    
C4    O7    A    
C66   C70   S    
C85   O57   D    
C65   C69   S    
O72   H40   S    
C78   O20   S    
C46   C49   S    
O91   H59   S    
C29   C30   S    
C53   C67   S    
C49   C65   S    
C37   O10   A    
C9    C61   S    
C44   O43   S    
C52   C79   S    
N3    Zn3   S    
O86   H54   S    
O95   H63   S    
C11   C63   S    
C81   O26   S    
C42   C53   S    
O93   H61   S    
C12   C64   S    
O15   Zn3   S    
C86   O60   S    
O41   H17   S    
C1    O1    A    
O38   H14   S    
C74   C87   S    
C48   O40   S    
C38   O12   A    
O94   H62   S    
C17   C18   S    
O87   H55   S    
C90   O67   D    
C35   N3    T    
C89   O66   S    
C42   O41   S    
C9    C13   T    
C39   O13   A    
C32   O103  S    
O40   H16   S    
C92   O72   S    
C11   C15   T    
C48   C51   S    
C86   O59   D    
C31   C32   S    
C28   C35   S    
C55   C84   S    
C72   O80   S    
C45   O46   S    
O88   H56   S    
N2    Zn2   S    
O84   H52   S    
N1    Zn1   S    
C26   C29   S    
C23   C27   S    
O6    Zn4   S    
O99   H67   S    
O13   Zn3   S    
C13   C37   S    
C23   O93   S    
C25   C34   S    
O28   H6    S    
C47   O48   S    
C3    C60   S    
C85   O58   S    
O102  H70   S    
C21   C27   S    
C74   C88   S    
O66   H37   S    
C77   O18   S    
C22   C28   S    
O101  H69   S    
N4    Zn4   S    
C3    O6    A    
C45   O37   S    
C90   O68   S    
O46   H22   S    
C32   O101  S    
C10   C62   S    
C1    C58   S    
C40   O16   A    
C63   C75   S    
C43   O44   S    
C52   O52   S    
C7    C59   T    
C30   O97   S    
C69   C75   S    
O47   H23   S    
O7    Zn3   S    
C20   O90   S    
C17   O82   S    
C92   O71   D    
C70   O75   S    
C71   O78   S    
O2    Zn2   S    
O12   Zn2   S    
O70   H39   S    
C12   C16   T    
O34   H10   S    
C69   O73   S    
O78   H46   S    
O92   H60   S    
C10   C14   T    
O50   H26   S    
C71   C73   S    
C55   C68   S    
C49   C78   S    
C48   O47   S    
C44   C62   S    
O75   H43   S    
C56   C68   S    
C46   O45   S    
C7    C67   S    
C38   O11   A    
C45   C63   S    
C87   O61   D    
O62   H35   S    
O45   H21   S    
O9    Zn1   S    
C42   O34   S    
C51   C66   S    
O100  H68   S    
C54   O54   S    
C24   O94   S    
O58   H33   S    
C39   O14   A    
C49   O49   S    
O81   H49   S    
O5    Zn3   S    
C14   C38   S    
O77   H45   S    
C73   C85   S    
C43   C56   S    
C26   C33   S    
O80   H48   S    
O14   Zn4   S    
C18   O92   S    
C68   C72   S    
C18   C26   S    
C88   O64   S    
O79   H47   S    
C64   C76   S    
C24   O87   S    
C30   O99   S    
C51   C80   S    
C56   C83   S    
O11   Zn1   S    
O26   H5    S    
C42   C61   S    
C15   C39   S    
C82   O27   D    
O8    Zn4   S    
C16   C40   S    
C4    O8    A    
C5    C65   S    
O82   H50   S    
O104  H72   S    
O32   H8    S    
O55   H31   S    
C44   O36   S    
C72   O79   S    
C36   N4    T    
C83   O29   D    
C29   O100  S    
C2    O3    A    
O20   H2    S    
C23   O88   S    
O30   H7    S    
O44   H20   S    
C52   C66   S    
C76   C91   S    
C19   O89   S    
C80   O23   D    
O83   H51   S    
C25   C30   S    
O76   H44   S    
C91   O69   D    
O22   H3    S    
C21   O86   S    
C27   C32   S    
C28   C31   S    
C24   C28   S    
O89   H57   S    
C18   O81   S    
C19   O84   S    
C75   C89   S    
C73   C86   S    
O36   H12   S    
C47   C64   S    
C8    C68   S    
C46   O38   S    
C54   C67   S    
C5    C57   T    
C22   O96   S    
O64   H36   S    
C70   C76   S    
O97   H65   S    
O35   H11   S    
C81   O25   D    
C70   O76   S    
C37   O9    A    
C46   C63   S    
C27   C36   S    
C61   C73   S    
C22   O85   S    
C19   C20   S    
C79   O22   S    
C41   O42   S    
C84   O31   D    
C17   C25   S    
O60   H34   S    
O90   H58   S    
O54   H30   S    
C53   C82   S    
O37   H13   S    
C8    C60   T    
C31   O102  S    
C1    O2    A    
C44   C55   S    
C21   O95   S    
O24   H4    S    
O33   H9    S    
C80   O24   S    
C20   C26   S    
C45   C50   S    
O73   H41   S    
O16   Zn4   S    
C4    C59   S    
C17   O91   S    
C29   O98   S    
C20   O83   S    
O10   Zn2   S    
C43   O35   S    
C67   C71   S    
C89   O65   D    
C19   C25   S    
C50   C65   S    
O85   H53   S    
C41   C54   S    
C82   O28   S    
C48   C64   S    
C23   C24   S    
O53   H29   S    
O56   H32   S    
C50   O50   S    
C79   O21   D    
O49   H25   S    
C6    C66   S    
C43   C62   S    
C50   C77   S    
C88   O63   D    
O3    Zn1   S    
C54   C81   S    
C47   C52   S    
O18   H1    S    
C83   O30   S    
O1    Zn1   S    
C62   C74   S    
C40   O15   A    
O68   H38   S    
C87   O62   S    
O43   H19   S    
C21   C22   S    
C91   O70   S    
O42   H18   S    
C33   N1    T    
C34   N2    T    
O96   H64   S    
C51   O51   S    
C84   O32   S    
C56   O56   S    
O103  H71   S    
