data_mof_unit_28125.cif
_audit_creation_date              2012-12-10T20:55:09-0500
_audit_creation_method            fapswitch 2.2
_symmetry_space_group_name_H-M    P1
_symmetry_Int_Tables_number       1
_space_group_crystal_system       triclinic
_cell_length_a                    15.833832
_cell_length_b                    15.030706
_cell_length_c                    10.570751
_cell_angle_alpha                 92.319705
_cell_angle_beta                  90.328508
_cell_angle_gamma                 90.012008
_cell_volume                      2513.66871147

loop_
_atom_site_label
_atom_site_type_symbol
_atom_type_description
_atom_site_fract_x
_atom_site_fract_y
_atom_site_fract_z
_atom_type_partial_charge
C1    C     C_R   0.338825 0.500070 0.501401 0.947638
C2    C     C_R   0.570145 0.951618 0.453132 0.355171
C3    C     C_R   0.499926 0.904926 0.499879 -0.292950
C4    C     C_R   0.569507 0.045873 0.452402 0.374881
C5    C     C_R   0.430377 0.048375 0.549397 0.361778
C6    C     C_R   0.499804 0.094859 0.500514 -0.305190
C7    C     C_1   0.499948 0.807115 0.499834 0.240830
C8    C     C_1   0.499972 0.192845 0.500422 0.251221
C9    C     C_R   0.497581 0.497796 0.257301 0.903674
C10   C     C_R   0.517843 0.502192 0.737395 0.931927
C11   C     C_R   0.417799 0.634901 0.101810 0.012933
C12   C     C_R   0.661200 0.500035 0.499529 0.946747
C13   C     C_R   0.528218 0.673873 0.903891 0.010757
C14   C     C_R   0.420659 0.720781 0.054819 -0.217738
C15   C     C_R   0.478435 0.741127 0.961558 -0.192812
C16   C     C_R   0.518243 0.584838 0.942682 0.002265
C17   C     C_R   0.476527 0.569812 0.055373 0.011420
C18   C     C_R   0.500300 0.492966 0.120220 -0.150319
C19   C     C_R   0.542155 0.508362 0.870140 -0.130236
C20   C     C_R   0.546680 0.423045 0.057406 -0.123950
C21   C     C_R   0.565541 0.430037 0.929266 -0.107157
C22   C     C_R   0.956241 0.567130 0.569660 -0.173064
C23   C     C_R   0.956216 0.440174 0.419039 -0.177317
C24   C     C_R   0.043807 0.567115 0.570464 -0.174861
C25   C     C_R   0.913125 0.503300 0.494541 0.170017
C26   C     C_R   0.086867 0.503235 0.496200 0.173182
C27   C     C_2   0.578807 0.344712 0.123856 1.010939
C28   C     C_2   0.611655 0.357887 0.857117 0.966616
C29   C     C_2   0.346712 0.611672 0.185386 0.911605
C30   C     C_2   0.596276 0.699443 0.815509 0.940416
C31   C     C_3   0.307561 0.126197 0.521975 0.080243
C32   C     C_3   0.262256 0.207461 0.580733 -0.288728
C33   C     C_3   0.198013 0.245402 0.489296 -0.958476
C34   C     C_R   0.043740 0.440143 0.419881 -0.186112
C35   C     C_3   0.693507 0.120151 0.492945 0.087214
C36   C     C_3   0.737744 0.203835 0.449382 -0.330419
C37   C     C_3   0.801338 0.239315 0.548027 -0.899246
C38   C     C_3   0.307991 0.875599 0.509708 0.102680
C39   C     C_3   0.227144 0.844602 0.572872 -0.316755
C40   C     C_3   0.166624 0.799834 0.477056 -0.924569
C41   C     C_3   0.691002 0.874415 0.495383 0.112281
C42   C     C_3   0.776397 0.848885 0.437921 -0.315209
C43   C     C_3   0.834612 0.807856 0.535331 -0.963085
C44   C     C_1   0.824371 0.501765 0.496280 -0.069552
C45   C     C_1   0.175614 0.501811 0.499117 -0.080712
C46   C     C_1   0.250448 0.500545 0.500943 -0.173375
C47   C     C_1   0.749548 0.500497 0.497963 -0.123968
C48   C     C_R   0.429908 0.954018 0.547757 0.359973
H1    H     H_    0.378299 0.772396 0.090508 0.181044
H2    H     H_    0.704742 0.665701 0.726297 0.333211
H3    H     H_    0.260118 0.073388 0.499444 0.145465
H4    H     H_    0.337502 0.145862 0.431914 0.130180
H5    H     H_    0.229211 0.188258 0.668039 0.233308
H6    H     H_    0.309460 0.259833 0.607228 0.242034
H7    H     H_    0.230236 0.269054 0.403824 0.276565
H8    H     H_    0.164917 0.302564 0.536661 0.272846
H9    H     H_    0.150425 0.194074 0.460488 0.262134
H10   H     H_    0.741724 0.067766 0.507104 0.150120
H11   H     H_    0.662820 0.136736 0.585892 0.116562
H12   H     H_    0.482963 0.809328 0.932897 0.200292
H13   H     H_    0.771135 0.188343 0.358937 0.228568
H14   H     H_    0.689846 0.256169 0.432703 0.246299
H15   H     H_    0.769065 0.256669 0.638699 0.293943
H16   H     H_    0.831985 0.300105 0.513740 0.268430
H17   H     H_    0.850876 0.188708 0.564544 0.254104
H18   H     H_    0.337126 0.817328 0.458792 0.171927
H19   H     H_    0.291113 0.925982 0.439333 0.108035
H20   H     H_    0.243396 0.796475 0.646367 0.235623
H21   H     H_    0.195232 0.902871 0.619753 0.226577
H22   H     H_    0.149741 0.846383 0.401953 0.265242
H23   H     H_    0.077804 0.616064 0.629143 0.145769
H24   H     H_    0.107951 0.780132 0.525732 0.255314
H25   H     H_    0.196008 0.739087 0.433167 0.303373
H26   H     H_    0.663163 0.814079 0.535764 0.180252
H27   H     H_    0.701547 0.925415 0.573496 0.119866
H28   H     H_    0.766630 0.799956 0.357450 0.241498
H29   H     H_    0.806984 0.909174 0.401317 0.226715
H30   H     H_    0.845864 0.855717 0.616512 0.269202
H31   H     H_    0.896217 0.790851 0.490875 0.269446
H32   H     H_    0.806199 0.745963 0.570313 0.263693
H33   H     H_    0.922290 0.616053 0.627805 0.147416
H34   H     H_    0.922280 0.391037 0.360612 0.149389
H35   H     H_    0.077661 0.390991 0.362096 0.151837
H36   H     H_    0.679893 0.279565 0.190412 0.342159
H37   H     H_    0.627808 0.226332 0.819498 0.332139
H38   H     H_    0.264617 0.517573 0.238043 0.337019
N1    N     N_1   0.500000 0.270550 0.500000 -0.094567
N2    N     N_1   0.500000 0.729450 0.500000 -0.093807
O1    O     O_R   0.378020 0.573650 0.500040 -0.594485
O2    O     O_R   0.665383 0.336448 0.146796 -0.814652
O3    O     O_2   0.665408 0.377300 0.780279 -0.633208
O4    O     O_R   0.592763 0.268414 0.875181 -0.776237
O5    O     O_2   0.312779 0.669229 0.252566 -0.660296
O6    O     O_R   0.316241 0.524287 0.183102 -0.817686
O7    O     O_2   0.595604 0.772897 0.769748 -0.673586
O8    O     O_R   0.662528 0.640530 0.787122 -0.801843
O9    O     O_3   0.366247 0.094843 0.611161 -0.585452
O10   O     O_3   0.635928 0.089896 0.397713 -0.584223
O11   O     O_3   0.363412 0.911167 0.604237 -0.594332
O12   O     O_R   0.621980 0.573650 0.499960 -0.625110
O13   O     O_3   0.637878 0.906184 0.399037 -0.600324
O14   O     O_R   0.378020 0.426320 0.500100 -0.614487
O15   O     O_R   0.621980 0.426320 0.499900 -0.606289
O16   O     O_R   0.500000 0.573680 0.316780 -0.622657
O17   O     O_R   0.500000 0.573680 0.683220 -0.627420
O18   O     O_R   0.500000 0.426350 0.316830 -0.595997
O19   O     O_R   0.500000 0.426350 0.683170 -0.613161
O20   O     O_2   0.529875 0.286618 0.154852 -0.567460
Zn1   Zn    Zn3+2 0.500000 0.598370 0.500000 1.008988
Zn2   Zn    Zn3+2 0.500000 0.401630 0.500000 1.020095

loop_
_geom_bond_atom_site_label_1
_geom_bond_atom_site_label_2
_ccdc_geom_bond_type
C33   H7    S    
C23   H34   S    
C4    O10   S    
C39   H20   S    
C35   C36   S    
C31   H4    S    
N1    Zn2   S    
C45   C46   T    
C43   H30   S    
C40   H22   S    
O15   Zn2   S    
C36   C37   S    
C19   C21   A    
C24   C26   A    
C3    C7    S    
C16   C19   A    
O16   Zn1   S    
C11   C14   A    
C1    C46   S    
C14   H1    S    
C43   H31   S    
O1    Zn1   S    
C3    C48   A    
C40   H25   S    
C27   O2    S    
C35   H11   S    
C41   C42   S    
C30   O8    S    
H38   O6    S    
C26   C45   S    
C41   H26   S    
C26   C34   A    
C38   H18   S    
C16   C17   A    
C22   C25   A    
C37   H17   S    
C1    O1    A    
C35   O10   S    
C44   C47   T    
C33   H8    S    
C23   C25   A    
O12   Zn1   S    
C10   O19   A    
H36   O2    S    
C12   C47   S    
C36   H14   S    
C25   C44   S    
C32   H6    S    
C37   H15   S    
H37   O4    S    
C38   C39   S    
C5    C48   A    
C22   H33   S    
C13   C30   S    
C12   O15   A    
C4    C6    A    
C39   C40   S    
C6    C8    S    
C2    O13   S    
C43   H32   S    
C2    C4    A    
C30   O7    D    
C41   H27   S    
C7    N2    T    
C10   C19   S    
C23   C34   A    
C17   C18   A    
C39   H21   S    
C28   O4    S    
C38   H19   S    
N2    Zn1   S    
C21   C28   S    
C5    O9    S    
C35   H10   S    
C29   O6    S    
O19   Zn2   S    
C22   C24   A    
O14   Zn2   S    
C34   H35   S    
C36   H13   S    
C32   H5    S    
C37   H16   S    
O18   Zn2   S    
C48   O11   S    
O17   Zn1   S    
C11   C17   A    
C33   H9    S    
C40   H24   S    
C31   C32   S    
C31   H3    S    
C38   O11   S    
C20   C27   S    
C42   H28   S    
C8    N1    T    
C32   C33   S    
C13   C15   A    
C2    C3    A    
C9    O18   A    
C29   O5    D    
H2    O8    S    
C5    C6    A    
C27   O20   D    
C9    O16   A    
C41   O13   S    
C28   O3    D    
C18   C20   A    
C31   O9    S    
C12   O12   A    
C9    C18   S    
C20   C21   A    
C11   C29   S    
C42   H29   S    
C42   C43   S    
C13   C16   A    
C14   C15   A    
C10   O17   A    
C1    O14   A    
C15   H12   S    
C24   H23   S    
