data_mof_unit_9678.cif
_audit_creation_date              2012-12-11T18:06:58-0500
_audit_creation_method            fapswitch 2.2
_symmetry_space_group_name_H-M    P1
_symmetry_Int_Tables_number       1
_space_group_crystal_system       triclinic
_cell_length_a                    8.286064
_cell_length_b                    13.220249
_cell_length_c                    26.913567
_cell_angle_alpha                 97.622603
_cell_angle_beta                  93.035065
_cell_angle_gamma                 80.328138
_cell_volume                      2879.20859339

loop_
_atom_site_label
_atom_site_type_symbol
_atom_type_description
_atom_site_fract_x
_atom_site_fract_y
_atom_site_fract_z
_atom_type_partial_charge
Ba1   Ba    Ba6+2 0.859560 0.448380 0.523550 1.660471
Ba2   Ba    Ba6+2 0.330270 0.551530 0.476440 1.645922
C1    C     C_3   0.626356 0.098046 0.660017 -0.385807
C2    C     C_3   0.654412 0.195089 0.639326 0.314527
C3    C     C_3   0.487371 0.720226 0.627609 0.308335
C4    C     C_3   0.479295 0.755717 0.683734 -0.386584
C5    C     C_3   0.030618 0.761146 0.338988 0.360756
C6    C     C_3   0.039022 0.782478 0.285033 -0.337094
C7    C     C_3   0.476831 0.813905 0.327171 0.420449
C8    C     C_3   0.569516 0.800877 0.278253 -0.379325
C9    C     C_R   0.048322 0.416570 0.176215 0.593383
C10   C     C_R   0.896864 0.587533 0.176557 0.576703
C11   C     C_2   0.749657 0.544920 0.267887 -0.145676
C12   C     C_3   0.185863 0.244549 0.660889 0.299645
C13   C     C_3   0.724103 0.588676 0.321943 -0.052297
C14   C     C_1   0.987155 0.479699 0.341874 0.011458
C15   C     C_2   0.026999 0.467165 0.293623 -0.158678
C16   C     C_2   0.902964 0.501857 0.253288 0.215262
C17   C     C_R   0.037587 0.503795 0.100800 -0.122224
C18   C     C_R   0.097353 0.418329 0.126569 -0.044925
C19   C     C_R   0.209579 0.337520 0.102880 -0.090163
C20   C     C_R   0.932141 0.588328 0.125586 -0.033574
C21   C     C_2   0.853887 0.544191 0.358452 -0.087173
C22   C     C_2   0.350021 0.482611 0.641443 -0.306578
C23   C     C_3   0.181995 0.233204 0.716555 -0.013652
C24   C     C_R   0.217711 0.417832 0.972872 0.004241
C25   C     C_R   0.085976 0.599364 0.977293 0.037380
C26   C     C_R   0.173742 0.509716 0.949970 0.035245
C27   C     C_R   0.282668 0.327126 0.941839 -0.114237
C28   C     C_R   0.326088 0.328346 0.892273 0.189825
C29   C     C_R   0.294592 0.421708 0.870288 -0.044525
C30   C     C_R   0.215229 0.511854 0.899093 -0.115426
C31   C     C_R   0.177274 0.604696 0.877168 -0.022659
C32   C     C_R   0.215780 0.606522 0.826804 0.578996
C33   C     C_R   0.333781 0.427143 0.819860 0.580209
C34   C     C_3   0.075140 0.217310 0.377902 0.470312
C35   C     C_2   0.470158 0.500667 0.728387 -0.075699
C36   C     C_3   0.501991 0.497002 0.673076 -0.043207
C37   C     C_1   0.207669 0.529614 0.658426 0.065320
C38   C     C_2   0.174849 0.535236 0.706950 0.057595
C39   C     C_2   0.315321 0.518555 0.745038 0.191647
C40   C     C_R   0.187830 0.418644 0.025148 0.047115
C41   C     C_R   0.084683 0.505200 0.050426 0.012143
C42   C     C_R   0.030075 0.594097 0.025957 -0.003484
C43   C     C_R   0.259937 0.338455 0.053986 0.115928
C44   C     C_R   0.866894 0.672411 0.098940 0.218350
C45   C     C_3   0.052501 0.160546 0.325125 -0.347760
C46   C     C_R   0.056736 0.691891 0.954878 -0.106096
C47   C     C_R   0.101282 0.694309 0.906021 -0.065818
C48   C     C_R   0.917405 0.674654 0.050475 -0.134412
C49   C     C_R   0.765980 0.822329 0.484815 -0.276667
C50   C     C_R   0.427219 0.182432 0.514401 -0.282243
C51   C     C_R   0.407422 0.011565 0.534230 -0.105676
C52   C     C_R   0.342726 0.116535 0.535575 0.008722
C53   C     C_R   0.575755 0.147013 0.490490 0.028856
C54   C     C_R   0.641834 0.037015 0.487445 -0.022952
C55   C     C_R   0.554801 0.969273 0.509995 -0.073083
C56   C     C_3   0.994895 0.776041 0.583104 0.315393
C57   C     C_R   0.618766 0.860715 0.507763 0.050449
C58   C     C_R   0.851966 0.885102 0.463157 -0.014264
C59   C     C_R   0.791157 0.990776 0.463877 0.064208
C60   C     C_3   0.057390 0.879516 0.592475 -0.019723
C61   C     C_3   0.560736 0.216150 0.365261 0.496350
C62   C     C_3   0.593695 0.120901 0.323505 0.193174
H1    H     H_    0.776282 0.179884 0.621992 0.077638
H2    H     H_    0.171060 0.118698 0.310282 0.099058
H3    H     H_    0.968139 0.104356 0.326100 0.146057
H4    H     H_    0.002770 0.216574 0.298734 0.097598
H5    H     H_    0.860453 0.790773 0.577760 -0.000328
H6    H     H_    0.050944 0.733218 0.548321 0.029981
H7    H     H_    0.029781 0.918624 0.558195 0.046056
H8    H     H_    0.192327 0.866876 0.598576 0.096052
H9    H     H_    0.460280 0.205823 0.387886 -0.004100
H10   H     H_    0.639648 0.031584 0.629788 0.097569
H11   H     H_    0.473782 0.097871 0.310447 0.002556
H12   H     H_    0.556973 0.212500 0.610365 -0.008601
H13   H     H_    0.501249 0.108519 0.674329 0.124261
H14   H     H_    0.364666 0.704477 0.613408 0.004721
H15   H     H_    0.578731 0.648368 0.621196 0.044247
H16   H     H_    0.413022 0.836205 0.690681 0.124113
H17   H     H_    0.413140 0.705606 0.702267 0.072648
H18   H     H_    0.605071 0.753003 0.700536 0.123803
H19   H     H_    0.716013 0.080816 0.691083 0.138046
H20   H     H_    0.181925 0.310746 0.738058 0.091716
H21   H     H_    0.122808 0.692391 0.345078 0.119331
H22   H     H_    0.908616 0.742843 0.344736 -0.051020
H23   H     H_    0.052324 0.708492 0.259763 0.119789
H24   H     H_    0.927034 0.834280 0.274225 0.106163
H25   H     H_    0.145164 0.820907 0.280242 0.132876
H26   H     H_    0.386046 0.885877 0.326696 0.042570
H27   H     H_    0.697647 0.763975 0.283222 0.133034
H28   H     H_    0.566860 0.876543 0.264733 0.069108
H29   H     H_    0.089747 0.309717 0.653355 0.094500
H30   H     H_    0.509383 0.752812 0.248185 0.136731
H31   H     H_    0.153150 0.438748 0.283705 0.133691
H32   H     H_    0.265003 0.274158 0.123140 0.115371
H33   H     H_    0.573421 0.490932 0.754884 0.094963
H34   H     H_    0.294898 0.252169 0.954452 0.104870
H35   H     H_    0.653431 0.566234 0.240468 0.102705
H36   H     H_    0.002668 0.764966 0.974725 0.063403
H37   H     H_    0.306305 0.264236 0.653135 -0.045926
H38   H     H_    0.074266 0.767294 0.890701 0.114488
H39   H     H_    0.859516 0.739253 0.031807 0.064384
H40   H     H_    0.357395 0.433233 0.605682 0.068643
H41   H     H_    0.340806 0.963526 0.552014 0.092810
H42   H     H_    0.819273 0.742516 0.486478 0.052703
H43   H     H_    0.375437 0.263630 0.516487 0.063538
H44   H     H_    0.292968 0.180238 0.727527 0.121763
H45   H     H_    0.956316 0.262778 0.389462 0.060519
N1    N     N_R   0.949158 0.500955 0.201096 -0.421249
N2    N     N_R   0.287185 0.517427 0.798107 -0.429671
O1    O     O_2   0.907040 0.557650 0.617910 -0.448339
O2    O     O_3   0.699622 0.225913 0.397050 -0.621418
O3    O     O_3   0.158954 0.152795 0.631166 -0.610320
O4    O     O_2   0.282660 0.442310 0.382060 -0.407785
O5    O     O_3   0.050670 0.442340 0.442260 -0.475095
O6    O     O_3   0.504750 0.639360 0.411530 -0.441398
O7    O     O_3   0.193684 0.279221 0.376883 -0.653069
O8    O     O_3   0.618400 0.630290 0.524520 -0.483114
O9    O     O_3   0.090070 0.694820 0.435810 -0.458971
O10   O     O_2   0.193969 0.871511 0.461292 -0.493333
O11   O     O_3   0.060777 0.848528 0.371505 -0.619589
O12   O     O_3   0.139040 0.557570 0.557730 -0.500604
O13   O     O_3   0.571310 0.369620 0.475470 -0.476776
O14   O     O_2   0.348200 0.764910 0.523260 -0.474793
O15   O     O_3   0.534265 0.798928 0.604347 -0.641916
O16   O     O_2   0.402595 0.538305 0.326317 -0.494185
O17   O     O_3   0.387404 0.732616 0.326875 -0.578388
O18   O     O_2   0.093367 0.339474 0.197008 -0.614587
O19   O     O_2   0.409528 0.351578 0.795214 -0.584621
O20   O     O_2   0.822902 0.665738 0.199620 -0.608115
O21   O     O_2   0.187031 0.687832 0.808591 -0.612862
O22   O     O_3   0.684960 0.360550 0.588460 -0.488976
O23   O     O_2   0.836421 0.415564 0.673953 -0.494609
O24   O     O_3   0.031259 0.724406 0.625451 -0.635777
O25   O     O_3   0.648130 0.277437 0.678352 -0.598502
O26   O     O_2   0.841490 0.235060 0.476710 -0.429250
O27   O     O_3   0.099640 0.305100 0.564190 -0.489769
O28   O     O_2   0.000846 0.124197 0.545716 -0.503228
P1    P     P_3+3 0.072810 0.589830 0.610360 0.993334
P2    P     P_3+3 0.661990 0.251250 0.462170 1.014803
P3    P     P_3+3 0.150278 0.172726 0.567839 0.925730
P4    P     P_3+3 0.116900 0.410080 0.389630 0.984811
P5    P     P_3+3 0.048710 0.826317 0.433835 0.939675
P6    P     P_3+3 0.668658 0.390276 0.653159 0.966703
P7    P     P_3+3 0.533474 0.764014 0.539360 0.944261
P8    P     P_3+3 0.508058 0.621589 0.345663 0.978778
N3    N     N_2   0.978545 0.944930 0.634838 -0.416303
H46   H     H_    0.941081 0.019905 0.627615 0.226964
C63   C     C_3   0.065048 0.940406 0.682877 -0.158634
H47   H     H_    0.984258 0.982754 0.712968 0.111705
H48   H     H_    0.176532 0.976969 0.683338 0.123795
H49   H     H_    0.100239 0.859529 0.691093 0.140984
N4    N     N_2   0.513241 0.308679 0.341580 -0.385481
H50   H     H_    0.419461 0.306248 0.314821 0.180629
C64   C     C_3   0.644017 0.360291 0.330004 -0.089242
H51   H     H_    0.611055 0.397370 0.295584 0.075959
H52   H     H_    0.759541 0.306663 0.322522 0.057575
H53   H     H_    0.665278 0.415660 0.363105 0.079689
N5    N     N_2   0.671917 0.144142 0.279588 -0.413534
H54   H     H_    0.601123 0.201559 0.261977 0.185390
C65   C     C_3   0.731681 0.059338 0.241794 -0.226567
H55   H     H_    0.774102 0.090508 0.209308 0.111413
H56   H     H_    0.632454 0.014689 0.228266 0.103782
H57   H     H_    0.838723 0.008542 0.256478 0.123448
N6    N     N_3   0.693356 0.036012 0.345437 -0.484390
H58   H     H_    0.628819 0.021177 0.375154 0.127669
H59   H     H_    0.705690 0.969829 0.319607 0.170284
N7    N     N_3   0.580316 0.824226 0.373002 -0.502906
H60   H     H_    0.514879 0.875954 0.400454 0.160791
H61   H     H_    0.686824 0.851482 0.366870 0.120232
N8    N     N_2   0.396218 0.233418 0.864390 -0.385745
H62   H     H_    0.338441 0.172133 0.869025 0.174483
C66   C     C_3   0.572083 0.208282 0.871317 -0.155261
H63   H     H_    0.604469 0.193714 0.910641 0.077458
H64   H     H_    0.632573 0.272374 0.862443 0.134267
H65   H     H_    0.618564 0.137572 0.845723 0.099991
N9    N     N_3   0.397239 0.263305 0.036618 -0.517833
H66   H     H_    0.368464 0.189641 0.037882 0.164300
H67   H     H_    0.496958 0.272174 0.061369 0.176502
N10   N     N_2   0.746810 0.754983 0.119964 -0.379822
H68   H     H_    0.755905 0.826009 0.109407 0.180582
C67   C     C_3   0.580847 0.733340 0.114303 -0.177656
H69   H     H_    0.496860 0.798317 0.134501 0.100968
H70   H     H_    0.571007 0.661558 0.130436 0.122106
H71   H     H_    0.542264 0.724497 0.073980 0.078688
N11   N     N_3   0.009106 0.564010 0.722790 -0.449142
H72   H     H_    0.992878 0.523505 0.752473 0.176005
H73   H     H_    0.989976 0.642958 0.735804 0.204190
N12   N     N_3   0.847524 0.590295 0.409482 -0.438206
H74   H     H_    0.774606 0.551786 0.428449 0.201632
H75   H     H_    0.792456 0.667170 0.409944 0.156025
N13   N     N_3   0.888462 0.050384 0.442329 -0.431161
H76   H     H_    0.999952 0.042942 0.462250 0.220621
H77   H     H_    0.912105 0.019198 0.405471 0.211735
N14   N     N_2   0.036347 0.194624 0.727856 -0.414908
H78   H     H_    0.929773 0.238126 0.716178 0.251003
C68   C     C_3   0.030373 0.174404 0.779170 -0.242802
H79   H     H_    0.917306 0.142499 0.784039 0.110994
H80   H     H_    0.029172 0.247123 0.805275 0.114048
H81   H     H_    0.137704 0.116724 0.788478 0.119778
N15   N     N_2   0.129697 0.147396 0.414665 -0.414066
H82   H     H_    0.153101 0.185381 0.449594 0.196475
C69   C     C_3   0.247381 0.055176 0.400760 -0.279415
H83   H     H_    0.350939 0.072081 0.381678 0.064125
H84   H     H_    0.188355 0.999267 0.375109 0.165806
H85   H     H_    0.295303 0.019605 0.434521 0.132409

loop_
_geom_bond_atom_site_label_1
_geom_bond_atom_site_label_2
_ccdc_geom_bond_type
C25   C46   A    
C56   C60   S    
C53   C54   A    
N12   H74   S    
C4    H18   S    
C10   O20   D    
N7    H60   S    
O1    P1    D    
C7    N7    S    
C17   C18   A    
O9    P5    S    
O11   P5    S    
C41   C42   A    
C35   H33   S    
N9    H66   S    
O15   P7    S    
C33   N2    Am   
C5    C6    S    
C38   N11   S    
C5    H21   S    
C51   C52   A    
O8    P7    S    
C35   C36   S    
N15   C69   S    
C11   C16   D    
C53   P2    S    
O3    P3    S    
C44   N10   S    
C64   H51   S    
N3    C63   S    
O14   P7    D    
C67   H70   S    
Ba1   O1    S    
C28   C29   A    
O28   P3    D    
C55   C57   A    
C5    H22   S    
C8    H30   S    
C31   C47   A    
O5    P4    S    
C10   C20   A    
C22   C37   D    
C54   C55   A    
C34   C45   S    
Ba1   Ba2   S    
Ba1   O8    S    
C1    H10   S    
C66   H63   S    
C62   N6    S    
Ba2   O5    S    
C25   C42   A    
C50   H43   S    
C17   C41   A    
C14   C15   D    
N13   H77   S    
C63   H49   S    
C3    O15   S    
C23   H20   S    
C22   C36   S    
C68   H79   S    
C15   H31   S    
Ba1   O5    S    
C3    H15   S    
C34   O7    S    
C7    C8    S    
C12   H29   S    
N4    C64   S    
O25   P6    S    
C50   C53   A    
C2    O25   S    
C13   C21   S    
C8    H28   S    
C48   H39   S    
C4    H17   S    
C60   N3    S    
C9    N1    Am   
N6    H59   S    
Ba2   P4    S    
N7    H61   S    
O10   P5    D    
C62   N5    S    
C34   N15   S    
Ba1   O22   S    
C9    O18   D    
C45   H3    S    
Ba2   O6    S    
C50   C52   A    
C31   C32   A    
C19   C43   A    
N10   C67   S    
O24   P1    S    
C46   H36   S    
O4    P4    D    
C9    C18   A    
C7    O17   S    
C2    H12   S    
N15   H82   S    
C57   P7    S    
C26   C30   A    
C14   P4    S    
N3    H46   S    
N14   C68   S    
O7    P4    S    
O27   P3    S    
C67   H71   S    
C47   H38   S    
C51   C55   A    
C56   H6    S    
C12   H37   S    
C61   H9    S    
N10   H68   S    
O12   P1    S    
C58   C59   A    
C6    H24   S    
C40   C43   A    
N5    C65   S    
C11   H35   S    
C67   H69   S    
Ba1   O12   S    
C36   P6    S    
C27   C28   A    
C65   H57   S    
Ba2   O4    S    
C4    H16   S    
C29   C30   A    
C66   H65   S    
C69   H85   S    
C17   C20   A    
C68   H81   S    
C15   C16   S    
C60   H8    S    
C56   H5    S    
C69   H83   S    
Ba1   P1    S    
C33   O19   D    
C28   N8    S    
N4    H50   S    
C23   N14   S    
C43   N9    S    
C27   H34   S    
C46   C47   A    
C20   C44   A    
C69   H84   S    
C8    H27   S    
C14   C21   D    
C11   C13   S    
C1    H19   S    
N6    H58   S    
C29   C33   A    
O13   P2    S    
C49   C57   A    
C40   C41   A    
C5    O11   S    
C1    C2    S    
C1    H13   S    
C59   N13   S    
C45   H4    S    
C37   C38   D    
Ba1   O26   S    
N8    H62   S    
C24   C40   A    
C65   H55   S    
C42   C48   A    
O23   P6    D    
O26   P2    D    
C37   P1    S    
C38   C39   S    
N12   H75   S    
C45   H2    S    
C52   P3    S    
C63   H47   S    
C64   H53   S    
C16   N1    S    
C61   N4    S    
N14   H78   S    
C7    H26   S    
N9    H67   S    
Ba2   O8    S    
O17   P8    S    
C6    H25   S    
C19   H32   S    
Ba2   O13   S    
C56   O24   S    
C44   C48   A    
C24   C26   A    
O6    P8    S    
C6    H23   S    
C30   C31   A    
C64   H52   S    
Ba1   O13   S    
N11   H72   S    
C65   H56   S    
C12   O3    S    
C58   P5    S    
C13   P8    S    
C3    C4    S    
C49   H42   S    
C10   N1    Am   
C2    H1    S    
N8    C66   S    
C62   H11   S    
O2    P2    S    
C60   H7    S    
C63   H48   S    
C12   C23   S    
C35   C39   D    
N5    H54   S    
C66   H64   S    
N11   H73   S    
Ba1   P2    S    
C32   N2    Am   
C32   O21   D    
C61   C62   S    
C61   O2    S    
Ba2   O14   S    
C51   H41   S    
O22   P6    S    
C18   C19   A    
C24   C27   A    
N13   H76   S    
C39   N2    S    
C34   H45   S    
C54   C59   A    
C68   H80   S    
C49   C58   A    
C22   H40   S    
C3    H14   S    
Ba2   O9    S    
C21   N12   S    
Ba2   O12   S    
Ba1   O27   S    
C23   H44   S    
O16   P8    D    
C25   C26   A    
