data_mof_unit_40901.cif
_audit_creation_date              2013-03-05T16:42:12-0500
_audit_creation_method            fapswitch 2.2
_symmetry_space_group_name_H-M    P1
_symmetry_Int_Tables_number       1
_space_group_crystal_system       triclinic
_cell_length_a                    14.955002
_cell_length_b                    10.79866
_cell_length_c                    9.85492
_cell_angle_alpha                 90.1084
_cell_angle_beta                  89.853016
_cell_angle_gamma                 90.188392
_cell_volume                      1591.49360901

loop_
_atom_site_label
_atom_site_type_symbol
_atom_site_description
_atom_site_fract_x
_atom_site_fract_y
_atom_site_fract_z
_atom_type_partial_charge
O1    O     O_R   0.500010 0.316790 0.614690 -0.616931
O2    O     O_R   0.500000 0.316760 0.385350 -0.633564
C1    C     C_R   0.501275 0.259795 0.500016 0.889743
O3    O     O_R   0.367850 0.499990 0.614680 -0.608542
O4    O     O_R   0.367840 0.499950 0.385340 -0.625067
C2    C     C_R   0.326863 0.499610 0.499961 0.905160
Zn1   Zn    Zn3+2 0.500010 0.500020 0.653130 0.996715
Zn2   Zn    Zn3+2 0.499990 0.499980 0.346870 0.962023
O5    O     O_R   0.500000 0.683240 0.614650 -0.570118
O6    O     O_R   0.499990 0.683210 0.385310 -0.628767
O7    O     O_R   0.632160 0.500050 0.614660 -0.636856
O8    O     O_R   0.632150 0.500010 0.385320 -0.630423
C3    C     C_R   0.505288 0.739942 0.499929 0.910359
C4    C     C_R   0.673265 0.500147 0.499850 0.884941
C5    C     C_R   0.814643 0.557508 0.393670 -0.173718
C6    C     C_R   0.769016 0.500111 0.499633 -0.096289
C7    C     C_R   0.814041 0.442641 0.605516 -0.171405
C8    C     C_R   0.906747 0.436997 0.604417 0.013476
C9    C     C_R   0.953611 0.499467 0.499204 -0.005452
C10   C     C_R   0.907425 0.562514 0.394364 0.013080
C11   C     C_R   0.953832 0.372860 0.706889 0.310196
C12   C     C_R   0.046958 0.373643 0.704646 -0.249734
C13   C     C_R   0.093104 0.435134 0.601553 0.044479
C14   C     C_R   0.046699 0.498788 0.498773 0.059457
C15   C     C_R   0.093839 0.561497 0.395381 0.078108
C16   C     C_R   0.048361 0.624002 0.292938 -0.267967
C17   C     C_R   0.955231 0.626351 0.291714 0.321346
C18   C     C_R   0.185571 0.433377 0.599146 -0.168905
C19   C     C_R   0.231404 0.498685 0.499113 -0.076537
C20   C     C_R   0.186352 0.562118 0.397179 -0.223390
H1    H     H_    0.776861 0.599082 0.312203 0.197190
H2    H     H_    0.775825 0.401225 0.687108 0.191199
H3    H     H_    0.083438 0.324284 0.782545 0.197589
H4    H     H_    0.222021 0.380208 0.673870 0.187859
H5    H     H_    0.223386 0.613057 0.320539 0.146384
H6    H     H_    0.085390 0.673436 0.215174 0.173898
C21   C     C_R   0.529956 0.063082 0.617940 0.023916
C22   C     C_R   0.513381 0.128420 0.498874 -0.044676
C23   C     C_R   0.517251 0.064234 0.374688 -0.204349
H7    H     H_    0.513587 0.112118 0.278551 0.172096
C24   C     C_R   0.519023 0.935578 0.374191 -0.182618
H8    H     H_    0.512929 0.887652 0.277967 0.179965
C25   C     C_R   0.521388 0.871158 0.498018 -0.037169
C26   C     C_R   0.540377 0.937774 0.616192 -0.042457
C27   C     C_3   0.516504 0.928307 0.763369 0.113277
C28   C     C_3   0.500532 0.068650 0.763750 0.257818
H9    H     H_    0.574098 0.900132 0.827477 0.086438
H10   H     H_    0.547881 0.123344 0.827453 0.054530
C29   C     C_R   0.423361 0.522616 0.071983 0.153368
N1    N     N_R   0.499390 0.499140 0.142800 -0.109143
C30   C     C_R   0.577139 0.483825 0.071481 -0.100055
H11   H     H_    0.639187 0.469105 0.124978 0.169631
C31   C     C_R   0.577053 0.482936 0.927743 -0.111787
H12   H     H_    0.638957 0.467054 0.873741 0.168902
N2    N     N_R   0.499390 0.499180 0.857150 -0.134556
C32   C     C_R   0.423348 0.527129 0.928873 0.216714
C33   C     C_3   0.336847 0.455255 0.925427 0.231047
C34   C     C_3   0.339814 0.447408 0.079030 -0.562412
H13   H     H_    0.347199 0.367864 0.871157 0.114043
H14   H     H_    0.284556 0.496974 0.130984 0.223941
H15   H     H_    0.351828 0.352403 0.117155 0.183441
N3    N     N_R   0.436368 0.854726 0.787832 0.238001
O9    O     O_R   0.434670 0.781086 0.891670 -0.505834
O10   O     O_R   0.366426 0.864006 0.709975 -0.406855
O11   O     O_3   0.408618 0.098879 0.775608 -0.571202
C35   C     C_3   0.386051 0.136039 0.909528 0.088527
H16   H     H_    0.318610 0.177868 0.903227 0.173538
H17   H     H_    0.433490 0.206834 0.949660 0.101895
C36   C     C_3   0.376587 0.028315 0.009744 -0.333086
H18   H     H_    0.332366 0.956293 0.965487 0.281682
H19   H     H_    0.443479 0.988935 0.031896 0.227014
C37   C     C_3   0.333729 0.070183 0.142870 -0.972304
H20   H     H_    0.372632 0.146813 0.189047 0.264466
H21   H     H_    0.331675 0.991425 0.215126 0.283138
H22   H     H_    0.264223 0.102124 0.124951 0.280213
O12   O     O_3   0.257075 0.512273 0.878066 -0.638109
C38   C     C_3   0.254827 0.642189 0.890810 0.145587
H23   H     H_    0.292343 0.682340 0.804737 0.240243
H24   H     H_    0.282726 0.674889 0.989162 0.150865
C39   C     C_3   0.157754 0.684836 0.881524 -0.351626
H25   H     H_    0.130073 0.658983 0.780745 0.243644
H26   H     H_    0.117504 0.637510 0.961075 0.257636
C40   C     C_3   0.150059 0.824656 0.900617 -0.846606
H27   H     H_    0.175064 0.852135 0.002425 0.253532
H28   H     H_    0.078869 0.852470 0.892403 0.300526
H29   H     H_    0.189111 0.873993 0.821254 0.286996
N4    N     N_R   0.908738 0.304073 0.811525 0.202989
O13   O     O_R   0.850193 0.219667 0.779182 -0.392531
O14   O     O_R   0.938314 0.308340 0.935562 -0.362089
N5    N     N_R   0.910899 0.696652 0.188185 0.205481
O15   O     O_R   0.853025 0.781111 0.221928 -0.380459
O16   O     O_R   0.940534 0.693504 0.063914 -0.384709

loop_
_geom_bond_atom_site_label_1
_geom_bond_atom_site_label_2
_geom_bond_distance
_ccdc_geom_bond_type
C35   H17   1.113959 S    
N4    O13   1.301550 A    
C11   N4    1.437325 S    
C8    C11   1.415923 A    
C24   H8    1.083360 S    
C9    C10   1.420384 A    
Zn1   N2    2.010637 S    
N2    C32   1.371588 A    
N5    O15   1.301557 A    
C23   C24   1.389653 A    
C31   H12   1.080668 S    
Zn1   O7    2.011382 S    
C16   C17   1.393165 A    
C19   C20   1.393341 A    
C20   H5    1.084981 S    
C33   O12   1.424404 S    
C18   C19   1.391042 A    
C21   C22   1.393509 A    
O3    Zn1   2.013403 S    
O4    C2    1.283733 A    
O7    C4    1.286272 A    
C33   H13   1.095086 S    
C35   C36   1.533353 S    
C34   H14   1.109622 S    
C5    C6    1.391494 A    
C27   N3    1.455578 S    
C32   C33   1.506832 S    
C17   N5    1.437538 S    
C8    C9    1.420266 A    
C27   H9    1.113022 S    
C36   H19   1.110631 S    
O5    C3    1.288871 A    
N3    O10   1.303044 A    
C1    C22   1.430795 S    
C6    C7    1.391469 A    
C13   C14   1.410466 A    
C34   H15   1.108601 S    
C38   H24   1.112670 S    
C35   H16   1.108396 S    
C18   H4    1.083878 S    
C11   C12   1.392816 A    
C24   C25   1.406381 A    
C37   H22   1.110929 S    
N1    C30   1.367456 A    
C31   N2    1.367360 A    
C5    C10   1.388474 A    
C28   H10   1.114675 S    
C30   H11   1.080765 S    
C14   C15   1.410508 A    
C28   O11   1.418328 S    
C37   H21   1.110550 S    
C23   H7    1.081798 S    
C37   H20   1.107743 S    
C15   C16   1.395165 A    
C38   H23   1.104368 S    
C29   C34   1.489496 S    
C30   C31   1.416552 A    
C36   C37   1.527010 S    
C25   C26   1.396990 A    
N3    O9    1.297306 A    
N5    O16   1.301762 A    
C40   H27   1.111129 S    
Zn2   O8    2.013402 S    
C40   H29   1.110773 S    
C7    C8    1.387971 A    
C13   C18   1.383182 A    
O12   C38   1.408803 S    
C39   H26   1.111394 S    
C40   H28   1.110338 S    
O8    C4    1.286679 A    
C29   N1    1.360431 A    
N4    O14   1.301687 A    
C4    C6    1.431946 S    
O3    C2    1.287396 A    
Zn2   N1    2.011140 S    
C3    C25   1.436641 S    
C26   C27   1.496422 S    
C39   C40   1.525877 S    
C38   C39   1.527476 S    
C16   H6    1.084595 S    
C15   C20   1.383697 A    
Zn1   O5    2.015248 S    
C12   H3    1.084757 S    
O1    Zn1   2.013872 S    
O2    Zn2   2.015248 S    
C39   H25   1.111755 S    
O6    C3    1.286480 A    
O4    Zn2   2.011382 S    
C5    H1    1.082000 S    
C10   C17   1.416110 A    
C29   C32   1.411274 A    
C21   C26   1.362685 A    
C9    C14   1.392173 A    
C33   C34   1.517048 S    
C22   C23   1.406505 A    
O2    C1    1.287844 A    
C36   H18   1.108728 S    
C27   C28   1.534986 S    
C2    C19   1.427631 S    
Zn2   O6    2.013873 S    
O11   C35   1.418923 S    
C7    H2    1.081911 S    
C12   C13   1.394747 A    
O1    C1    1.285932 A    
C21   C28   1.502885 S    
