data_mof_unit_28305.cif
_audit_creation_date              2012-12-11T14:35:55-0500
_audit_creation_method            fapswitch 2.2
_symmetry_space_group_name_H-M    P1
_symmetry_Int_Tables_number       1
_space_group_crystal_system       triclinic
_cell_length_a                    13.522457
_cell_length_b                    13.515195
_cell_length_c                    27.488406
_cell_angle_alpha                 90.941868
_cell_angle_beta                  89.882599
_cell_angle_gamma                 60.242954
_cell_volume                      4360.41100974

loop_
_atom_site_label
_atom_site_type_symbol
_atom_type_description
_atom_site_fract_x
_atom_site_fract_y
_atom_site_fract_z
_atom_type_partial_charge
C1    C     C_R   0.620129 0.101740 0.570027 0.545564
C2    C     C_1   0.642841 0.714295 0.659546 -0.025555
C3    C     C_3   0.069581 0.164474 0.738390 -0.147046
C4    C     C_R   0.598431 0.781229 0.569037 0.544443
C5    C     C_3   0.155844 0.074384 0.773439 0.136155
C6    C     C_1   0.100713 0.198796 0.902683 -0.006543
C7    C     C_1   0.224734 0.141847 0.616580 -0.002930
C8    C     C_3   0.067976 0.257184 0.773130 0.118059
C9    C     C_3   0.151920 0.166935 0.808051 0.048261
C10   C     C_3   0.167532 0.254379 0.745594 0.133325
C11   C     C_3   0.171373 0.161931 0.710936 0.047424
C12   C     C_1   0.626564 0.738535 0.617281 -0.000147
C13   C     C_3   0.253519 0.164603 0.780606 -0.143806
C14   C     C_3   0.255483 0.071792 0.745837 0.124768
C15   C     C_1   0.130178 0.178645 0.860632 -0.032693
C16   C     C_R   0.276727 0.122565 0.569351 0.545555
C17   C     C_1   0.193988 0.153794 0.658459 -0.027537
C18   C     C_3   0.612680 0.280433 0.742632 -0.114718
C19   C     C_3   0.549359 0.243682 0.779632 -0.129414
C20   C     C_1   0.690128 0.204593 0.903917 -0.004392
C21   C     C_1   0.635595 0.135140 0.617881 0.000364
C22   C     C_3   0.721653 0.215795 0.773048 0.149386
C23   C     C_3   0.691586 0.564000 0.765977 -0.081875
C24   C     C_3   0.659993 0.179859 0.809545 0.034340
C25   C     C_3   0.759068 0.106382 0.743331 0.114481
C26   C     C_3   0.651504 0.168621 0.712723 0.077315
C27   C     C_3   0.699084 0.067449 0.779889 -0.102085
C28   C     C_R   0.623036 0.099425 0.431277 0.564878
C29   C     C_3   0.590224 0.132527 0.749339 0.097868
C30   C     C_1   0.672165 0.191382 0.862036 -0.034802
C31   C     C_1   0.644481 0.154422 0.660098 -0.013721
C32   C     C_R   0.731799 0.712575 0.358384 -0.131632
C33   C     C_R   0.741855 0.697569 0.307863 0.022670
C34   C     C_3   0.684783 0.649655 0.805439 0.033224
C35   C     C_R   0.754445 0.679221 0.205721 0.014363
C36   C     C_R   0.839667 0.686041 0.232545 -0.113479
C37   C     C_R   0.832734 0.696240 0.283044 -0.127611
C38   C     C_R   0.765365 0.658693 0.155096 0.055180
C39   C     C_R   0.679402 0.649405 0.130194 0.063599
C40   C     C_R   0.602075 0.775717 0.430362 0.543358
C41   C     C_R   0.559098 0.699781 0.356913 -0.127597
C42   C     C_R   0.564578 0.691426 0.306587 -0.007057
C43   C     C_R   0.655602 0.690916 0.281591 0.056648
C44   C     C_R   0.475936 0.691064 0.281190 -0.122149
C45   C     C_3   0.585184 0.661092 0.743290 0.139108
C46   C     C_R   0.474463 0.692437 0.230572 0.112896
C47   C     C_R   0.566741 0.689644 0.204381 0.052550
C48   C     C_R   0.659097 0.686059 0.230491 -0.010636
C49   C     C_R   0.573465 0.685146 0.153145 0.088209
C50   C     C_R   0.636989 0.719754 0.382580 -0.001542
C51   C     C_R   0.204824 0.060099 0.358152 0.087172
C52   C     C_R   0.278446 0.120220 0.430785 0.567537
C53   C     C_R   0.181781 0.072201 0.307717 0.029552
C54   C     C_R   0.151197 0.091233 0.205783 0.041747
C55   C     C_R   0.151446 0.001139 0.230753 -0.125455
C56   C     C_3   0.658066 0.692105 0.711670 0.072848
C57   C     C_R   0.167249 0.991238 0.280781 -0.143277
C58   C     C_R   0.135927 0.101395 0.154928 0.093691
C59   C     C_R   0.114640 0.204435 0.133205 -0.006144
C60   C     C_R   0.205352 0.240062 0.359139 -0.159030
C61   C     C_R   0.187268 0.250466 0.309533 -0.017473
C62   C     C_R   0.176855 0.166036 0.283298 0.034107
C63   C     C_R   0.185342 0.342014 0.285766 -0.101583
C64   C     C_3   0.766428 0.596245 0.734167 -0.114005
C65   C     C_R   0.172267 0.351842 0.235434 0.113356
C66   C     C_R   0.158845 0.269144 0.208771 0.036411
C67   C     C_3   0.576102 0.745754 0.783294 -0.105486
C68   C     C_R   0.162243 0.175450 0.232578 0.012722
C69   C     C_R   0.135756 0.281797 0.159232 -0.144422
C70   C     C_R   0.222234 0.142177 0.383188 0.037532
C71   C     C_R   0.558077 0.229248 0.361226 -0.161183
C72   C     C_R   0.563005 0.245136 0.311462 0.011139
C73   C     C_R   0.567848 0.271830 0.210021 0.048855
C74   C     C_R   0.477362 0.353785 0.239101 -0.104177
C75   C     C_R   0.474429 0.339820 0.289089 -0.132076
C76   C     C_3   0.760153 0.680964 0.774624 -0.101001
C77   C     C_R   0.574557 0.286919 0.159400 0.093092
C78   C     C_3   0.651194 0.777460 0.751375 -0.141159
C79   C     C_R   0.673664 0.206681 0.133375 -0.010762
C80   C     C_R   0.745026 0.058044 0.356698 0.095206
C81   C     C_R   0.746388 0.068227 0.305881 0.001445
C82   C     C_R   0.655167 0.162472 0.283317 0.032152
C83   C     C_R   0.834949 0.983752 0.277114 -0.108429
C84   C     C_R   0.833801 0.990953 0.226564 0.110900
C85   C     C_R   0.745164 0.087620 0.204363 0.035316
C86   C     C_R   0.656120 0.174113 0.232553 0.010774
C87   C     C_R   0.748160 0.102400 0.154711 -0.132296
C88   C     C_1   0.700777 0.603482 0.899793 -0.000999
C89   C     C_1   0.694239 0.627370 0.857532 -0.043336
C90   C     C_R   0.645724 0.133334 0.383664 0.034569
C91   C     C_R   0.050189 0.235623 0.950089 0.539864
C92   C     C_R   0.712429 0.561793 0.948097 0.545950
C93   C     C_R   0.722237 0.224872 0.951163 0.540178
C94   C     C_R   0.050402 0.243816 0.087685 0.543905
C95   C     C_R   0.706341 0.578284 0.085485 0.588217
C96   C     C_R   0.716582 0.232889 0.088590 0.543047
Cr1   Cr    Cr6+3 0.417550 0.169090 0.500530 1.022409
Cr2   Cr    Cr6+3 0.669180 0.913420 0.499920 1.040534
Cr3   Cr    Cr6+3 0.413260 0.917540 0.499520 1.051010
Cr4   Cr    Cr6+3 0.909170 0.177380 0.020380 1.041718
Cr5   Cr    Cr6+3 0.912710 0.429210 0.018220 1.048880
Cr6   Cr    Cr6+3 0.657170 0.432570 0.019030 1.042601
H1    H     H_    0.461749 0.297301 0.794527 0.109658
H2    H     H_    0.215585 0.305206 0.378254 0.134725
H3    H     H_    0.816936 0.036167 0.133168 0.178518
H4    H     H_    0.499827 0.800898 0.806067 0.120681
H5    H     H_    0.833129 0.688779 0.788401 0.126452
H6    H     H_    0.324763 0.167909 0.798869 0.093639
H7    H     H_    0.168153 0.401206 0.761437 0.241145
H8    H     H_    0.247733 0.328898 0.712736 0.217604
H9    H     H_    0.912573 0.386334 0.759627 0.224189
H10   H     H_    0.928967 0.344455 0.817281 0.242787
H11   H     H_    0.580550 0.366865 0.727784 0.128286
H12   H     H_    0.843242 0.538937 0.712073 0.128493
H13   H     H_    0.499276 0.057306 0.766751 0.213256
H14   H     H_    0.442584 0.152472 0.721844 0.231401
H15   H     H_    0.732430 0.980554 0.794415 0.101898
H16   H     H_    0.928114 0.000435 0.752838 0.216090
H17   H     H_    0.873893 0.967021 0.704686 0.239045
H18   H     H_    0.821301 0.280168 0.754099 0.220509
H19   H     H_    0.868501 0.194078 0.802229 0.232606
H20   H     H_    0.936436 0.573889 0.143114 0.229487
H21   H     H_    0.870543 0.716835 0.133048 0.241255
H22   H     H_    0.912493 0.683306 0.214921 0.112802
H23   H     H_    0.792929 0.726957 0.378207 0.121341
H24   H     H_    0.409103 0.795508 0.134924 0.241182
H25   H     H_    0.451576 0.653766 0.124761 0.295141
H26   H     H_    0.380125 0.617155 0.217088 0.233875
H27   H     H_    0.305782 0.760752 0.219175 0.218857
H28   H     H_    0.486568 0.703250 0.375506 0.129504
H29   H     H_    0.167322 0.012041 0.090898 0.235300
H30   H     H_    0.206052 0.932654 0.138217 0.207688
H31   H     H_    0.279497 0.889289 0.367619 0.224910
H32   H     H_    0.137387 0.963888 0.381077 0.217094
H33   H     H_    0.637048 0.863852 0.744392 0.142601
H34   H     H_    0.898784 0.702693 0.302696 0.091771
H35   H     H_    0.088043 0.502867 0.202332 0.214277
H36   H     H_    0.197595 0.489708 0.235283 0.213916
H37   H     H_    0.406709 0.383849 0.145143 0.226051
H38   H     H_    0.486583 0.366053 0.098132 0.239321
H39   H     H_    0.482862 0.288661 0.381964 0.126034
H40   H     H_    0.408580 0.429783 0.223739 0.129021
H41   H     H_    0.402917 0.403742 0.310350 0.095449
H42   H     H_    0.977255 0.832696 0.219481 0.211966
H43   H     H_    0.974121 0.933587 0.183965 0.240208
H44   H     H_    0.905030 0.910181 0.293420 0.092607
H45   H     H_    0.405524 0.692251 0.300719 0.093079
H46   H     H_    0.855197 0.890338 0.369226 0.221484
H47   H     H_    0.913889 0.976854 0.372678 0.217972
H48   H     H_    0.454751 0.630436 0.755200 0.229053
H49   H     H_    0.428072 0.729594 0.713456 0.262302
H50   H     H_    0.703452 0.478419 0.772720 0.141019
H51   H     H_    0.152952 0.928614 0.757895 0.242771
H52   H     H_    0.077265 0.000023 0.807642 0.215009
H53   H     H_    0.997039 0.162496 0.720706 0.129946
H54   H     H_    0.413497 0.946280 0.758149 0.224808
H55   H     H_    0.392739 0.986614 0.700595 0.242908
H56   H     H_    0.137493 0.938294 0.212090 0.116941
H57   H     H_    0.168269 0.919227 0.297885 0.095950
H58   H     H_    0.125807 0.357003 0.141417 0.165848
H59   H     H_    0.195071 0.405654 0.306426 0.091834
N1    N     N_3   0.169338 0.355930 0.730050 -0.604907
N2    N     N_3   0.214419 0.964034 0.383771 -0.605199
N3    N     N_3   0.172191 0.445649 0.211434 -0.654440
N4    N     N_3   0.482323 0.382262 0.135521 -0.607523
N5    N     N_3   0.923908 0.901466 0.197814 -0.652144
N6    N     N_3   0.842128 0.969913 0.381057 -0.600211
N7    N     N_3   0.489988 0.649648 0.725436 -0.625239
N8    N     N_3   0.154393 0.972833 0.789181 -0.607484
N9    N     N_3   0.356239 0.967440 0.729876 -0.619328
N10   N     N_3   0.968070 0.362651 0.788724 -0.608790
N11   N     N_3   0.518465 0.085669 0.734974 -0.657937
N12   N     N_3   0.873421 0.035135 0.723439 -0.642387
N13   N     N_3   0.795875 0.260300 0.786594 -0.651627
N14   N     N_3   0.864151 0.643198 0.128833 -0.604890
N15   N     N_3   0.475600 0.716148 0.123264 -0.598109
N16   N     N_3   0.381432 0.690501 0.206717 -0.658876
N17   N     N_3   0.139131 0.009589 0.126045 -0.602513
O1    O     O_R   0.301710 0.195650 0.554160 -0.504801
O2    O     O_R   0.635520 0.542770 0.964420 -0.505120
O3    O     O_R   0.665950 0.325030 0.970100 -0.497935
O4    O     O_R   0.522390 0.158990 0.550460 -0.495836
O5    O     O_R   0.816620 0.158530 0.074540 -0.512749
O6    O     O_R   0.004460 0.188870 0.069750 -0.473907
O7    O     O_R   0.025800 0.341780 0.072300 -0.522174
O8    O     O_R   0.807650 0.528950 0.067500 -0.467774
O9    O     O_R   0.633420 0.550490 0.071810 -0.490459
O10   O     O_R   0.664000 0.332180 0.069640 -0.487797
O11   O     O_3   0.826350 0.346390 0.019210 -0.258610
O12   O     O_R   0.658900 0.818120 0.449760 -0.503326
O13   O     O_R   0.694390 0.003530 0.554040 -0.502174
O14   O     O_R   0.657700 0.819660 0.549320 -0.497050
O15   O     O_R   0.501930 0.803280 0.552920 -0.502887
O16   O     O_R   0.318170 0.023580 0.549580 -0.492542
O17   O     O_R   0.303010 0.193990 0.446760 -0.536717
O18   O     O_R   0.523600 0.157450 0.450900 -0.516503
O19   O     O_R   0.695690 0.001860 0.446640 -0.470320
O20   O     O_R   0.503220 0.801620 0.445520 -0.514678
O21   O     O_R   0.319370 0.022040 0.450020 -0.455826
O22   O     O_3   0.499990 0.000010 0.499990 -0.258685
O23   O     O_R   0.818720 0.150820 0.967160 -0.507738
O24   O     O_R   0.006410 0.181720 0.970200 -0.497666
O25   O     O_R   0.027890 0.334070 0.964920 -0.504433
O26   O     O_R   0.809600 0.521790 0.967960 -0.495424

loop_
_geom_bond_atom_site_label_1
_geom_bond_atom_site_label_2
_ccdc_geom_bond_type
C66   C68   A    
C20   C93   S    
C63   C65   A    
C52   C70   S    
C1    C21   S    
C23   C45   S    
C91   O25   A    
C27   C29   S    
Cr6   O2    S    
C41   C42   A    
C96   O10   A    
C35   C36   A    
C18   C26   S    
C24   C27   S    
C14   N9    S    
C2    C12   T    
Cr6   O11   S    
C79   C87   A    
C81   C82   A    
H8    N1    S    
C95   O9    A    
Cr1   O4    S    
C47   C49   A    
C20   C30   T    
C85   C86   A    
C52   O17   A    
Cr3   O16   S    
C94   O6    A    
C83   C84   A    
Cr1   O18   S    
C36   C37   A    
C36   H22   S    
C76   C78   S    
Cr5   O11   S    
H7    N1    S    
C72   C75   A    
C41   H28   S    
C11   C14   S    
Cr1   O1    S    
C66   C69   A    
C54   C68   A    
C77   N4    S    
H49   N7    S    
C39   C95   S    
H36   N3    S    
H38   N4    S    
C69   H58   S    
C56   C78   S    
H32   N2    S    
H14   N11   S    
C23   H50   S    
C61   C63   A    
C18   C19   S    
C73   C74   A    
H37   N4    S    
Cr4   O5    S    
C9    C13   S    
C92   O2    A    
C22   N13   S    
C6    C15   T    
C54   C55   A    
Cr4   O24   S    
C55   H56   S    
C88   C92   S    
C45   C56   S    
C8    C9    S    
C7    C17   T    
C22   C25   S    
H47   N6    S    
Cr3   O22   S    
C45   C67   S    
C56   C64   S    
C51   N2    S    
C26   C29   S    
C51   C70   A    
C4    C12   S    
C93   O23   A    
C78   H33   S    
C80   N6    S    
H27   N16   S    
C92   O26   A    
C8    N10   S    
Cr2   O12   S    
C71   H39   S    
C6    C91   S    
C77   C79   A    
C57   H57   S    
C26   C31   S    
C10   N1    S    
C13   C14   S    
C80   C90   A    
Cr1   O22   S    
C67   C78   S    
C42   C44   A    
C13   H6    S    
Cr5   O7    S    
C35   C48   A    
H31   N2    S    
C18   H11   S    
C81   C83   A    
H29   N17   S    
C44   C46   A    
H43   N5    S    
C85   C87   A    
C4    O15   A    
C79   C96   S    
C64   H12   S    
C74   C75   A    
C33   C43   A    
C35   C38   A    
C84   N5    S    
C84   C85   A    
H16   N12   S    
Cr2   O14   S    
C3    C8    S    
Cr5   O25   S    
C53   C57   A    
C80   C81   A    
C25   C26   S    
C82   C86   A    
C19   H1    S    
C10   C13   S    
C33   C37   A    
H52   N8    S    
H42   N5    S    
C60   C61   A    
C51   C53   A    
H30   N17   S    
C32   H23   S    
H19   N13   S    
C5    C9    S    
H55   N9    S    
C83   H44   S    
C21   C31   T    
Cr4   O23   S    
C47   C48   A    
C87   H3    S    
C60   C70   A    
C23   C34   S    
H48   N7    S    
C3    H53   S    
C64   C76   S    
C37   H34   S    
C58   N17   S    
C52   O21   A    
C32   C50   A    
C5    C14   S    
C75   H41   S    
C59   C69   A    
C1    O13   A    
H18   N13   S    
C23   C64   S    
C59   C94   S    
C76   H5    S    
C55   C57   A    
Cr4   O11   S    
C22   C24   S    
C58   C59   A    
C46   N16   S    
C25   C27   S    
C42   C43   A    
C96   O5    A    
H51   N8    S    
Cr5   O8    S    
C19   C29   S    
C41   C50   A    
H24   N15   S    
C54   C58   A    
C27   H15   S    
H25   N15   S    
C63   H59   S    
C46   C47   A    
C11   C17   S    
C73   C77   A    
Cr2   O19   S    
C39   C49   A    
C18   C22   S    
Cr6   O3    S    
C7    C16   S    
Cr6   O9    S    
Cr2   O13   S    
C3    C5    S    
Cr5   O26   S    
C34   C67   S    
H35   N3    S    
H21   N14   S    
C1    O4    A    
C16   O1    A    
C67   H4    S    
Cr2   O22   S    
C3    C11   S    
Cr3   O15   S    
C28   O19   A    
C94   O7    A    
C62   C68   A    
C65   N3    S    
C43   C48   A    
C32   C33   A    
Cr1   O17   S    
C4    O14   A    
C19   C24   S    
C9    C15   S    
C34   C89   S    
C71   C72   A    
C2    C56   S    
H17   N12   S    
C38   N14   S    
C38   C39   A    
C71   C90   A    
C40   O20   A    
C40   C50   S    
Cr3   O20   S    
H54   N9    S    
C28   O18   A    
C93   O3    A    
C29   N11   S    
C74   H40   S    
C61   C62   A    
Cr4   O6    S    
C45   N7    S    
C24   C30   S    
C73   C86   A    
C91   O24   A    
C16   O16   A    
C10   C11   S    
H10   N10   S    
C25   N12   S    
H13   N11   S    
C40   O12   A    
C88   C89   T    
C53   C62   A    
C8    C10   S    
C65   C66   A    
Cr3   O21   S    
H46   N6    S    
C5    N8    S    
C28   C90   S    
H26   N16   S    
Cr6   O10   S    
C60   H2    S    
C44   H45   S    
C49   N15   S    
C72   C82   A    
H20   N14   S    
C95   O8    A    
C34   C76   S    
H9    N10   S    
