data_mof_unit_40277.cif
_audit_creation_date              2012-12-10T17:14:29-0500
_audit_creation_method            fapswitch 2.2
_symmetry_space_group_name_H-M    P1
_symmetry_Int_Tables_number       1
_space_group_crystal_system       triclinic
_cell_length_a                    15.717837
_cell_length_b                    14.743047
_cell_length_c                    10.1488
_cell_angle_alpha                 89.999558
_cell_angle_beta                  83.370831
_cell_angle_gamma                 90.000932
_cell_volume                      2336.04570203

loop_
_atom_site_label
_atom_site_type_symbol
_atom_type_description
_atom_site_fract_x
_atom_site_fract_y
_atom_site_fract_z
_atom_type_partial_charge
C1    C     C_R   0.385507 0.118292 0.554954 0.829050
C2    C     C_2   0.508645 0.983362 0.070799 -0.120975
C3    C     C_2   0.991349 0.483420 0.929209 -0.120945
C4    C     C_2   0.008653 0.483425 0.070793 -0.120894
C5    C     C_2   0.333169 0.800869 0.579759 0.435946
C6    C     C_2   0.686386 0.177865 0.410476 0.423686
C7    C     C_2   0.666840 0.800884 0.420233 0.435918
C8    C     C_2   0.313617 0.177864 0.589531 0.423629
C9    C     C_2   0.833163 0.300874 0.579759 0.435988
C10   C     C_2   0.186386 0.677862 0.410473 0.423696
C11   C     C_2   0.166828 0.300864 0.420250 0.436003
C12   C     C_R   0.610522 0.877421 0.447071 0.801698
C13   C     C_2   0.813616 0.677860 0.589530 0.423703
C14   C     C_2   0.308322 0.755861 0.476888 -0.245192
C15   C     C_2   0.742762 0.188197 0.497997 -0.225637
C16   C     C_2   0.691692 0.755875 0.523100 -0.245217
C17   C     C_2   0.257219 0.188172 0.502022 -0.225672
C18   C     C_2   0.808330 0.255854 0.476888 -0.245195
C19   C     C_2   0.242752 0.688207 0.498001 -0.225654
C20   C     C_2   0.191676 0.255860 0.523126 -0.245137
C21   C     C_2   0.757269 0.688232 0.501975 -0.225657
C22   C     C_R   0.368178 0.031694 0.144290 0.226632
C23   C     C_R   0.614492 0.118296 0.445047 0.829041
C24   C     C_R   0.295050 0.981430 0.190261 -0.138441
C25   C     C_R   0.213656 0.013443 0.170994 -0.179556
C26   C     C_R   0.204854 0.096139 0.106573 -0.066622
C27   C     C_R   0.277422 0.147207 0.061945 -0.007253
C28   C     C_R   0.358856 0.115602 0.081618 -0.186498
C29   C     C_R   0.631819 0.031698 0.855713 0.226670
C30   C     C_R   0.704951 0.981416 0.809785 -0.138480
C31   C     C_R   0.786341 0.013429 0.829082 -0.179517
C32   C     C_R   0.795131 0.096142 0.893489 -0.066637
C33   C     C_R   0.722558 0.147227 0.938068 -0.007196
C34   C     C_R   0.389478 0.877418 0.552929 0.801652
C35   C     C_R   0.641130 0.115618 0.918372 -0.186520
C36   C     C_R   0.868160 0.531640 0.144310 0.226540
C37   C     C_R   0.795075 0.481233 0.190064 -0.138461
C38   C     C_R   0.713660 0.513202 0.170812 -0.179375
C39   C     C_R   0.704798 0.596001 0.106641 -0.066968
C40   C     C_R   0.777327 0.647201 0.062229 -0.006982
C41   C     C_R   0.858781 0.615628 0.081865 -0.186483
C42   C     C_R   0.131845 0.531624 0.855694 0.226529
C43   C     C_R   0.204915 0.481156 0.810068 -0.138543
C44   C     C_R   0.286335 0.513085 0.829381 -0.179240
C45   C     C_R   0.885509 0.618295 0.554954 0.829000
C46   C     C_R   0.295216 0.595903 0.893482 -0.067133
C47   C     C_R   0.222702 0.647167 0.937758 -0.006950
C48   C     C_R   0.141244 0.615634 0.918061 -0.186417
C49   C     C_R   0.110523 0.377418 0.447072 0.801640
C50   C     C_R   0.114491 0.618295 0.445047 0.829005
C51   C     C_R   0.889476 0.377420 0.552929 0.801677
C52   C     C_2   0.491356 0.983356 0.929201 -0.120988
F1    F     F_    0.694317 0.223034 0.292598 -0.686011
F2    F     F_    0.305064 0.777967 0.707331 -0.678660
F3    F     F_    0.305725 0.223077 0.707397 -0.685999
F4    F     F_    0.694955 0.778004 0.292656 -0.678674
F5    F     F_    0.194333 0.723005 0.292579 -0.685879
F6    F     F_    0.805033 0.277992 0.707329 -0.678574
F7    F     F_    0.805646 0.722966 0.707456 -0.685892
F8    F     F_    0.194925 0.277951 0.292683 -0.678574
H1    H     H_    0.736186 0.152155 0.592193 0.205942
H2    H     H_    0.427160 0.968005 0.906373 0.184880
H3    H     H_    0.072859 0.468119 0.093616 0.184854
H4    H     H_    0.927142 0.468114 0.906389 0.184864
H5    H     H_    0.301117 0.917110 0.239547 0.175192
H6    H     H_    0.157409 0.974119 0.205982 0.171673
H7    H     H_    0.141811 0.120845 0.091789 0.152727
H8    H     H_    0.270520 0.211536 0.012915 0.190984
H9    H     H_    0.414638 0.156159 0.048265 0.147796
H10   H     H_    0.698890 0.917091 0.760503 0.175182
H11   H     H_    0.842592 0.974091 0.794131 0.171654
H12   H     H_    0.330891 0.774433 0.375105 0.190701
H13   H     H_    0.858168 0.120851 0.908292 0.152711
H14   H     H_    0.729451 0.211568 0.987087 0.191001
H15   H     H_    0.585343 0.156184 0.951695 0.147791
H16   H     H_    0.801195 0.416853 0.239183 0.175175
H17   H     H_    0.657444 0.473771 0.205623 0.171779
H18   H     H_    0.641740 0.620681 0.091878 0.152746
H19   H     H_    0.770378 0.711606 0.013389 0.191027
H20   H     H_    0.914535 0.656279 0.048674 0.147848
H21   H     H_    0.198778 0.416760 0.761007 0.175158
H22   H     H_    0.342541 0.473604 0.794676 0.171822
H23   H     H_    0.263758 0.152087 0.407842 0.205922
H24   H     H_    0.358279 0.620548 0.908299 0.152710
H25   H     H_    0.229668 0.711585 0.986550 0.191016
H26   H     H_    0.085501 0.656327 0.951160 0.147833
H27   H     H_    0.669116 0.774433 0.624885 0.190716
H28   H     H_    0.236163 0.652183 0.592205 0.205969
H29   H     H_    0.830912 0.274416 0.375106 0.190628
H30   H     H_    0.763873 0.652231 0.407749 0.205993
H31   H     H_    0.169123 0.274451 0.624904 0.190606
H32   H     H_    0.572842 0.968019 0.093629 0.184890
N1    N     N_2   0.549450 0.000000 0.831550 -0.131504
N2    N     N_2   0.450550 0.000000 0.168450 -0.131509
N3    N     N_2   0.049450 0.500000 0.831550 -0.131516
N4    N     N_2   0.950550 0.500000 0.168450 -0.131515
O1    O     O_R   0.398960 0.091100 0.433300 -0.638784
O2    O     O_R   0.569290 0.908910 0.353790 -0.576605
O3    O     O_R   0.569290 0.091090 0.353790 -0.564946
O4    O     O_R   0.430710 0.908910 0.646210 -0.576601
O5    O     O_R   0.930710 0.591090 0.646210 -0.564930
O6    O     O_R   0.069290 0.408910 0.353790 -0.576617
O7    O     O_R   0.069290 0.591090 0.353790 -0.564929
O8    O     O_R   0.930710 0.408910 0.646210 -0.576619
O9    O     O_R   0.601040 0.908900 0.566700 -0.659730
O10   O     O_R   0.601040 0.091100 0.566700 -0.638807
O11   O     O_R   0.398960 0.908900 0.433300 -0.659747
O12   O     O_R   0.898960 0.591100 0.433300 -0.638830
O13   O     O_R   0.101040 0.408900 0.566700 -0.659638
O14   O     O_R   0.101040 0.591100 0.566700 -0.638820
O15   O     O_R   0.898960 0.408900 0.433300 -0.659664
O16   O     O_R   0.430710 0.091090 0.646210 -0.564960
Zn1   Zn    Zn3+2 0.478810 0.000000 0.357840 0.969359
Zn2   Zn    Zn3+2 0.521190 0.000000 0.642160 0.969359
Zn3   Zn    Zn3+2 0.978810 0.500000 0.357840 0.969379
Zn4   Zn    Zn3+2 0.021190 0.500000 0.642160 0.969383

loop_
_geom_bond_atom_site_label_1
_geom_bond_atom_site_label_2
_ccdc_geom_bond_type
C15   C18   S    
C23   O3    A    
C16   C21   S    
C1    C8    S    
C28   H9    S    
C9    C51   S    
C12   O9    A    
C41   H20   S    
O16   Zn2   S    
C3    H4    S    
C5    F2    S    
C4    H3    S    
C35   H15   S    
C26   C27   A    
C29   C30   A    
O10   Zn2   S    
C26   H7    S    
C47   H25   S    
O12   Zn3   S    
C36   C37   A    
C44   H22   S    
C1    O16   A    
O8    Zn4   S    
C30   C31   A    
C50   O14   A    
C17   C20   S    
C9    F6    S    
O11   Zn1   S    
O6    Zn3   S    
O13   Zn4   S    
C6    C15   D    
C4    N4    D    
C31   C32   A    
C16   H27   S    
C34   O4    A    
N4    Zn3   S    
C27   H8    S    
N3    Zn4   S    
C12   O2    A    
C45   O12   A    
C31   H11   S    
C50   O7    A    
C22   C28   A    
C22   N2    S    
C36   C41   A    
C7    F4    S    
C8    F3    S    
C30   H10   S    
N2    Zn1   S    
C44   C46   A    
C21   H30   S    
C7    C12   S    
C20   H31   S    
C11   C20   D    
C42   N3    S    
C39   H18   S    
O9    Zn2   S    
C2    N2    D    
C10   F5    S    
O4    Zn2   S    
C24   C25   A    
C19   H28   S    
C1    O1    A    
C49   O6    A    
C45   O5    A    
O2    Zn1   S    
C25   C26   A    
C23   O10   A    
C17   H23   S    
O7    Zn3   S    
C43   C44   A    
C37   C38   A    
C11   C49   S    
C33   H14   S    
C36   N4    S    
C47   C48   A    
C10   C19   D    
C5    C34   S    
C15   H1    S    
C40   H19   S    
C13   C21   D    
C52   N1    D    
C42   C48   A    
C2    H32   S    
C5    C14   D    
C2    C52   S    
C24   H5    S    
C46   H24   S    
C7    C16   D    
C37   H16   S    
C43   H21   S    
C48   H26   S    
C42   C43   A    
C34   O11   A    
C6    F1    S    
O1    Zn1   S    
C3    C4    S    
C10   C50   S    
O14   Zn4   S    
C32   H13   S    
C13   C45   S    
C49   O13   A    
C46   C47   A    
C40   C41   A    
C51   O15   A    
C18   H29   S    
C14   H12   S    
C14   C19   S    
C25   H6    S    
O3    Zn1   S    
C3    N3    D    
C13   F7    S    
C38   H17   S    
C29   C35   A    
C8    C17   D    
C32   C33   A    
C51   O8    A    
C52   H2    S    
C29   N1    S    
C38   C39   A    
C6    C23   S    
C33   C35   A    
C22   C24   A    
N1    Zn2   S    
C39   C40   A    
C9    C18   D    
C27   C28   A    
O5    Zn4   S    
O15   Zn3   S    
C11   F8    S    
