data_mof_unit_48851.cif
_audit_creation_date              2012-12-11T15:27:36-0500
_audit_creation_method            fapswitch 2.2
_symmetry_space_group_name_H-M    P1
_symmetry_Int_Tables_number       1
_space_group_crystal_system       triclinic
_cell_length_a                    23.256224
_cell_length_b                    7.30052
_cell_length_c                    15.102875
_cell_angle_alpha                 90.352541
_cell_angle_beta                  108.265845
_cell_angle_gamma                 89.636743
_cell_volume                      2434.92805238

loop_
_atom_site_label
_atom_site_type_symbol
_atom_type_description
_atom_site_fract_x
_atom_site_fract_y
_atom_site_fract_z
_atom_type_partial_charge
O1    O     O_R   0.711000 0.648610 0.341170 -0.538512
O2    O     O_R   0.289000 0.351390 0.658830 -0.538505
O3    O     O_R   0.789000 0.148610 0.158830 -0.541539
O4    O     O_R   0.211000 0.851390 0.841170 -0.541559
O5    O     O_R   0.829650 0.322030 0.336650 -0.538455
O6    O     O_R   0.170350 0.677970 0.663350 -0.538457
O7    O     O_R   0.670350 0.822030 0.163350 -0.535285
O8    O     O_R   0.329650 0.177970 0.836650 -0.535280
C1    C     C_R   0.854264 0.485638 0.356822 0.738178
C2    C     C_R   0.145736 0.514362 0.643178 0.738190
C3    C     C_R   0.645736 0.985952 0.143168 0.737817
C4    C     C_R   0.354264 0.014048 0.856832 0.737809
O9    O     O_R   0.713950 0.319280 0.352070 -0.541007
O10   O     O_R   0.286050 0.680720 0.647930 -0.541004
O11   O     O_R   0.786050 0.819280 0.147930 -0.533915
O12   O     O_R   0.213950 0.180720 0.852070 -0.533876
O13   O     O_R   0.672470 0.142870 0.174360 -0.537112
O14   O     O_R   0.327530 0.857130 0.825640 -0.537120
O15   O     O_R   0.827530 0.642870 0.325640 -0.535272
O16   O     O_R   0.172470 0.357130 0.674360 -0.535270
C5    C     C_R   0.701972 0.488198 0.376126 0.750541
C6    C     C_R   0.298031 0.511802 0.623879 0.750564
C7    C     C_R   0.798025 0.986713 0.123744 0.751322
C8    C     C_R   0.201973 0.013288 0.876254 0.751323
O17   O     O_3   0.736530 0.478650 0.191680 -0.380942
O18   O     O_3   0.263470 0.521350 0.808320 -0.380940
O19   O     O_3   0.763470 0.978650 0.308320 -0.383201
O20   O     O_3   0.236530 0.021350 0.691680 -0.383191
V1    V     V_3+5 0.752500 0.206170 0.260820 1.446342
V2    V     V_3+5 0.247500 0.793830 0.739180 1.446404
V3    V     V_3+5 0.747500 0.706170 0.239180 1.464371
V4    V     V_3+5 0.252500 0.293830 0.760820 1.464503
C9    C     C_R   0.826824 0.990753 0.050523 -0.113015
C10   C     C_R   0.173179 0.009281 0.949480 -0.113017
C11   C     C_R   0.672900 0.499392 0.448787 -0.112207
C12   C     C_R   0.327103 0.500601 0.551217 -0.112164
C13   C     C_R   0.823375 0.944533 0.890495 -0.261047
C14   C     C_R   0.176605 0.056007 0.109466 -0.261135
C15   C     C_R   0.677039 0.544174 0.609126 -0.270015
C16   C     C_R   0.322962 0.455778 0.390879 -0.270142
C17   C     C_R   0.792666 0.960463 0.957102 0.459445
C18   C     C_R   0.207324 0.039926 0.042876 0.459551
C19   C     C_R   0.707140 0.534014 0.541640 0.457937
C20   C     C_R   0.292858 0.465981 0.458366 0.458065
C21   C     C_R   0.889588 0.012071 0.076592 -0.299175
C22   C     C_R   0.110421 0.987812 0.923420 -0.299195
C23   C     C_R   0.609979 0.484012 0.422716 -0.301870
C24   C     C_R   0.390024 0.515960 0.577287 -0.301903
C25   C     C_R   0.921082 0.997358 0.010595 0.090265
C26   C     C_R   0.078913 0.002848 0.989385 0.090256
C27   C     C_R   0.578721 0.501801 0.488828 0.092063
C28   C     C_R   0.421281 0.498124 0.511178 0.092075
C29   C     C_R   0.886569 0.962457 0.916551 0.085074
C30   C     C_R   0.113415 0.037986 0.083410 0.085126
C31   C     C_R   0.613718 0.530589 0.583257 0.081673
C32   C     C_R   0.386284 0.469328 0.416750 0.081737
C33   C     C_R   0.985589 0.011476 0.035169 0.071140
C34   C     C_R   0.014401 0.988823 0.964797 0.071130
C35   C     C_R   0.514161 0.491481 0.464402 0.072584
C36   C     C_R   0.485842 0.508417 0.535605 0.072587
C37   C     C_R   0.977724 0.953598 0.872229 -0.182745
C38   C     C_R   0.022255 0.046938 0.127716 -0.182763
C39   C     C_R   0.523038 0.534227 0.628808 -0.188192
C40   C     C_R   0.476965 0.465636 0.371201 -0.188189
C41   C     C_R   0.915288 0.941778 0.848917 -0.172637
C42   C     C_R   0.084688 0.058851 0.151023 -0.172651
C43   C     C_R   0.585478 0.545397 0.651727 -0.186740
C44   C     C_R   0.414524 0.454474 0.348282 -0.186769
H1    H     H_    0.889196 0.914617 0.776922 0.116286
H2    H     H_    0.110770 0.086240 0.222999 0.116241
H3    H     H_    0.611989 0.566304 0.724155 0.131092
H4    H     H_    0.388014 0.433541 0.275855 0.131051
H5    H     H_    0.087651 0.965866 0.850262 0.118601
H6    H     H_    0.912374 0.033608 0.149776 0.118585
H7    H     H_    0.412905 0.540830 0.650154 0.117730
H8    H     H_    0.587098 0.459171 0.349846 0.117734
H9    H     H_    0.798466 0.913020 0.818599 0.112184
H10   H     H_    0.201499 0.087751 0.181342 0.112124
H11   H     H_    0.702812 0.561799 0.681996 0.123644
H12   H     H_    0.297194 0.438150 0.318006 0.123529
H13   H     H_    0.995628 0.933306 0.815303 0.123147
H14   H     H_    0.004341 0.067497 0.184613 0.123158
H15   H     H_    0.505589 0.546339 0.686650 0.124617
H16   H     H_    0.494414 0.453479 0.313362 0.124619
C45   C     C_1   0.416752 0.006607 0.918789 -0.180155
C46   C     C_1   0.583248 0.993392 0.081210 -0.180167
C47   C     C_1   0.083244 0.507367 0.581202 -0.178589
C48   C     C_1   0.916756 0.492633 0.418797 -0.178609
C49   C     C_1   0.469138 0.002217 0.969988 0.001026
C50   C     C_1   0.530862 0.997783 0.030012 0.001023
C51   C     C_1   0.030862 0.502594 0.530009 0.003528
C52   C     C_1   0.969138 0.497406 0.469991 0.003525
O21   O     O_3   0.269338 0.069085 0.064111 -0.560456
C53   C     C_3   0.302640 0.987865 0.149573 -0.263939
H17   H     H_    0.285200 0.849884 0.158951 0.137543
H18   H     H_    0.303621 0.079934 0.208868 0.141029
H19   H     H_    0.350133 0.969324 0.150122 0.168543
O22   O     O_3   0.730644 0.931462 0.935830 -0.560480
C54   C     C_3   0.697381 0.013521 0.850578 -0.263917
H20   H     H_    0.696352 0.922046 0.791047 0.141103
H21   H     H_    0.714886 0.151601 0.841551 0.137526
H22   H     H_    0.649896 0.032042 0.850074 0.168526
O23   O     O_3   0.230128 0.457952 0.435676 -0.559259
C55   C     C_3   0.205882 0.313231 0.372868 -0.264257
H23   H     H_    0.234075 0.186385 0.389611 0.132874
H24   H     H_    0.199238 0.356799 0.299997 0.143309
H25   H     H_    0.160624 0.278921 0.377938 0.165573
O24   O     O_3   0.769868 0.542078 0.564355 -0.559266
C56   C     C_3   0.794054 0.687223 0.626918 -0.264121
H26   H     H_    0.800671 0.644184 0.699860 0.143240
H27   H     H_    0.765834 0.813986 0.609924 0.132890
H28   H     H_    0.839319 0.721435 0.621839 0.165561

loop_
_geom_bond_atom_site_label_1
_geom_bond_atom_site_label_2
_ccdc_geom_bond_type
O17   V3    S    
O1    C5    A    
O21   C53   S    
C47   C51   T    
O19   V1    S    
C18   O21   S    
C9    C21   A    
O3    C7    A    
C10   C18   A    
O15   V3    S    
C55   H24   S    
C25   C33   A    
C33   C38   A    
O7    C3    A    
C35   C40   A    
C26   C30   A    
C4    C45   S    
C36   C39   A    
C40   C44   A    
O9    V1    S    
C23   H8    S    
C14   C18   A    
C56   H27   S    
C1    C48   S    
O4    C8    A    
C25   C29   A    
C3    C46   S    
O1    V3    S    
O13   V1    S    
O24   C56   S    
O2    V4    S    
O3    V1    S    
C40   H16   S    
C28   C36   A    
C1    O15   A    
C15   C31   A    
C48   C52   T    
C2    O16   A    
C16   C32   A    
O2    C6    A    
C16   H12   S    
C10   C22   A    
C11   C19   A    
C16   C20   A    
C27   C31   A    
C44   H4    S    
C13   C29   A    
C34   C37   A    
O11   C7    A    
C38   H14   S    
C11   C23   A    
C35   C36   A    
O12   C8    A    
C24   H7    S    
O10   V2    S    
C55   H23   S    
C20   O23   S    
O5    V1    S    
C39   C43   A    
C2    C47   S    
O7    V3    S    
C38   C42   A    
O8    V4    S    
C46   C50   T    
C56   H28   S    
C51   C52   S    
C45   C49   T    
O18   V4    S    
C15   C19   A    
C14   H10   S    
C53   H19   S    
C7    C9    S    
C32   C44   A    
C13   H9    S    
C8    C10   S    
C39   H15   S    
C21   H6    S    
C26   C34   A    
O5    C1    A    
C31   C43   A    
C54   H20   S    
C14   C30   A    
C21   C25   A    
O8    C4    A    
O9    C5    A    
C53   H18   S    
O14   V2    S    
C54   H21   S    
C12   C20   A    
C27   C35   A    
C29   C41   A    
O16   V4    S    
C3    O13   A    
O6    V2    S    
O6    C2    A    
C23   C27   A    
O11   V3    S    
C30   C42   A    
O12   V4    S    
C6    C12   S    
C22   C26   A    
C9    C17   A    
O10   C6    A    
O20   V2    S    
C5    C11   S    
C37   H13   S    
C56   H26   S    
C33   C34   A    
C42   H2    S    
C41   H1    S    
C12   C24   A    
C43   H3    S    
C19   O24   S    
C22   H5    S    
C13   C17   A    
C53   H17   S    
C37   C41   A    
C24   C28   A    
C54   H22   S    
O22   C54   S    
C4    O14   A    
O23   C55   S    
C17   O22   S    
C49   C50   S    
C55   H25   S    
O4    V2    S    
C28   C32   A    
C15   H11   S    
