data_mof_unit_65055.cif
_audit_creation_date              2012-12-10T16:35:57-0500
_audit_creation_method            fapswitch 2.2
_symmetry_space_group_name_H-M    P1
_symmetry_Int_Tables_number       1
_space_group_crystal_system       triclinic
_cell_length_a                    14.152369
_cell_length_b                    16.497662
_cell_length_c                    13.161538
_cell_angle_alpha                 90.133041
_cell_angle_beta                  107.312988
_cell_angle_gamma                 89.934435
_cell_volume                      2933.73493023

loop_
_atom_site_label
_atom_site_type_symbol
_atom_type_description
_atom_site_fract_x
_atom_site_fract_y
_atom_site_fract_z
_atom_type_partial_charge
C1    C     C_R   0.313815 0.845060 0.475177 0.507728
C2    C     C_R   0.686216 0.843901 0.523816 0.504187
C3    C     C_R   0.186243 0.656049 0.523856 0.510732
C4    C     C_R   0.186216 0.343902 0.523816 0.504187
C5    C     C_R   0.547143 0.001290 0.785741 0.526960
C6    C     C_R   0.047143 0.501290 0.785741 0.526959
C7    C     C_R   0.453345 0.999748 0.215089 0.546506
C8    C     C_R   0.953345 0.499748 0.215089 0.546509
C9    C     C_2   0.438154 0.998128 0.100431 0.236078
C10   C     C_2   0.938153 0.498129 0.100431 0.236079
C11   C     C_2   0.507178 0.027478 0.058084 -0.035168
C12   C     C_R   0.313686 0.154743 0.475057 0.504984
C13   C     C_2   0.007181 0.527474 0.058086 -0.035167
C14   C     C_2   0.566854 0.008731 0.901178 -0.090394
C15   C     C_2   0.066855 0.508729 0.901178 -0.090396
C16   C     C_2   0.492071 0.020583 0.942633 -0.108595
C17   C     C_2   0.992072 0.520581 0.942634 -0.108597
C18   C     C_2   0.761829 0.218151 0.534216 -0.029310
C19   C     C_2   0.761804 0.781823 0.534012 -0.032787
C20   C     C_2   0.261829 0.718151 0.534216 -0.029310
C21   C     C_2   0.261804 0.281823 0.534012 -0.032787
C22   C     C_1   0.597677 0.064335 0.124813 0.198519
C23   C     C_R   0.813815 0.345060 0.475177 0.507728
C24   C     C_1   0.097684 0.564324 0.124816 0.198516
C25   C     C_1   0.356518 0.709416 0.615479 0.240196
C26   C     C_1   0.356749 0.290914 0.614828 0.234346
C27   C     C_1   0.856518 0.209416 0.615480 0.240194
C28   C     C_1   0.856749 0.790914 0.614827 0.234346
C29   C     C_R   0.813686 0.654743 0.475057 0.504985
C30   C     C_2   0.241942 0.781897 0.468310 -0.093574
C31   C     C_2   0.241695 0.217776 0.468372 -0.101146
C32   C     C_2   0.741942 0.281897 0.468310 -0.093574
C33   C     C_2   0.741695 0.717776 0.468372 -0.101146
C34   C     C_R   0.686243 0.156049 0.523856 0.510731
Cl1   Cl    Cl    0.332916 0.944699 0.023168 -0.547224
Cl2   Cl    Cl    0.832907 0.444709 0.023166 -0.547225
H1    H     H_    0.416573 0.022830 0.890190 0.210339
H2    H     H_    0.916574 0.522830 0.890191 0.210341
H3    H     H_    0.642856 0.005422 0.952117 0.136326
H4    H     H_    0.142856 0.505419 0.952117 0.136328
H5    H     H_    0.671023 0.288466 0.407629 0.134167
H6    H     H_    0.670519 0.710824 0.408201 0.131991
H7    H     H_    0.171023 0.788467 0.407629 0.134165
H8    H     H_    0.170519 0.210824 0.408201 0.131990
N1    N     N_1   0.669733 0.093707 0.178005 -0.259808
N2    N     N_1   0.169744 0.593690 0.178010 -0.259809
N3    N     N_1   0.432020 0.702493 0.680238 -0.248087
N4    N     N_1   0.432443 0.298114 0.679220 -0.248381
N5    N     N_1   0.932020 0.202493 0.680238 -0.248090
N6    N     N_1   0.932443 0.798114 0.679220 -0.248382
O1    O     O_3   0.500010 0.000000 0.500000 -0.465979
O2    O     O_R   0.103010 0.337110 0.452470 -0.543136
O3    O     O_R   0.316670 0.095240 0.537470 -0.525597
O4    O     O_R   0.316670 0.904760 0.537470 -0.522698
O5    O     O_R   0.816670 0.595240 0.537470 -0.525596
O6    O     O_R   0.816670 0.404760 0.537470 -0.522698
O7    O     O_R   0.703490 0.904800 0.585920 -0.523321
O8    O     O_R   0.703490 0.095200 0.585920 -0.523108
O9    O     O_R   0.203490 0.404800 0.585920 -0.523321
O10   O     O_R   0.203490 0.595200 0.585920 -0.523107
O11   O     O_R   0.458050 0.000000 0.725250 -0.527104
O12   O     O_3   0.000010 0.500000 0.500000 -0.465979
O13   O     O_R   0.958050 0.500000 0.725250 -0.527104
O14   O     O_R   0.461630 0.932310 0.264690 -0.508533
O15   O     O_R   0.461630 0.067690 0.264690 -0.541405
O16   O     O_R   0.961630 0.432310 0.264690 -0.508538
O17   O     O_R   0.961630 0.567690 0.264690 -0.541403
O18   O     O_R   0.618750 0.000000 0.745380 -0.524226
O19   O     O_R   0.118750 0.500000 0.745380 -0.524226
O20   O     O_R   0.376880 0.837120 0.424150 -0.518241
O21   O     O_R   0.376880 0.162880 0.424150 -0.525764
O22   O     O_R   0.876880 0.337120 0.424150 -0.518242
O23   O     O_R   0.876880 0.662880 0.424150 -0.525764
O24   O     O_R   0.603010 0.162890 0.452470 -0.537999
O25   O     O_R   0.603010 0.837110 0.452470 -0.543136
O26   O     O_R   0.103010 0.662890 0.452470 -0.538000
Zn1   Zn    Zn3+2 0.485630 0.096680 0.411850 0.979679
Zn2   Zn    Zn3+2 0.485630 0.903320 0.411850 0.992481
Zn3   Zn    Zn3+2 0.985630 0.596680 0.411850 0.979680
Zn4   Zn    Zn3+2 0.985630 0.403320 0.411850 0.992480
Zn5   Zn    Zn3+2 0.399590 0.000000 0.573760 0.990255
Zn6   Zn    Zn3+2 0.899590 0.500000 0.573760 0.990256
Zn7   Zn    Zn3+2 0.629190 0.000000 0.602520 0.996116
Zn8   Zn    Zn3+2 0.129190 0.500000 0.602520 0.996117

loop_
_geom_bond_atom_site_label_1
_geom_bond_atom_site_label_2
_ccdc_geom_bond_type
C6    O19   A    
C21   C26   S    
C8    O16   A    
O20   Zn2   S    
O26   Zn3   S    
C2    O7    A    
C23   O6    A    
C20   C30   D    
C21   C31   D    
C4    O2    A    
C33   H6    S    
O12   Zn4   S    
C29   O23   A    
C20   C25   S    
C29   C33   S    
O3    Zn5   S    
O12   Zn8   S    
C14   H3    S    
C28   N6    T    
O24   Zn1   S    
C32   H5    S    
O7    Zn7   S    
C25   N3    T    
C12   O3    A    
C26   N4    T    
C16   H1    S    
C3    O10   A    
O12   Zn6   S    
C5    O18   A    
C15   H4    S    
O15   Zn1   S    
C31   H8    S    
O13   Zn6   S    
O12   Zn3   S    
O17   Zn3   S    
O9    Zn8   S    
C19   C33   D    
C29   O5    A    
O2    Zn4   S    
C13   C24   S    
C6    O13   A    
C1    O4    A    
O1    Zn1   S    
C3    O26   A    
C7    O15   A    
C18   C34   S    
C11   C16   S    
C6    C15   S    
O23   Zn3   S    
C5    O11   A    
C3    C20   S    
O5    Zn6   S    
C19   C28   S    
C9    C11   D    
C5    C14   S    
C34   O24   A    
C12   O21   A    
C12   C31   S    
C14   C16   D    
C30   H7    S    
C18   C32   D    
O1    Zn7   S    
O21   Zn1   S    
C34   O8    A    
C7    C9    S    
O1    Zn5   S    
C2    C19   S    
O18   Zn7   S    
O14   Zn2   S    
C23   O22   A    
C18   C27   S    
C10   C13   D    
O6    Zn6   S    
O16   Zn4   S    
C11   C22   S    
C1    O20   A    
C13   C17   S    
C24   N2    T    
C23   C32   S    
O1    Zn2   S    
O22   Zn4   S    
O19   Zn8   S    
O11   Zn5   S    
O8    Zn7   S    
C4    C21   S    
O10   Zn8   S    
C4    O9    A    
C1    C30   S    
C17   H2    S    
O25   Zn2   S    
C7    O14   A    
C22   N1    T    
C8    O17   A    
C8    C10   S    
C9    Cl1   S    
C10   Cl2   S    
C15   C17   D    
O4    Zn5   S    
C2    O25   A    
C27   N5    T    
