data_mof_unit_8266.cif
_audit_creation_date              2013-03-05T16:35:54-0500
_audit_creation_method            fapswitch 2.2
_symmetry_space_group_name_H-M    P1
_symmetry_Int_Tables_number       1
_space_group_crystal_system       triclinic
_cell_length_a                    23.508177
_cell_length_b                    9.292198
_cell_length_c                    7.763064
_cell_angle_alpha                 90.000449
_cell_angle_beta                  90.000094
_cell_angle_gamma                 88.687309
_cell_volume                      1695.33911579

loop_
_atom_site_label
_atom_site_type_symbol
_atom_site_description
_atom_site_fract_x
_atom_site_fract_y
_atom_site_fract_z
_atom_type_partial_charge
O1    O     O_R   0.500000 0.288390 0.642760 -0.574900
O2    O     O_R   0.500000 0.711610 0.357240 -0.574882
O3    O     O_R   0.500000 0.711610 0.642760 -0.574901
O4    O     O_R   0.500000 0.288390 0.357240 -0.574883
C1    C     C_R   0.500056 0.219622 0.500000 0.843481
C2    C     C_R   0.499944 0.780378 0.500000 0.843481
O5    O     O_R   0.417880 0.500000 0.642820 -0.585880
O6    O     O_R   0.582120 0.500000 0.357180 -0.585720
O7    O     O_R   0.582120 0.500000 0.642820 -0.585880
O8    O     O_R   0.417880 0.500000 0.357180 -0.585721
C3    C     C_R   0.208648 0.528649 0.499259 0.349123
C4    C     C_R   0.791352 0.471350 0.499266 0.349088
C5    C     C_R   0.390526 0.502925 0.499989 0.797190
C6    C     C_R   0.609474 0.497074 0.499989 0.797192
Cu1   Cu    Cu3+1 0.500000 0.500000 0.669080 1.010679
Cu2   Cu    Cu3+1 0.500000 0.500000 0.330920 1.010713
H1    H     H_    0.215859 0.546575 0.223116 0.124519
H2    H     H_    0.784141 0.453343 0.223133 0.124543
H3    H     H_    0.215065 0.505870 0.775193 0.124465
H4    H     H_    0.784935 0.494207 0.775188 0.124477
C7    C     C_R   0.297924 0.528518 0.344083 -0.202861
C8    C     C_R   0.702076 0.471437 0.344093 -0.202878
C9    C     C_R   0.297495 0.506184 0.655611 -0.200802
C10   C     C_R   0.702504 0.493859 0.655608 -0.200799
H5    H     H_    0.320227 0.534047 0.222273 0.158357
H6    H     H_    0.679772 0.465871 0.222287 0.158360
H7    H     H_    0.319460 0.493917 0.777549 0.158415
H8    H     H_    0.680540 0.506161 0.777540 0.158418
C11   C     C_R   0.327897 0.511946 0.499873 -0.038010
C12   C     C_R   0.672103 0.488053 0.499875 -0.038012
C13   C     C_R   0.876307 0.610435 0.503195 0.571677
C14   C     C_R   0.123695 0.389558 0.503128 0.571679
C15   C     C_R   0.884423 0.354841 0.484970 0.556322
C16   C     C_R   0.115575 0.645157 0.485027 0.556214
N1    N     N_R   0.852129 0.478396 0.497231 -0.476660
N2    N     N_R   0.147871 0.521600 0.497226 -0.476641
C17   C     C_R   0.944247 0.361530 0.479138 -0.188155
C18   C     C_R   0.055753 0.638463 0.479179 -0.188184
C19   C     C_R   0.935948 0.621894 0.501952 -0.179252
C20   C     C_R   0.064053 0.378096 0.501891 -0.179244
C21   C     C_R   0.969963 0.495776 0.492859 -0.146345
C22   C     C_R   0.030037 0.504213 0.492855 -0.146311
C23   C     C_R   0.979364 0.238218 0.458860 0.419124
C24   C     C_R   0.020635 0.761775 0.458926 0.419198
C25   C     C_R   0.962595 0.755615 0.500104 0.410219
C26   C     C_R   0.037408 0.244374 0.500008 0.410186
C27   C     C_1   0.500018 0.064952 0.499999 -0.161936
C28   C     C_1   0.499982 0.935048 0.500000 -0.161937
C29   C     C_R   0.238620 0.536915 0.344007 -0.105911
C30   C     C_R   0.761380 0.463039 0.344020 -0.105890
C31   C     C_R   0.238179 0.513921 0.655031 -0.112524
C32   C     C_R   0.761821 0.486123 0.655030 -0.112509
N3    N     N_1   0.500000 0.500000 0.076820 -0.051651
N4    N     N_1   0.500000 0.500000 0.923180 -0.051587
O9    O     O_2   0.842428 0.729657 0.505494 -0.479183
O10   O     O_2   0.157574 0.270337 0.505365 -0.479184
O11   O     O_2   0.858722 0.226519 0.482555 -0.478913
O12   O     O_2   0.141274 0.773484 0.482688 -0.478999
O13   O     O_3   0.958367 0.113150 0.391758 -0.452104
C33   C     C_3   0.950397 0.131344 0.212465 -0.155913
H9    H     H_    0.990747 0.159774 0.146952 0.089268
H10   H     H_    0.916885 0.214135 0.183336 0.140774
H11   H     H_    0.935910 0.028391 0.157284 0.173431
O14   O     O_3   0.041617 0.886826 0.391732 -0.452127
C34   C     C_3   0.049610 0.868523 0.212459 -0.156086
H12   H     H_    0.009295 0.839634 0.146947 0.089194
H13   H     H_    0.083265 0.786015 0.183488 0.141148
H14   H     H_    0.063949 0.971588 0.157131 0.173248
O15   O     O_3   0.932027 0.880977 0.531333 -0.453592
C35   C     C_3   0.930203 0.903339 0.711260 -0.131354
H15   H     H_    0.973195 0.895357 0.771176 0.071428
H16   H     H_    0.901668 0.825526 0.774502 0.144265
H17   H     H_    0.912788 0.013282 0.736554 0.193773
O16   O     O_3   0.067977 0.119011 0.531216 -0.453596
C36   C     C_3   0.069808 0.096640 0.711141 -0.131216
H18   H     H_    0.026819 0.104622 0.771073 0.071442
H19   H     H_    0.098346 0.174448 0.774380 0.144238
H20   H     H_    0.087223 0.986695 0.736420 0.193805

loop_
_geom_bond_atom_site_label_1
_geom_bond_atom_site_label_2
_geom_bond_distance
_ccdc_geom_bond_type
C10   C32   1.394629 A    
C17   C23   1.405669 A    
C21   C22   1.416190 A    
O7    C6    1.281751 A    
O3    C2    1.279267 A    
C7    C29   1.394516 A    
C19   C21   1.405284 A    
N3    N4    1.192718 T    
C24   O14   1.375462 S    
C20   C26   1.404356 A    
C1    C27   1.437246 S    
C2    C28   1.437246 S    
C33   H11   1.108881 S    
O1    C1    1.279263 A    
C14   N2    1.364735 A    
C5    C11   1.472760 S    
C3    N2    1.431838 S    
C18   C22   1.402672 A    
Cu1   Cu2   2.625158 S    
C33   H10   1.111684 S    
Cu2   N3    1.972594 S    
C34   H13   1.111996 S    
C15   O11   1.349144 S    
C35   H15   1.113486 S    
O1    Cu1   1.976909 S    
C9    H7    1.083046 S    
O2    Cu2   1.976908 S    
C23   O13   1.375450 S    
C19   C25   1.404359 A    
O5    Cu1   1.941227 S    
O13   C33   1.414039 S    
O6    Cu2   1.941225 S    
O2    C2    1.279263 A    
C6    C12   1.472758 S    
C4    C32   1.399503 A    
O16   C36   1.412662 S    
C25   O15   1.376139 S    
Cu1   N4    1.972594 S    
H1    C29   1.083013 S    
C36   H20   1.109370 S    
C7    C11   1.406377 A    
C15   C17   1.409856 A    
C33   H9    1.113403 S    
O4    Cu2   1.976912 S    
C36   H18   1.113482 S    
C18   C24   1.405657 A    
C3    C29   1.399074 A    
C9    C31   1.394632 A    
C27   C28   1.207113 T    
C34   H14   1.109101 S    
C35   H17   1.109371 S    
C4    N1    1.431843 S    
C36   H19   1.111770 S    
C13   N1    1.364734 A    
C9    C11   1.406091 A    
C26   O16   1.376138 S    
O3    Cu1   1.976911 S    
C24   C25   1.403823 A    
H2    C30   1.083003 S    
C7    H5    1.083042 S    
O6    C6    1.281603 A    
C8    C12   1.406364 A    
C16   C18   1.409844 A    
C10   H8    1.083035 S    
O4    C1    1.279266 A    
O8    C5    1.281603 A    
C4    C30   1.399066 A    
C8    C30   1.394520 A    
O14   C34   1.414071 S    
O7    Cu1   1.941226 S    
H4    C32   1.082987 S    
O8    Cu2   1.941228 S    
C20   C22   1.405276 A    
C15   N1    1.365143 A    
C13   C19   1.408568 A    
C16   N2    1.365139 A    
C14   C20   1.408573 A    
C17   C21   1.402676 A    
O15   C35   1.412656 S    
C23   C26   1.403839 A    
C10   C12   1.406080 A    
C3    C31   1.399514 A    
H3    C31   1.082996 S    
O5    C5    1.281753 A    
C34   H12   1.113808 S    
C8    H6    1.083036 S    
C16   O12   1.349150 S    
C35   H16   1.111772 S    
C13   O9    1.349622 S    
C14   O10   1.349618 S    
