data_mof_unit_19650.cif
_audit_creation_date              2012-12-10T20:50:09-0500
_audit_creation_method            fapswitch 2.2
_symmetry_space_group_name_H-M    P1
_symmetry_Int_Tables_number       1
_space_group_crystal_system       triclinic
_cell_length_a                    19.23423
_cell_length_b                    8.916946
_cell_length_c                    8.082614
_cell_angle_alpha                 90.000088
_cell_angle_beta                  90.000225
_cell_angle_gamma                 90.219914
_cell_volume                      1386.24368688

loop_
_atom_site_label
_atom_site_type_symbol
_atom_type_description
_atom_site_fract_x
_atom_site_fract_y
_atom_site_fract_z
_atom_type_partial_charge
C1    C     C_R   0.500656 0.217935 0.500009 0.922602
C2    C     C_R   0.256247 0.403576 0.371600 0.415463
C3    C     C_R   0.177255 0.551906 0.616646 0.046702
C4    C     C_R   0.816036 0.588661 0.353855 0.049834
C5    C     C_R   0.822744 0.448082 0.616643 0.046703
C6    C     C_R   0.183964 0.411334 0.353853 0.049833
C7    C     C_R   0.144766 0.485692 0.476823 -0.135576
C8    C     C_R   0.855233 0.514297 0.476821 -0.135576
C9    C     C_R   0.289342 0.483203 0.500602 -0.348024
C10   C     C_R   0.710658 0.516794 0.500604 -0.348027
C11   C     C_R   0.930301 0.506811 0.460384 0.320941
C12   C     C_R   0.499343 0.782065 0.500009 0.922600
C13   C     C_R   0.069698 0.493177 0.460386 0.320944
C14   C     C_3   0.292556 0.530899 0.893375 -0.182590
C15   C     C_3   0.684875 0.813561 0.327381 -0.260134
C16   C     C_3   0.707444 0.469090 0.893373 -0.182593
C17   C     C_3   0.315126 0.186443 0.327360 -0.260129
C18   C     C_3   0.135327 0.625382 0.754646 -0.333753
C19   C     C_3   0.137662 0.796333 0.742430 -0.791328
C20   C     C_3   0.849792 0.650708 0.197239 -0.331834
C21   C     C_3   0.865631 0.818394 0.210053 -0.813219
C22   C     C_3   0.864672 0.374601 0.754640 -0.333752
C23   C     C_R   0.365046 0.497300 0.500307 0.965833
C24   C     C_3   0.862336 0.203651 0.742419 -0.791329
C25   C     C_3   0.150207 0.349289 0.197236 -0.331832
C26   C     C_3   0.134368 0.181603 0.210047 -0.813224
C27   C     C_R   0.634954 0.502700 0.500308 0.965835
C28   C     C_1   0.500248 0.065202 0.499995 -0.200069
C29   C     C_1   0.499752 0.934798 0.499995 -0.200069
C30   C     C_R   0.250113 0.549973 0.627883 0.420308
C31   C     C_R   0.743753 0.596423 0.371604 0.415465
C32   C     C_R   0.749886 0.450019 0.627881 0.420308
H1    H     H_    0.347936 0.534240 0.931284 0.210989
H2    H     H_    0.356242 0.203444 0.421728 0.146633
H3    H     H_    0.336998 0.114268 0.228616 0.190596
H4    H     H_    0.270760 0.124899 0.384554 0.147399
H5    H     H_    0.191499 0.838741 0.759472 0.281721
H6    H     H_    0.118082 0.833989 0.620142 0.259123
H7    H     H_    0.104412 0.845639 0.840532 0.230853
H8    H     H_    0.080274 0.588152 0.755032 0.194758
H9    H     H_    0.155029 0.589997 0.877175 0.189527
H10   H     H_    0.817745 0.884799 0.190845 0.258244
H11   H     H_    0.888366 0.847186 0.332241 0.265501
H12   H     H_    0.278030 0.411034 0.872321 0.132452
H13   H     H_    0.903232 0.850759 0.111964 0.237097
H14   H     H_    0.898467 0.589853 0.167551 0.187922
H15   H     H_    0.815569 0.631294 0.088788 0.204709
H16   H     H_    0.808499 0.161245 0.759466 0.281721
H17   H     H_    0.881913 0.165996 0.620127 0.259122
H18   H     H_    0.895587 0.154341 0.840515 0.230853
H19   H     H_    0.919726 0.411829 0.755026 0.194759
H20   H     H_    0.844972 0.409985 0.877170 0.189528
H21   H     H_    0.182253 0.115199 0.190804 0.258237
H22   H     H_    0.111647 0.152802 0.332246 0.265499
H23   H     H_    0.262302 0.574936 0.999448 0.157927
H24   H     H_    0.096757 0.149245 0.111977 0.237101
H25   H     H_    0.101532 0.410145 0.167551 0.187921
H26   H     H_    0.184429 0.368706 0.088785 0.204706
H27   H     H_    0.729239 0.875091 0.384602 0.147391
H28   H     H_    0.643751 0.796555 0.421731 0.146641
H29   H     H_    0.663012 0.885751 0.228638 0.190596
H30   H     H_    0.652064 0.465742 0.931287 0.210987
H31   H     H_    0.721966 0.588958 0.872318 0.132456
H32   H     H_    0.737701 0.425057 0.999443 0.157918
N1    N     N_1   0.500000 0.500000 0.073640 -0.035742
N2    N     N_1   0.500000 0.500000 0.926360 -0.050515
N3    N     N_R   0.037407 0.627777 0.457532 -0.180004
N4    N     N_R   0.962592 0.372211 0.457529 -0.180002
N5    N     N_R   0.968557 0.634475 0.458658 -0.178409
N6    N     N_R   0.031442 0.365513 0.458657 -0.178404
O1    O     O_R   0.500000 0.285350 0.636850 -0.612736
O2    O     O_3   0.705420 0.675935 0.256190 -0.603259
O3    O     O_3   0.716692 0.373558 0.755069 -0.606370
O4    O     O_3   0.294581 0.324073 0.256180 -0.603264
O5    O     O_R   0.500000 0.714650 0.363150 -0.619770
O6    O     O_R   0.500000 0.714650 0.636850 -0.612735
O7    O     O_R   0.500000 0.285350 0.363150 -0.619772
O8    O     O_R   0.398140 0.500000 0.636920 -0.605469
O9    O     O_R   0.601860 0.500000 0.363080 -0.589533
O10   O     O_R   0.601860 0.500000 0.636920 -0.605469
O11   O     O_R   0.398140 0.500000 0.363080 -0.589531
O12   O     O_3   0.283308 0.626432 0.755073 -0.606370
Zn1   Zn    Zn3+2 0.500000 0.500000 0.682780 0.992637
Zn2   Zn    Zn3+2 0.500000 0.500000 0.317220 1.003520

loop_
_geom_bond_atom_site_label_1
_geom_bond_atom_site_label_2
_ccdc_geom_bond_type
C10   C27   S    
C12   C29   S    
C1    O7    A    
C15   H28   S    
C4    C8    A    
C14   H1    S    
C15   O2    S    
C1    O1    A    
C25   H25   S    
C22   H20   S    
C28   C29   T    
C3    C7    A    
O9    Zn2   S    
O5    Zn2   S    
C6    C25   S    
C13   N6    A    
C3    C18   S    
C18   C19   S    
C18   H8    S    
C19   H5    S    
N2    Zn1   S    
C21   H11   S    
C10   C31   A    
C5    C22   S    
C1    C28   S    
C17   H4    S    
O1    Zn1   S    
C2    O4    S    
C5    C32   A    
C14   H23   S    
C2    C6    A    
C16   H30   S    
O10   Zn1   S    
C26   H22   S    
O6    Zn1   S    
C21   H13   S    
C24   H18   S    
C16   O3    S    
C20   H15   S    
C27   O10   A    
C18   H9    S    
C32   O3    S    
C9    C23   S    
N1    Zn2   S    
O7    Zn2   S    
C25   C26   S    
N3    N5    A    
C24   H16   S    
C30   O12   S    
C3    C30   A    
C19   H6    S    
C15   H29   S    
C19   H7    S    
C9    C30   A    
C31   O2    S    
C16   H31   S    
C12   O6    A    
C17   O4    S    
C22   C24   S    
C25   H26   S    
C14   O12   S    
C26   H21   S    
O11   Zn2   S    
C11   N4    A    
C14   H12   S    
C13   N3    A    
C24   H17   S    
C23   O11   A    
C15   H27   S    
C26   H24   S    
O8    Zn1   S    
C5    C8    A    
C11   N5    A    
C6    C7    A    
C16   H32   S    
C27   O9    A    
C8    C11   S    
C23   O8    A    
C4    C31   A    
C21   H10   S    
C4    C20   S    
C10   C32   A    
C7    C13   S    
C20   C21   S    
N4    N6    A    
N1    N2    T    
C17   H2    S    
C12   O5    A    
C17   H3    S    
C2    C9    A    
C20   H14   S    
C22   H19   S    
