data_mof_unit_26463.cif
_audit_creation_date              2013-03-05T15:46:25-0500
_audit_creation_method            fapswitch 2.2
_symmetry_space_group_name_H-M    P1
_symmetry_Int_Tables_number       1
_space_group_crystal_system       triclinic
_cell_length_a                    15.878704
_cell_length_b                    10.810211
_cell_length_c                    9.860939
_cell_angle_alpha                 109.522873
_cell_angle_beta                  98.711504
_cell_angle_gamma                 91.068242
_cell_volume                      1572.56949787

loop_
_atom_site_label
_atom_site_type_symbol
_atom_site_description
_atom_site_fract_x
_atom_site_fract_y
_atom_site_fract_z
_atom_type_partial_charge
O1    O     O_R   0.507820 0.332330 0.577400 -0.575092
O2    O     O_R   0.483070 0.295500 0.332660 -0.535398
C1    C     C_R   0.494032 0.253150 0.442369 0.757848
O3    O     O_R   0.391820 0.518430 0.622420 -0.557071
O4    O     O_R   0.367070 0.481600 0.377680 -0.537941
C2    C     C_R   0.340436 0.498835 0.500364 0.850185
Cu1   Cu    Cu3+1 0.514650 0.521810 0.644910 1.064306
Cu2   Cu    Cu3+1 0.485350 0.478190 0.355090 1.074061
O5    O     O_R   0.516930 0.704500 0.667340 -0.528873
O6    O     O_R   0.492180 0.667670 0.422600 -0.557193
O7    O     O_R   0.632930 0.518400 0.622320 -0.556806
O8    O     O_R   0.608180 0.481570 0.377580 -0.569469
C3    C     C_R   0.502821 0.746787 0.557071 0.807959
C4    C     C_R   0.659566 0.500019 0.499426 0.836987
C5    C     C_3   0.056824 0.431770 0.609868 -0.223644
C6    C     C_3   0.033013 0.406731 0.339954 0.536478
C7    C     C_3   0.934581 0.425020 0.340199 -0.404889
H1    H     H_    0.931790 0.321022 0.556266 0.224733
H2    H     H_    0.075934 0.328873 0.579530 0.201417
H3    H     H_    0.894826 0.330421 0.292900 0.217740
H4    H     H_    0.909844 0.479815 0.267455 0.232901
C8    C     C_1   0.749030 0.499536 0.498175 -0.084730
C9    C     C_3   0.082718 0.493448 0.496996 -0.016032
C10   C     C_3   0.957725 0.425737 0.599482 -0.408259
C11   C     C_3   0.916728 0.498726 0.496988 0.078687
C12   C     C_3   0.959783 0.641899 0.555482 -0.170629
C13   C     C_3   0.055559 0.637867 0.539568 -0.406397
C14   C     C_1   0.824469 0.499144 0.497508 -0.016319
C15   C     C_1   0.175379 0.495647 0.500046 0.041000
C16   C     C_1   0.250965 0.497395 0.501081 0.005866
H5    H     H_    0.094790 0.700835 0.644118 0.217894
H6    H     H_    0.070043 0.684094 0.460332 0.253592
H7    H     H_    0.957040 0.682220 0.674512 0.198776
H8    H     H_    0.939206 0.468779 0.709304 0.213898
H9    H     H_    0.401695 0.128487 0.557113 0.147121
C17   C     C_2   0.490330 0.110859 0.414150 0.214391
C18   C     C_2   0.443006 0.064331 0.491717 -0.188439
C19   C     C_2   0.498967 0.888540 0.580985 0.073927
C20   C     C_2   0.440410 0.928039 0.490063 0.278347
H10   H     H_    0.556197 0.586678 0.152443 0.176618
N1    N     N_2   0.463320 0.445430 0.137380 -0.264388
C21   C     C_2   0.508100 0.511053 0.080894 -0.033891
H11   H     H_    0.576022 0.633712 0.934035 0.230798
N2    N     N_2   0.536720 0.554500 0.862620 -0.310937
C22   C     C_2   0.496041 0.483599 0.919624 0.083419
H12   H     H_    0.416201 0.375426 0.071404 0.232898
C23   C     C_2   0.102546 0.499109 0.765457 0.924347
O9    O     O_2   0.084304 0.607722 0.838994 -0.537744
O10   O     O_R   0.165019 0.434261 0.825714 -0.699166
H13   H     H_    0.191067 0.487807 0.930005 0.385661
C24   C     C_2   0.914834 0.735662 0.488515 0.882899
O11   O     O_2   0.879540 0.826548 0.564449 -0.535675
O12   O     O_R   0.914094 0.720074 0.341843 -0.704281
H14   H     H_    0.882076 0.789397 0.311484 0.367976
N3    N     N_R   0.368967 0.841178 0.397078 0.143310
O13   O     O_R   0.326377 0.766954 0.447250 -0.376135
O14   O     O_R   0.335924 0.856476 0.275145 -0.259657
N4    N     N_R   0.561363 0.979983 0.693678 0.143767
O15   O     O_R   0.589680 0.955029 0.812025 -0.262919
O16   O     O_R   0.598383 0.078237 0.671506 -0.295773
N5    N     N_R   0.539169 0.028668 0.310604 0.151809
O17   O     O_R   0.595655 0.082817 0.260774 -0.293938
O18   O     O_R   0.525432 0.901075 0.259970 -0.328791
C25   C     C_2   0.440288 0.366443 0.826967 0.895247
O19   O     O_2   0.467159 0.257889 0.808524 -0.562077
O20   O     O_R   0.354399 0.378355 0.779318 -0.734898
H15   H     H_    0.321627 0.290114 0.723566 0.337956
N6    N     N_R   0.060321 0.448220 0.223208 0.117192
O21   O     O_R   0.096156 0.367191 0.121852 -0.258747
O22   O     O_R   0.042182 0.561156 0.210675 -0.306626
N7    N     N_R   0.051021 0.266331 0.311261 0.125997
O23   O     O_R   0.991416 0.175586 0.294581 -0.325602
O24   O     O_R   0.128951 0.231685 0.306777 -0.299577

loop_
_geom_bond_atom_site_label_1
_geom_bond_atom_site_label_2
_geom_bond_distance
_ccdc_geom_bond_type
O4    Cu2   1.924109 S    
C5    H2    1.112007 S    
H11   N2    1.030798 S    
O6    C3    1.298882 A    
C15   C16   1.198446 T    
C6    N6    1.484441 S    
C9    C13   1.562513 S    
C7    H4    1.107724 S    
N1    C21   1.297825 D    
C12   H7    1.115266 S    
C23   O9    1.222936 D    
C5    C23   1.518989 S    
Cu2   O8    1.927537 S    
C7    C11   1.556736 S    
C25   O19   1.221371 D    
C4    C8    1.422593 S    
N3    O13   1.300911 A    
H10   C21   1.085080 S    
O2    C1    1.298931 A    
C11   C12   1.562041 S    
N7    O23   1.302117 A    
C23   O10   1.397965 S    
C19   N4    1.445499 S    
O12   H14   1.013779 S    
C10   C11   1.555850 S    
C11   C14   1.465828 S    
Cu1   O7    1.924107 S    
C6    N7    1.489648 S    
C3    C19   1.474405 S    
O4    C2    1.297846 A    
N1    H12   1.028641 S    
C1    C17   1.467144 S    
N5    O18   1.301868 A    
O3    Cu1   1.927539 S    
H1    C10   1.113392 S    
C9    C15   1.466668 S    
C5    C9    1.573799 S    
C17   C18   1.349027 D    
C2    C16   1.421590 S    
O8    C4    1.298451 A    
O20   H15   1.013559 S    
C6    C9    1.591135 S    
O1    C1    1.302501 A    
N3    O14   1.301297 A    
C12   C13   1.552284 S    
N5    O17   1.301820 A    
O7    C4    1.297842 A    
O2    Cu2   1.911409 S    
O3    C2    1.298038 A    
C13   H6    1.106445 S    
N4    O16   1.300905 A    
C17   N5    1.446583 S    
Cu1   O5    1.911411 S    
Cu1   Cu2   2.700876 S    
C7    H3    1.108944 S    
C19   C20   1.367071 D    
Cu2   N1    2.028889 S    
H9    C18   1.083195 S    
C18   C20   1.467710 S    
O10   H13   1.013958 S    
N7    O24   1.302392 A    
N6    O22   1.300728 A    
O5    C3    1.305278 A    
C5    C10   1.560045 S    
O1    Cu1   1.925879 S    
C8    C14   1.198964 T    
C22   C25   1.470475 S    
Cu1   N2    2.029033 S    
N4    O15   1.301097 A    
C12   C24   1.518033 S    
C13   H5    1.111249 S    
N6    O21   1.302190 A    
Cu2   O6    1.925880 S    
C20   N3    1.441912 S    
N2    C22   1.303888 D    
C24   O11   1.223112 D    
C25   O20   1.396488 S    
C6    C7    1.579345 S    
C24   O12   1.397231 S    
C21   C22   1.497967 S    
C10   H8    1.113785 S    
