data_mof_unit_16450.cif
_audit_creation_date              2013-03-05T15:41:05-0500
_audit_creation_method            fapswitch 2.2
_symmetry_space_group_name_H-M    P1
_symmetry_Int_Tables_number       1
_space_group_crystal_system       triclinic
_cell_length_a                    10.990264
_cell_length_b                    10.999159
_cell_length_c                    18.694502
_cell_angle_alpha                 90.190348
_cell_angle_beta                  89.208578
_cell_angle_gamma                 60.039287
_cell_volume                      1957.5473325

loop_
_atom_site_label
_atom_site_type_symbol
_atom_site_description
_atom_site_fract_x
_atom_site_fract_y
_atom_site_fract_z
_atom_type_partial_charge
O1    O     O_R   0.507110 0.256280 0.580300 -0.489694
O2    O     O_R   0.280830 0.527190 0.577940 -0.512631
C1    C     C_R   0.235762 0.646163 0.608507 0.541951
O3    O     O_R   0.261360 0.738990 0.584270 -0.472653
O4    O     O_R   0.532590 0.694780 0.574370 -0.452922
C2    C     C_R   0.652932 0.624390 0.600701 0.549045
O5    O     O_R   0.744470 0.503750 0.577000 -0.529459
O6    O     O_R   0.698520 0.277230 0.571620 -0.510012
C3    C     C_R   0.628221 0.227152 0.601422 0.547550
O7    O     O_R   0.498530 0.256920 0.419280 -0.432258
O8    O     O_R   0.272880 0.527780 0.428680 -0.493717
C4    C     C_R   0.216493 0.651134 0.404531 0.571052
O9    O     O_R   0.252780 0.739630 0.423250 -0.490357
O10   O     O_R   0.524640 0.695370 0.425100 -0.441219
C5    C     C_R   0.643029 0.622046 0.393429 0.573068
O11   O     O_R   0.735890 0.504390 0.415980 -0.525654
O12   O     O_R   0.690560 0.277820 0.422350 -0.516901
C6    C     C_R   0.622604 0.221716 0.397891 0.594467
Cr1   Cr    Cr6+3 0.393010 0.398050 0.501480 1.097479
Cr2   Cr    Cr6+3 0.398820 0.707980 0.501630 1.136782
Cr3   Cr    Cr6+3 0.708140 0.393940 0.496850 1.044826
O13   O     O_3   0.499990 0.499990 0.499980 -0.284571
C7    C     C_3   0.582091 0.827625 0.780910 0.090024
H1    H     H_    0.615184 0.907386 0.787903 0.175189
C8    C     C_3   0.569823 0.814145 0.698819 0.036541
H2    H     H_    0.614593 0.872961 0.671315 0.146066
H3    H     H_    0.861788 0.652351 0.647814 0.172324
C9    C     C_3   0.837950 0.647350 0.766188 0.056414
C10   C     C_3   0.661892 0.565629 0.800561 0.050888
C11   C     C_3   0.701557 0.682111 0.810894 -0.023452
H4    H     H_    0.567869 0.591306 0.834100 0.193344
C12   C     C_3   0.664970 0.655072 0.675623 -0.035049
C13   C     C_3   0.821256 0.608533 0.689057 -0.244487
C14   C     C_3   0.624016 0.562898 0.721893 -0.208093
H5    H     H_    0.509043 0.603567 0.718073 0.164503
H6    H     H_    0.676233 0.452947 0.701519 0.174827
H7    H     H_    0.930616 0.555274 0.788952 0.176146
H8    H     H_    0.887624 0.492946 0.681798 0.176557
C15   C     C_2   0.677912 0.151372 0.668476 -0.060866
C16   C     C_2   0.689118 0.170611 0.829568 0.194003
C17   C     C_2   0.797309 0.118033 0.782088 -0.008311
C18   C     C_2   0.778098 0.157018 0.706258 -0.096250
H9    H     H_    0.901856 0.039077 0.798204 0.186235
H10   H     H_    0.843697 0.194639 0.682505 0.180443
H11   H     H_    0.617337 0.108074 0.692564 0.162127
C19   C     C_2   0.178278 0.665667 0.680785 -0.061035
C20   C     C_2   0.189698 0.663598 0.838011 -0.031530
C21   C     C_2   0.182545 0.565248 0.798651 -0.079486
C22   C     C_2   0.206562 0.553837 0.720979 -0.130787
H12   H     H_    0.156808 0.491629 0.823442 0.181372
H13   H     H_    0.251066 0.449834 0.697035 0.189553
H14   H     H_    0.221211 0.732054 0.813238 0.172697
H15   H     H_    0.130585 0.770330 0.704166 0.173235
C23   C     C_2   0.655496 0.647933 0.318686 -0.055795
C24   C     C_2   0.630045 0.661400 0.158480 0.202969
C25   C     C_2   0.716243 0.549038 0.197307 -0.116209
C26   C     C_2   0.697815 0.538479 0.273425 -0.097544
H16   H     H_    0.816031 0.466994 0.175491 0.150711
H17   H     H_    0.733098 0.433432 0.293289 0.179574
H18   H     H_    0.620624 0.753471 0.300149 0.165108
C27   C     C_2   0.683381 0.132778 0.335169 -0.082819
C28   C     C_2   0.645373 0.148014 0.178310 0.133378
C29   C     C_2   0.653569 0.048445 0.223240 -0.104949
C30   C     C_2   0.619455 0.075995 0.299210 0.191225
H19   H     H_    0.684303 0.943664 0.203350 0.105251
H20   H     H_    0.771479 0.136186 0.309790 0.081548
C31   C     C_2   0.124475 0.680690 0.345018 -0.091836
C32   C     C_2   0.113221 0.690940 0.190526 -0.041725
C33   C     C_2   0.045519 0.803973 0.234347 -0.138177
C34   C     C_2   0.078685 0.799088 0.309258 -0.134418
H21   H     H_    0.975142 0.907500 0.213224 0.148732
H22   H     H_    0.082707 0.888278 0.331677 0.178937
H23   H     H_    0.184996 0.586112 0.209381 0.147577
H24   H     H_    0.111859 0.595400 0.323986 0.117634
O14   O     O_R   0.089190 0.825870 0.932320 -0.465968
O15   O     O_R   0.819070 0.053960 0.931440 -0.478051
C35   C     C_R   0.703605 0.102292 0.897976 0.627074
O16   O     O_R   0.607070 0.076440 0.916460 -0.456124
O17   O     O_R   0.647110 0.806550 0.917690 -0.467361
C36   C     C_R   0.726881 0.691110 0.887237 0.606912
O18   O     O_R   0.837080 0.593860 0.915300 -0.459653
O19   O     O_R   0.064770 0.636080 0.932550 -0.485160
C37   C     C_R   0.120989 0.704877 0.908122 0.609690
O20   O     O_R   0.068250 0.829200 0.092940 -0.485419
O21   O     O_R   0.799650 0.057040 0.080330 -0.516116
C38   C     C_R   0.673774 0.107575 0.104248 0.578866
O22   O     O_R   0.586130 0.079760 0.077080 -0.476879
O23   O     O_R   0.627700 0.809630 0.066580 -0.459812
C39   C     C_R   0.691727 0.688833 0.094902 0.532164
O24   O     O_R   0.816140 0.597180 0.075920 -0.533270
O25   O     O_R   0.045360 0.639170 0.081440 -0.505989
C40   C     C_R   0.085638 0.713693 0.115286 0.563913
Cr4   Cr    Cr6+3 0.937950 0.938450 0.008940 1.126178
Cr5   Cr    Cr6+3 0.626180 0.937030 0.994750 1.170236
Cr6   Cr    Cr6+3 0.937790 0.625760 0.001410 1.105142
O26   O     O_3   0.833980 0.833750 0.001700 -0.300710
Br1   Br    Br    0.506424 0.321890 0.807804 -0.546205
N1    N     N_R   0.447073 0.885165 0.820148 0.112377
O27   O     O_R   0.390798 0.009991 0.848945 -0.254547
O28   O     O_R   0.377906 0.818225 0.823271 -0.366784
N2    N     N_R   0.487101 0.758096 0.181628 0.083549
O29   O     O_R   0.416708 0.713548 0.219084 -0.287199
O30   O     O_R   0.421755 0.886910 0.159351 -0.265377
N3    N     N_R   0.519730 0.043719 0.331872 0.092682
O31   O     O_R   0.423728 0.040827 0.293179 -0.267345
O32   O     O_R   0.537709 0.996385 0.396867 -0.338541
Br2   Br    Br    0.555419 0.344112 0.202372 -0.502634
Br3   Br    Br    0.371900 0.916076 0.669322 -0.382466
N4    N     N_R   0.865120 0.766022 0.767661 0.003571
O33   O     O_R   0.864362 0.832062 0.709888 -0.427822
O34   O     O_R   0.874062 0.817171 0.828676 -0.398336
N5    N     N_R   0.773483 0.427420 0.824230 0.070538
O35   O     O_R   0.887047 0.352579 0.785954 -0.367861
O36   O     O_R   0.761742 0.381310 0.886487 -0.303754

loop_
_geom_bond_atom_site_label_1
_geom_bond_atom_site_label_2
_geom_bond_distance
_ccdc_geom_bond_type
C2    C12   1.462780 S    
C24   C25   1.344346 D    
C29   H19   1.088784 S    
O11   Cr3   2.055248 S    
C17   C18   1.469671 S    
C10   N5    1.472455 S    
Cr6   O26   1.981947 S    
N3    O32   1.301746 A    
O24   Cr6   2.048851 S    
O4    Cr2   1.968493 S    
C23   H18   1.084663 S    
C35   O16   1.271886 A    
H3    C13   1.110227 S    
C28   C38   1.434414 S    
C19   C22   1.343483 D    
O8    Cr1   1.952506 S    
N2    O29   1.301863 A    
O7    C6    1.275052 A    
N4    O34   1.296653 A    
O4    C2    1.260450 A    
O18   Cr6   2.091160 S    
C26   H17   1.087477 S    
C5    O11   1.261103 A    
O22   Cr5   2.074196 S    
C3    C15   1.461344 S    
C25   C26   1.447757 S    
C14   H5    1.113540 S    
C33   H21   1.087457 S    
N5    O35   1.301012 A    
O21   Cr4   1.935195 S    
C27   H20   1.089788 S    
O6    C3    1.275122 A    
C22   H13   1.086239 S    
C7    H1    1.112771 S    
C20   C37   1.456211 S    
C15   H11   1.087481 S    
C11   C36   1.470286 S    
C8    C12   1.580456 S    
C21   H12   1.085424 S    
N2    O30   1.300966 A    
Cr3   O13   1.981886 S    
C17   H9    1.086200 S    
C18   H10   1.085611 S    
N5    O36   1.301381 A    
N3    O31   1.300726 A    
O6    Cr3   1.938117 S    
C15   C18   1.343343 D    
C4    C31   1.439219 S    
O23   Cr5   1.938255 S    
O1    Cr1   2.070867 S    
C7    C11   1.589687 S    
O10   Cr2   1.931501 S    
Cr1   O13   1.989068 S    
O1    C3    1.272659 A    
O15   C35   1.278534 A    
O17   Cr5   1.958398 S    
O25   C40   1.278638 A    
C38   O22   1.259440 A    
C32   C33   1.350150 D    
C28   Br2   1.919222 S    
C8    H2    1.112703 S    
O21   C38   1.279037 A    
C10   C14   1.538234 S    
O12   Cr3   1.962256 S    
O17   C36   1.254793 A    
C12   C14   1.558694 S    
C27   C30   1.335711 D    
C5    C23   1.445178 S    
C10   C11   1.557997 S    
O15   Cr4   1.956229 S    
C20   C21   1.341293 D    
O7    Cr1   2.062238 S    
C28   C29   1.350080 D    
O12   C6    1.271053 A    
C31   H24   1.087587 S    
C4    O9    1.272113 A    
Cr5   O26   1.985171 S    
C20   H14   1.076910 S    
C16   C17   1.347871 D    
Cr2   O13   1.982122 S    
C9    C13   1.541610 S    
N1    O27   1.301970 A    
Cr4   O26   1.991927 S    
N1    O28   1.296711 A    
C1    O3    1.270191 A    
C16   Br1   1.912019 S    
O14   Cr4   2.052925 S    
C30   N3    1.439324 S    
C21   C22   1.465925 S    
O19   Cr6   1.930583 S    
O9    Cr2   2.086763 S    
O2    Cr1   1.941506 S    
O10   C5    1.273326 A    
C36   O18   1.270248 A    
O8    C4    1.265194 A    
C6    C27   1.447793 S    
C2    O5    1.272641 A    
C9    N4    1.477493 S    
C24   N2    1.447675 S    
C1    C19   1.452583 S    
C13   H8    1.112070 S    
C31   C34   1.325366 D    
C12   C13   1.552386 S    
C9    C11   1.575586 S    
O2    C1    1.274413 A    
C32   H23   1.085301 S    
C24   C39   1.465499 S    
O5    Cr3   2.085551 S    
N4    O33   1.301398 A    
O14   C37   1.274737 A    
C9    H7    1.108431 S    
O16   Cr5   2.058940 S    
C19   H15   1.085678 S    
C32   C40   1.439207 S    
C25   H16   1.086344 S    
C14   H6    1.111155 S    
O20   Cr4   2.077630 S    
C7    C8    1.555484 S    
C33   C34   1.446364 S    
O25   Cr6   1.969606 S    
C29   C30   1.455473 S    
O3    Cr2   2.050057 S    
C7    N1    1.472878 S    
O23   C39   1.273572 A    
C10   H4    1.109103 S    
O19   C37   1.274510 A    
C16   C35   1.455339 S    
C34   H22   1.086776 S    
O20   C40   1.260309 A    
C39   O24   1.272492 A    
C8    Br3   1.973330 S    
C23   C26   1.343406 D    
