data_mof_unit_41477.cif
_audit_creation_date              2012-12-10T18:41:19-0500
_audit_creation_method            fapswitch 2.2
_symmetry_space_group_name_H-M    P1
_symmetry_Int_Tables_number       1
_space_group_crystal_system       triclinic
_cell_length_a                    15.083585
_cell_length_b                    13.919342
_cell_length_c                    10.871764
_cell_angle_alpha                 90.688467
_cell_angle_beta                  90.528423
_cell_angle_gamma                 89.747003
_cell_volume                      2282.28275123

loop_
_atom_site_label
_atom_site_type_symbol
_atom_type_description
_atom_site_fract_x
_atom_site_fract_y
_atom_site_fract_z
_atom_type_partial_charge
C1    C     C_R   0.330131 0.500263 0.499894 0.871459
C2    C     C_R   0.670191 0.499707 0.495385 0.889341
C3    C     C_R   0.183904 0.444996 0.575448 0.368573
C4    C     C_R   0.814044 0.416864 0.444065 0.403135
C5    C     C_R   0.091296 0.447174 0.568298 0.402081
C6    C     C_R   0.906516 0.419677 0.435238 0.406775
C7    C     C_R   0.049014 0.504367 0.478488 -0.094206
C8    C     C_R   0.952100 0.504762 0.467965 -0.089690
C9    C     C_R   0.576466 0.108118 0.533645 -0.329505
C10   C     C_R   0.427696 0.106563 0.457962 -0.331047
C11   C     C_R   0.571336 0.209592 0.548322 0.593699
C12   C     C_R   0.428517 0.208519 0.453809 0.622836
C13   C     C_R   0.502805 0.054123 0.495111 0.086616
C14   C     C_R   0.454019 0.890605 0.406039 0.370420
C15   C     C_R   0.554142 0.892046 0.583090 0.368714
C16   C     C_R   0.452453 0.788876 0.413117 -0.029809
C17   C     C_R   0.551073 0.790376 0.582155 -0.028648
C18   C     C_R   0.503885 0.944376 0.494571 -0.024852
C19   C     C_R   0.499235 0.499523 0.262694 0.821905
C20   C     C_R   0.498176 0.500389 0.737726 0.859426
C21   C     C_R   0.520850 0.578973 0.065683 -0.054280
C22   C     C_R   0.515004 0.582668 0.939574 -0.039803
C23   C     C_R   0.492641 0.499254 0.130076 -0.253776
C24   C     C_R   0.490429 0.501195 0.871075 -0.255192
C25   C     C_R   0.450561 0.424093 0.063997 0.371168
C26   C     C_R   0.455538 0.421352 0.934357 0.346589
C27   C     C_3   0.590845 0.652049 0.931991 -0.098008
C28   C     C_3   0.602574 0.640022 0.073072 -0.103678
C29   C     C_R   0.098975 0.559954 0.397396 0.526956
C30   C     C_R   0.905501 0.587943 0.503848 0.501773
C31   C     C_R   0.191429 0.560573 0.409759 -0.410383
C32   C     C_R   0.812865 0.585462 0.506573 -0.349474
C33   C     C_R   0.233746 0.501579 0.495477 -0.268445
C34   C     C_R   0.767019 0.499831 0.482615 -0.262071
Cu1   Cu    Cu3+1 0.500000 0.596430 0.500000 0.945202
Cu2   Cu    Cu3+1 0.500000 0.403570 0.500000 1.067810
H1    H     H_    0.416496 0.746807 0.345257 0.149269
H2    H     H_    0.588972 0.749694 0.648207 0.152882
H3    H     H_    0.230722 0.605548 0.350860 0.177771
H4    H     H_    0.776672 0.650154 0.530816 0.200274
H5    H     H_    0.638327 0.071924 0.551912 0.196758
H6    H     H_    0.368843 0.068548 0.429475 0.190185
N1    N     N_R   0.500000 0.258690 0.500000 -0.250069
N2    N     N_R   0.500000 0.741330 0.500000 -0.226183
O1    O     O_R   0.371460 0.581430 0.500010 -0.600785
O2    O     O_R   0.628540 0.581430 0.499990 -0.596809
O3    O     O_R   0.371470 0.418560 0.500010 -0.505064
O4    O     O_R   0.628530 0.418560 0.499990 -0.500937
O5    O     O_R   0.499990 0.581450 0.319660 -0.599978
O6    O     O_R   0.500010 0.581450 0.680340 -0.596074
O7    O     O_R   0.500010 0.418580 0.319660 -0.534919
O8    O     O_R   0.499990 0.418580 0.680340 -0.528494
O9    O     O_3   0.407705 0.351072 0.124328 -0.534347
C35   C     C_3   0.319596 0.380785 0.146098 -0.189747
H7    H     H_    0.285749 0.405827 0.060828 0.104395
H8    H     H_    0.317305 0.438083 0.218199 0.132069
H9    H     H_    0.281567 0.318549 0.179622 0.197456
O10   O     O_3   0.422321 0.343009 0.869563 -0.565984
C36   C     C_3   0.482182 0.265331 0.880830 -0.173001
H10   H     H_    0.476765 0.231467 0.972401 0.194195
H11   H     H_    0.551971 0.287301 0.864478 0.137249
H12   H     H_    0.464850 0.210129 0.810271 0.173506
O11   O     O_3   0.417838 0.937561 0.304982 -0.553392
C37   C     C_3   0.331166 0.905151 0.277542 -0.330038
H13   H     H_    0.296013 0.962020 0.225406 0.199040
H14   H     H_    0.291761 0.891543 0.361763 0.147452
H15   H     H_    0.333422 0.840155 0.217388 0.171960
O12   O     O_3   0.598659 0.940718 0.676990 -0.562810
C38   C     C_3   0.688526 0.911574 0.682694 -0.353364
H16   H     H_    0.726660 0.967937 0.732751 0.189731
H17   H     H_    0.718497 0.903311 0.589789 0.155348
H18   H     H_    0.696094 0.844189 0.735434 0.173960
C39   C     C_1   0.664867 0.618301 0.854396 0.220230
N3    N     N_1   0.722905 0.591832 0.793722 -0.328219
C40   C     C_1   0.591830 0.728103 0.148103 0.290125
N4    N     N_1   0.584786 0.798003 0.205801 -0.257348
C41   C     C_1   0.557163 0.747233 0.895251 0.232850
N5    N     N_1   0.529397 0.822024 0.869602 -0.223607
C42   C     C_1   0.681741 0.585180 0.112659 0.233383
N6    N     N_1   0.743988 0.542628 0.143555 -0.327255
O13   O     O_3   0.055424 0.616463 0.311264 -0.522385
C43   C     C_3   0.086682 0.595710 0.191764 -0.332104
H19   H     H_    0.095376 0.517150 0.174599 0.124461
H20   H     H_    0.149491 0.634405 0.174478 0.157724
H21   H     H_    0.036911 0.621888 0.124158 0.196594
O14   O     O_3   0.952440 0.671195 0.532185 -0.532653
C44   C     C_3   0.926690 0.709697 0.647310 -0.309935
H22   H     H_    0.916222 0.653149 0.717351 0.151192
H23   H     H_    0.866355 0.755045 0.637199 0.164431
H24   H     H_    0.980575 0.756857 0.682419 0.189402
O15   O     O_3   0.225028 0.385585 0.659662 -0.540726
C45   C     C_3   0.241212 0.438682 0.768797 -0.206299
H25   H     H_    0.182095 0.479744 0.800524 0.114036
H26   H     H_    0.258255 0.387581 0.842613 0.215853
H27   H     H_    0.298006 0.488199 0.757149 0.137076
O16   O     O_3   0.771192 0.330524 0.422505 -0.509839
C46   C     C_3   0.744606 0.325719 0.297880 -0.192710
H28   H     H_    0.695944 0.383246 0.275358 0.145864
H29   H     H_    0.711292 0.255855 0.280933 0.177135
H30   H     H_    0.802342 0.329145 0.235295 0.146645
O17   O     O_3   0.043712 0.388181 0.645269 -0.513813
C47   C     C_3   0.999530 0.443748 0.735826 -0.280491
H31   H     H_    0.928733 0.452687 0.709629 0.171912
H32   H     H_    0.029446 0.515760 0.753994 0.117046
H33   H     H_    0.001670 0.404029 0.823653 0.180797
O18   O     O_3   0.951275 0.335482 0.405392 -0.512084
C48   C     C_3   0.991742 0.343842 0.289270 -0.307687
H34   H     H_    0.061853 0.366167 0.300984 0.148252
H35   H     H_    0.956511 0.393854 0.225739 0.138469
H36   H     H_    0.992190 0.271988 0.244064 0.187727
O19   O     O_3   0.639109 0.262273 0.604267 -0.512857
C49   C     C_3   0.686304 0.211254 0.695550 -0.300505
H37   H     H_    0.739185 0.166562 0.652918 0.186343
H38   H     H_    0.642223 0.166742 0.753236 0.144861
H39   H     H_    0.719391 0.264037 0.757705 0.185491
O20   O     O_3   0.361955 0.258399 0.392637 -0.534875
C50   C     C_3   0.276604 0.227581 0.426903 -0.277037
H40   H     H_    0.272188 0.212025 0.526974 0.191242
H41   H     H_    0.255919 0.164449 0.370399 0.144711
H42   H     H_    0.228568 0.286029 0.406977 0.185460

loop_
_geom_bond_atom_site_label_1
_geom_bond_atom_site_label_2
_ccdc_geom_bond_type
C15   C18   A    
C44   H22   S    
O17   C47   S    
C7    C29   A    
C10   H6    S    
C39   N3    T    
C14   C18   A    
O19   C49   S    
C49   H38   S    
C46   H28   S    
C1    C33   S    
C7    C8    S    
C41   N5    T    
C2    O2    A    
C13   C18   S    
Cu2   O3    S    
C24   C26   A    
C12   N1    A    
C50   H41   S    
O18   C48   S    
C15   O12   S    
O20   C50   S    
C47   H33   S    
C3    O15   S    
C38   H17   S    
C28   C42   S    
C9    C13   A    
C20   O6    A    
C4    O16   S    
C20   C24   S    
O12   C38   S    
Cu1   O5    S    
C48   H34   S    
C31   C33   A    
C11   N1    A    
C30   O14   S    
C16   N2    A    
Cu2   O8    S    
C16   H1    S    
C2    C34   S    
C23   C25   A    
C36   H10   S    
C21   C22   A    
C48   H35   S    
C47   H31   S    
C49   H37   S    
C46   H29   S    
O13   C43   S    
C4    C34   A    
C35   H8    S    
C36   H11   S    
C11   O19   S    
C37   H15   S    
C4    C6    A    
C50   H42   S    
O15   C45   S    
C5    C7    A    
O14   C44   S    
C1    O3    A    
C6    C8    A    
C2    O4    A    
O10   C36   S    
O9    C35   S    
C45   H27   S    
O11   C37   S    
Cu1   Cu2   S    
C37   H14   S    
C38   H18   S    
C19   C23   S    
C40   N4    T    
C29   O13   S    
C26   O10   S    
C19   O5    A    
O16   C46   S    
Cu1   O6    S    
C45   H26   S    
C6    O18   S    
C47   H32   S    
Cu1   N2    S    
C9    C11   A    
Cu2   O7    S    
C10   C12   A    
C21   C28   S    
C43   H20   S    
C22   C27   S    
C44   H23   S    
C48   H36   S    
C14   C16   A    
Cu1   O1    S    
C3    C5    A    
C46   H30   S    
C15   C17   A    
C35   H7    S    
C36   H12   S    
C25   O9    S    
C27   C41   S    
C10   C13   A    
C43   H21   S    
C9    H5    S    
C5    O17   S    
C8    C30   A    
C37   H13   S    
C21   C23   A    
C25   C26   A    
C17   N2    A    
C29   C31   A    
C50   H40   S    
C30   C32   A    
C28   C40   S    
C1    O1    A    
C14   O11   S    
C45   H25   S    
C31   H3    S    
Cu2   O4    S    
C22   C24   A    
C17   H2    S    
C32   H4    S    
C38   H16   S    
C42   N6    T    
C19   O7    A    
C20   O8    A    
C43   H19   S    
C44   H24   S    
C27   C28   S    
C3    C33   A    
Cu2   N1    S    
C27   C39   S    
Cu1   O2    S    
C49   H39   S    
C32   C34   A    
C12   O20   S    
C35   H9    S    
