data_mof_unit_35152.cif
_audit_creation_date              2012-12-10T17:35:42-0500
_audit_creation_method            fapswitch 2.2
_symmetry_space_group_name_H-M    P1
_symmetry_Int_Tables_number       1
_space_group_crystal_system       triclinic
_cell_length_a                    10.59778
_cell_length_b                    12.137771
_cell_length_c                    12.776767
_cell_angle_alpha                 94.217323
_cell_angle_beta                  94.338925
_cell_angle_gamma                 86.736807
_cell_volume                      1632.19033965

loop_
_atom_site_label
_atom_site_type_symbol
_atom_type_description
_atom_site_fract_x
_atom_site_fract_y
_atom_site_fract_z
_atom_type_partial_charge
C1    C     C_R   0.496206 0.521608 0.701607 0.938003
C2    C     C_R   0.595122 0.168393 0.599807 -0.069620
C3    C     C_R   0.560573 0.859684 0.540023 0.577503
C4    C     C_R   0.461519 0.138463 0.444069 0.600505
C5    C     C_R   0.546839 0.977868 0.537066 -0.228246
C6    C     C_R   0.463657 0.021275 0.454466 -0.241920
C7    C     C_R   0.742191 0.500022 0.502349 1.001979
C8    C     C_R   0.257526 0.499848 0.497080 1.000736
C9    C     C_3   0.968466 0.392914 0.502508 0.300500
C10   C     C_3   0.030131 0.606071 0.495693 0.266910
C11   C     C_3   0.055170 0.456484 0.585014 0.337567
C12   C     C_R   0.521859 0.478953 0.302764 0.930473
C13   C     C_3   0.943584 0.542528 0.413363 0.312506
C14   C     C_3   0.122193 0.501749 0.495416 -0.409343
C15   C     C_3   0.876890 0.497532 0.502765 -0.409088
C16   C     C_3   0.034254 0.438933 0.412893 0.276161
C17   C     C_3   0.964320 0.560096 0.585140 0.305905
C18   C     C_R   0.566279 0.468957 0.196852 -0.291046
C19   C     C_R   0.505233 0.532776 0.816964 -0.366968
C20   C     C_R   0.530554 0.651229 0.977128 0.455772
C21   C     C_R   0.616224 0.360311 0.039120 0.436170
C22   C     C_R   0.487207 0.636628 0.870989 0.314564
C23   C     C_R   0.540296 0.438681 0.874018 0.465755
C24   C     C_R   0.601603 0.365277 0.147932 0.316741
C25   C     C_3   0.052240 0.402794 0.756255 -0.179988
C26   C     C_3   0.947862 0.595576 0.242160 -0.059309
C27   C     C_3   0.987351 0.319692 0.266820 -0.203564
C28   C     C_3   0.010589 0.677331 0.732722 -0.213745
C29   C     C_3   0.591617 0.738240 0.238173 -0.047366
C30   C     C_3   0.422870 0.288948 0.830555 -0.179506
C31   C     C_3   0.603009 0.174656 0.165624 -0.013267
C32   C     C_3   0.311211 0.753859 0.857910 -0.172569
C33   C     C_3   0.645907 0.803234 0.998504 -0.194371
C34   C     C_R   0.578540 0.566311 0.144649 0.472650
C35   C     C_3   0.801339 0.295338 0.974181 -0.134584
C36   C     C_3   0.300070 0.233509 0.351629 0.038197
C37   C     C_3   0.666360 0.766890 0.675579 0.057420
C38   C     C_R   0.571136 0.451657 0.982116 -0.267388
C39   C     C_R   0.561401 0.557693 0.034933 -0.248132
C40   C     C_R   0.389953 0.944295 0.385764 0.342191
C41   C     C_R   0.615693 0.055103 0.609327 0.366385
C42   C     C_R   0.391937 0.833457 0.408932 -0.126494
H1    H     H_    0.639807 0.228368 0.654789 0.249562
H2    H     H_    0.869756 0.805645 0.442389 0.384459
H3    H     H_    0.889180 0.356900 0.271316 0.207117
H4    H     H_    0.994501 0.235560 0.295686 0.257452
H5    H     H_    0.007622 0.310244 0.182746 0.148709
H6    H     H_    0.002541 0.764184 0.710629 0.263521
H7    H     H_    0.108585 0.641826 0.722987 0.169363
H8    H     H_    0.993995 0.678611 0.817487 0.138635
H9    H     H_    0.615657 0.742046 0.324074 0.185236
H10   H     H_    0.487028 0.739477 0.220299 0.177590
H11   H     H_    0.627020 0.814876 0.211589 0.161225
H12   H     H_    0.334347 0.774904 0.362591 0.233082
H13   H     H_    0.345691 0.341141 0.792049 0.180046
H14   H     H_    0.402911 0.278560 0.913406 0.137437
H15   H     H_    0.423288 0.205925 0.787999 0.172898
H16   H     H_    0.678373 0.134688 0.117980 0.169185
H17   H     H_    0.509947 0.179451 0.118944 0.158111
H18   H     H_    0.594789 0.119281 0.229633 0.208335
H19   H     H_    0.321523 0.807117 0.932171 0.225291
H20   H     H_    0.257273 0.680245 0.870258 0.104330
H21   H     H_    0.254382 0.802777 0.799419 0.194391
H22   H     H_    0.655194 0.798677 0.912332 0.191413
H23   H     H_    0.073954 0.321077 0.788860 0.189046
H24   H     H_    0.730924 0.761217 0.037503 0.161800
H25   H     H_    0.643664 0.891785 0.027239 0.196864
H26   H     H_    0.848516 0.339236 0.044857 0.081481
H27   H     H_    0.802105 0.345943 0.905175 0.173405
H28   H     H_    0.858581 0.217498 0.957908 0.213792
H29   H     H_    0.306673 0.321123 0.337631 0.180609
H30   H     H_    0.250452 0.222991 0.423625 0.189513
H31   H     H_    0.239979 0.204971 0.281831 0.228449
H32   H     H_    0.686665 0.677191 0.667457 0.173302
H33   H     H_    0.576123 0.789771 0.711649 0.184564
H34   H     H_    0.948052 0.410736 0.736865 0.194766
H35   H     H_    0.744556 0.792280 0.732516 0.206704
H36   H     H_    0.119574 0.985027 0.354876 0.401102
H37   H     H_    0.574705 0.019857 0.826693 0.363885
H38   H     H_    0.078664 0.467226 0.818927 0.127959
H39   H     H_    0.051926 0.590858 0.262791 0.174824
H40   H     H_    0.923984 0.675837 0.207267 0.189720
H41   H     H_    0.924194 0.529013 0.180800 0.134381
H42   H     H_    0.032859 0.095022 0.523759 0.411127
N1    N     N_R   0.523490 0.207800 0.519350 -0.174597
N2    N     N_R   0.476510 0.792200 0.480650 -0.191071
O1    O     O_R   0.506270 0.421700 0.658830 -0.588218
O2    O     O_3   0.872544 0.588693 0.327771 -0.576712
O3    O     O_2   0.876153 0.245240 0.619622 -0.286203
O4    O     O_2   0.832306 0.217059 0.429152 -0.286586
O5    O     O_3   0.060140 0.168627 0.508773 -0.551982
O6    O     O_2   0.163645 0.783687 0.567015 -0.292473
O7    O     O_2   0.104097 0.763702 0.378167 -0.341197
O8    O     O_3   0.929110 0.827418 0.503054 -0.452924
O9    O     O_3   0.080507 0.384596 0.321202 -0.672529
O10   O     O_3   0.915927 0.616704 0.675039 -0.635414
O11   O     O_3   0.658206 0.645641 0.191726 -0.588756
O12   O     O_R   0.493730 0.578300 0.341170 -0.661150
O13   O     O_3   0.542449 0.332987 0.824871 -0.543590
O14   O     O_3   0.639543 0.278634 0.211133 -0.581062
O15   O     O_3   0.430617 0.724701 0.818966 -0.598580
O16   O     O_3   0.533803 0.757084 0.024201 -0.600910
O17   O     O_3   0.676452 0.268843 0.989983 -0.571381
O18   O     O_3   0.420911 0.179505 0.348738 -0.609034
O19   O     O_3   0.675896 0.813482 0.578824 -0.576306
O20   O     O_2   0.352887 0.039908 0.198546 -0.293087
O21   O     O_2   0.257831 0.865419 0.208730 -0.305046
O22   O     O_3   0.152571 0.034530 0.306298 -0.550977
O23   O     O_R   0.491200 0.609310 0.646410 -0.617682
O24   O     O_2   0.833277 0.953360 0.684830 -0.203536
O25   O     O_2   0.773367 0.128628 0.773783 -0.267639
O26   O     O_3   0.644015 0.965388 0.808078 -0.627320
O27   O     O_R   0.508800 0.390690 0.353590 -0.557061
O28   O     O_R   0.693580 0.406210 0.506230 -0.572064
O29   O     O_R   0.306420 0.593790 0.493770 -0.571795
O30   O     O_R   0.678510 0.593830 0.493810 -0.587704
O31   O     O_R   0.321490 0.406170 0.506190 -0.632319
O32   O     O_3   0.126927 0.410343 0.670393 -0.592248
S1    S     S_3+6 0.929243 0.252813 0.515069 0.059582
S2    S     S_3+6 0.061853 0.748134 0.485269 0.044776
S3    S     S_3+6 0.289787 0.971647 0.270714 0.021795
S4    S     S_3+6 0.721762 0.024968 0.719443 0.044847
Zn1   Zn    Zn3+2 0.510060 0.374730 0.508290 1.038223
Zn2   Zn    Zn3+2 0.489940 0.625270 0.491710 0.997172

loop_
_geom_bond_atom_site_label_1
_geom_bond_atom_site_label_2
_ccdc_geom_bond_type
C1    O1    A    
C23   O13   S    
C37   H32   S    
C26   H41   S    
C25   H38   S    
C27   O9    S    
O22   S3    S    
C25   O32   S    
C3    O19   S    
O5    S1    S    
O26   S4    S    
C40   S3    S    
C22   O15   S    
H37   O26   S    
C18   C24   A    
C31   H16   S    
C9    C16   S    
C32   H19   S    
C35   O17   S    
C38   C39   A    
C11   C14   S    
C20   O16   S    
C10   C17   S    
C30   H15   S    
C34   O11   S    
C13   O2    S    
C2    N1    A    
H36   O22   S    
C31   H17   S    
C8    O29   A    
C1    O23   A    
O8    S2    S    
C28   H6    S    
C21   C38   A    
O3    S1    D    
C35   H28   S    
C8    O31   A    
C42   N2    A    
H42   O5    S    
C12   O12   A    
C36   H29   S    
C27   H3    S    
C41   S4    S    
C40   C42   A    
C37   H33   S    
C26   H40   S    
O25   S4    D    
C28   H8    S    
C33   H24   S    
C1    C19   S    
C33   O16   S    
C19   C22   A    
C25   H23   S    
C4    C6    A    
C10   C14   S    
C20   C39   A    
C19   C23   A    
C4    N1    A    
C37   H35   S    
C30   O13   S    
C34   C39   A    
C7    O30   A    
O12   Zn2   S    
C37   O19   S    
C18   C34   A    
C28   H7    S    
O27   Zn1   S    
C2    H1    S    
C17   O10   S    
C31   O14   S    
C9    C11   S    
O28   Zn1   S    
C27   H4    S    
O7    S2    D    
C20   C22   A    
C26   H39   S    
C13   C15   S    
N2    Zn2   S    
C9    S1    S    
C6    C40   A    
C21   C24   A    
O21   S3    D    
C33   H25   S    
H2    O8    S    
C12   O27   A    
C29   H9    S    
C27   H5    S    
C15   C17   S    
C5    C41   A    
C11   C17   S    
C16   O9    S    
C8    C14   S    
O29   Zn2   S    
O30   Zn2   S    
C24   O14   S    
C32   H21   S    
C3    C5    A    
C10   C13   S    
O23   Zn2   S    
C30   H14   S    
C23   C38   A    
C30   H13   S    
C29   O11   S    
C28   O10   S    
C25   H34   S    
O4    S1    D    
O6    S2    D    
C32   H20   S    
O24   S4    D    
O1    Zn1   S    
C36   O18   S    
C5    C6    A    
C29   H11   S    
C35   H26   S    
C33   H22   S    
C4    O18   S    
O20   S3    D    
C7    C15   S    
N1    Zn1   S    
C14   C16   S    
O31   Zn1   S    
C10   S2    S    
C36   H31   S    
C21   O17   S    
C35   H27   S    
C26   O2    S    
C13   C16   S    
C12   C18   S    
C32   O15   S    
C2    C41   A    
C31   H18   S    
C11   O32   S    
C7    O28   A    
C42   H12   S    
C36   H30   S    
C9    C15   S    
C3    N2    A    
C29   H10   S    
