data_mof_unit_24855.cif
_audit_creation_date              2012-12-10T16:53:58-0500
_audit_creation_method            fapswitch 2.2
_symmetry_space_group_name_H-M    P1
_symmetry_Int_Tables_number       1
_space_group_crystal_system       triclinic
_cell_length_a                    7.813476
_cell_length_b                    8.575203
_cell_length_c                    10.71153
_cell_angle_alpha                 91.81661
_cell_angle_beta                  84.651223
_cell_angle_gamma                 93.633178
_cell_volume                      712.893950316

loop_
_atom_site_label
_atom_site_type_symbol
_atom_type_description
_atom_site_fract_x
_atom_site_fract_y
_atom_site_fract_z
_atom_type_partial_charge
C1    C     C_R   0.545605 0.794589 0.497103 0.977625
C2    C     C_3   0.385026 0.651230 0.937570 0.240196
C3    C     C_3   0.368578 0.639187 0.085792 0.603160
C4    C     C_3   0.421991 0.344939 0.933798 0.441913
C5    C     C_3   0.687726 0.543958 0.917754 0.174336
C6    C     C_3   0.496737 0.509463 0.879524 -0.220767
C7    C     C_3   0.498159 0.516338 0.122966 -0.213739
C8    C     C_3   0.438653 0.349026 0.076637 -0.476745
C9    C     C_3   0.686110 0.549926 0.061194 -0.174718
C10   C     C_2   0.569573 0.958103 0.495577 -0.287552
C11   C     C_2   0.430415 0.041943 0.505793 -0.274935
C12   C     C_R   0.500329 0.504377 0.742288 0.972148
C13   C     C_R   0.454396 0.205435 0.503454 0.960423
C14   C     C_R   0.500602 0.508839 0.258685 0.989880
Cl1   Cl    Cl    0.172249 0.656167 0.881992 -0.561741
Cl2   Cl    Cl    0.535795 0.184005 0.862858 -0.572511
Cl3   Cl    Cl    0.397015 0.826326 0.165814 -0.626198
Cl4   Cl    Cl    0.151080 0.578121 0.147473 -0.575293
Cl5   Cl    Cl    0.846447 0.410383 0.855619 -0.506462
H1    H     H_    0.762744 0.452859 0.087818 0.271462
H2    H     H_    0.576967 0.836742 0.939109 0.196826
H3    H     H_    0.155272 0.372407 0.963096 0.289235
H4    H     H_    0.222513 0.303625 0.816329 0.262552
H5    H     H_    0.710866 0.792540 0.093474 0.220852
H6    H     H_    0.893228 0.710264 0.059030 0.300037
H7    H     H_    0.532961 0.264689 0.099910 0.233198
H8    H     H_    0.701091 0.008959 0.485783 0.185164
H9    H     H_    0.298897 0.991081 0.515653 0.191349
H10   H     H_    0.013957 0.382028 0.404253 0.212555
H11   H     H_    0.986042 0.617866 0.595850 0.227265
H12   H     H_    0.315557 0.306894 0.129059 0.224242
H13   H     H_    0.742243 0.656215 0.878157 0.151369
H14   H     H_    0.384064 0.890426 0.913879 0.312598
N1    N     N_2   0.950330 0.457950 0.465890 -0.138063
N2    N     N_2   0.049670 0.542050 0.534110 -0.123680
N3    N     N_3   0.468853 0.801500 0.894005 -0.420217
N4    N     N_3   0.241845 0.303502 0.911326 -0.378478
N5    N     N_3   0.773339 0.693423 0.109481 -0.370628
O1    O     O_R   0.389250 0.738570 0.508370 -0.593844
O2    O     O_R   0.678390 0.711620 0.486510 -0.630764
O3    O     O_R   0.355430 0.513500 0.696140 -0.581555
O4    O     O_R   0.644580 0.486550 0.674270 -0.570187
O5    O     O_R   0.321610 0.288380 0.513490 -0.637913
O6    O     O_R   0.610750 0.261430 0.491630 -0.607624
O7    O     O_R   0.355420 0.513450 0.325730 -0.574739
O8    O     O_R   0.644570 0.486500 0.303860 -0.610317
Zn1   Zn    Zn3+2 0.306940 0.517990 0.514600 1.052305
Zn2   Zn    Zn3+2 0.693060 0.482010 0.485400 1.037981

loop_
_geom_bond_atom_site_label_1
_geom_bond_atom_site_label_2
_ccdc_geom_bond_type
C10   H8    S    
C4    Cl2   S    
H5    N5    S    
C5    C9    S    
C12   O3    A    
C5    Cl5   S    
H6    N5    S    
C7    C14   S    
C8    H7    S    
C9    H1    S    
C4    C8    S    
C5    H13   S    
N2    Zn1   S    
H3    N4    S    
C2    C3    S    
O3    Zn1   S    
C7    C8    S    
C14   O8    A    
H2    N3    S    
O4    Zn2   S    
C2    Cl1   S    
C11   C13   S    
C2    C6    S    
H11   N2    S    
C11   H9    S    
C4    C6    S    
C9    N5    S    
C3    Cl3   S    
C14   O7    A    
C3    C7    S    
O7    Zn1   S    
C6    C12   S    
C5    C6    S    
O8    Zn2   S    
N1    Zn2   S    
C10   C11   D    
C1    O1    A    
C13   O5    A    
H14   N3    S    
C4    N4    S    
C3    Cl4   S    
O1    Zn1   S    
N1    N2    D    
C2    N3    S    
C7    C9    S    
O2    Zn2   S    
C12   O4    A    
C1    O2    A    
H4    N4    S    
C8    H12   S    
O5    Zn1   S    
H10   N1    S    
C13   O6    A    
C1    C10   S    
O6    Zn2   S    
