data_mof_unit_19670.cif
_audit_creation_date              2012-12-10T17:32:21-0500
_audit_creation_method            fapswitch 2.2
_symmetry_space_group_name_H-M    P1
_symmetry_Int_Tables_number       1
_space_group_crystal_system       triclinic
_cell_length_a                    12.457443
_cell_length_b                    13.218158
_cell_length_c                    14.994484
_cell_angle_alpha                 75.89282
_cell_angle_beta                  101.703109
_cell_angle_gamma                 117.276132
_cell_volume                      2116.40602475

loop_
_atom_site_label
_atom_site_type_symbol
_atom_type_description
_atom_site_fract_x
_atom_site_fract_y
_atom_site_fract_z
_atom_type_partial_charge
C1    C     C_R   0.855489 0.286368 0.507744 0.841163
C2    C     C_R   0.094695 0.592812 0.089404 -0.055437
C3    C     C_R   0.809413 0.327968 0.055303 -0.301014
C4    C     C_R   0.806152 0.324295 0.962293 0.507549
C5    C     C_R   0.903202 0.408469 0.911222 -0.081619
C6    C     C_R   0.998609 0.499699 0.953433 -0.116183
C7    C     C_R   0.094196 0.587178 0.902900 0.045007
C8    C     C_R   0.188189 0.677466 0.945312 0.496445
C9    C     C_R   0.189224 0.677978 0.038636 -0.287779
C10   C     C_R   0.907372 0.404640 0.818833 0.459454
C11   C     C_R   0.999388 0.495301 0.768350 -0.192669
C12   C     C_R   0.999295 0.498042 0.671018 0.876118
C13   C     C_R   0.092970 0.584000 0.810332 -0.306696
C14   C     C_R   0.279580 0.031031 0.383285 0.493944
C15   C     C_R   0.229421 0.836337 0.467731 -0.143429
C16   C     C_R   0.812484 0.082342 0.578831 0.386703
C17   C     C_R   0.725769 0.976174 0.616453 -0.299922
C18   C     C_R   0.602550 0.945657 0.591064 0.419504
C19   C     C_R   0.563745 0.013501 0.513682 -0.018048
C20   C     C_R   0.652084 0.122589 0.475712 -0.043975
C21   C     C_R   0.440067 0.980342 0.476394 0.026412
C22   C     C_R   0.404017 0.060719 0.412562 0.043255
C23   C     C_R   0.145136 0.713690 0.485439 0.817671
C24   C     C_R   0.493141 0.166135 0.374745 -0.215217
C25   C     C_R   0.615198 0.193346 0.401884 -0.153558
C26   C     C_R   0.352364 0.866991 0.496227 -0.186664
C27   C     C_R   0.192309 0.919892 0.414932 -0.310328
C28   C     C_R   0.774483 0.161472 0.516055 -0.237512
C29   C     C_R   0.375375 0.381550 0.671495 -0.382309
C30   C     C_R   0.757085 0.635411 0.366746 -0.013291
C31   C     C_R   0.658285 0.659419 0.329836 -0.331632
C32   C     C_R   0.553198 0.607948 0.375210 0.530984
C33   C     C_R   0.551697 0.539930 0.465151 -0.151224
C34   C     C_R   0.000749 0.501911 0.329263 0.823797
C35   C     C_R   0.655357 0.514211 0.498957 0.101322
C36   C     C_R   0.451751 0.491383 0.522232 -0.005025
C37   C     C_R   0.468767 0.437434 0.614325 0.025953
C38   C     C_R   0.575817 0.428897 0.647891 -0.318580
C39   C     C_R   0.651245 0.440454 0.586247 0.525778
C40   C     C_R   0.336287 0.493334 0.495300 -0.028007
C41   C     C_R   0.262293 0.381568 0.639796 0.723282
C42   C     C_R   0.094007 0.594904 0.182643 0.430733
C43   C     C_R   0.000884 0.504984 0.232434 -0.133497
C44   C     C_R   0.905659 0.418020 0.189820 -0.304010
C45   C     C_R   0.904046 0.416385 0.097166 0.071491
C46   C     C_R   0.998854 0.503309 0.046475 0.016792
Cu1   Cu    Cu3+1 0.098270 0.475420 0.521130 1.012056
Cu2   Cu    Cu3+1 0.901730 0.524580 0.478870 0.970254
H1    H     H_    0.754120 0.921191 0.672372 0.183853
H2    H     H_    0.680449 0.271933 0.365332 0.154120
H3    H     H_    0.835804 0.673902 0.328956 0.147379
H4    H     H_    0.661653 0.715975 0.263610 0.164348
H5    H     H_    0.264525 0.745775 0.070875 0.204716
H6    H     H_    0.096924 0.897108 0.392880 0.167381
N1    N     N_R   0.246280 0.438190 0.553160 -0.243352
N2    N     N_R   0.754320 0.561190 0.447410 -0.190538
O1    O     O_R   0.972510 0.318130 0.526570 -0.515023
O2    O     O_R   0.806530 0.359650 0.490890 -0.536566
O3    O     O_R   0.082980 0.479210 0.647590 -0.555227
O4    O     O_R   0.917000 0.520730 0.611900 -0.525475
O5    O     O_R   0.193470 0.640350 0.509110 -0.581753
O6    O     O_R   0.027490 0.681870 0.473430 -0.600309
O7    O     O_R   0.083000 0.479270 0.388100 -0.576428
O8    O     O_R   0.917020 0.520790 0.352410 -0.616668
O9    O     O_3   0.187357 0.680751 0.226645 -0.574121
C47   C     C_3   0.153949 0.771189 0.219519 -0.344690
H7    H     H_    0.073602 0.742152 0.257066 0.152875
H8    H     H_    0.136018 0.808105 0.146062 0.149985
H9    H     H_    0.230536 0.841464 0.252016 0.200200
H10   H     H_    0.469118 0.226437 0.321519 0.178226
O10   O     O_3   0.243415 0.112100 0.326710 -0.584301
C48   C     C_3   0.206751 0.084592 0.236936 -0.375701
H11   H     H_    0.279966 0.078798 0.209348 0.153797
H12   H     H_    0.187198 0.154730 0.190236 0.197670
H13   H     H_    0.122043 0.002978 0.235296 0.161111
H14   H     H_    0.379752 0.799246 0.528700 0.234568
O11   O     O_3   0.931935 0.115202 0.616570 -0.545572
C49   C     C_3   0.987412 0.074565 0.569544 -0.218735
H15   H     H_    0.984700 0.111003 0.494292 0.159079
H16   H     H_    0.944683 0.978417 0.580411 0.138654
H17   H     H_    0.084302 0.103565 0.597816 0.183484
O12   O     O_3   0.523156 0.853049 0.647067 -0.589789
C50   C     C_3   0.495815 0.895644 0.712857 -0.314742
H18   H     H_    0.450242 0.952828 0.679211 0.147973
H19   H     H_    0.578780 0.942175 0.757918 0.166043
H20   H     H_    0.432093 0.821227 0.757751 0.235184
O13   O     O_3   0.164356 0.322491 0.692326 -0.535916
C51   C     C_3   0.199835 0.333939 0.786552 -0.335023
H21   H     H_    0.119863 0.318043 0.818760 0.176397
H22   H     H_    0.269376 0.422603 0.795714 0.163732
H23   H     H_    0.232020 0.267831 0.824359 0.147651
H24   H     H_    0.587921 0.388175 0.718843 0.167957
H25   H     H_    0.389913 0.334701 0.739402 0.133150
H26   H     H_    0.833757 0.350588 0.229610 0.142777
H27   H     H_    0.315113 0.539583 0.430474 0.226772
O14   O     O_3   0.455049 0.628364 0.330514 -0.581235
C52   C     C_3   0.395036 0.554418 0.264481 -0.306235
H28   H     H_    0.367376 0.461958 0.297030 0.156018
H29   H     H_    0.452040 0.577892 0.207790 0.161785
H30   H     H_    0.311182 0.563947 0.232824 0.228536
O15   O     O_3   0.707563 0.367751 0.608884 -0.501296
C53   C     C_3   0.619824 0.250620 0.624086 -0.205563
H31   H     H_    0.665602 0.193955 0.633467 0.173301
H32   H     H_    0.578217 0.227165 0.689306 0.151987
H33   H     H_    0.548060 0.230434 0.564665 0.141357
H34   H     H_    0.737830 0.260588 0.095194 0.155329
O16   O     O_3   0.711948 0.234229 0.923130 -0.541115
C54   C     C_3   0.602603 0.244866 0.915480 -0.302492
H35   H     H_    0.613746 0.334731 0.886329 0.145313
H36   H     H_    0.565787 0.215564 0.983470 0.149552
H37   H     H_    0.534483 0.188041 0.867612 0.172064
O17   O     O_3   0.819416 0.314494 0.776724 -0.537194
C55   C     C_3   0.861125 0.229285 0.785555 -0.227076
H38   H     H_    0.782247 0.147429 0.771999 0.174142
H39   H     H_    0.904368 0.210598 0.856451 0.139685
H40   H     H_    0.924187 0.254588 0.733052 0.204170
H41   H     H_    0.163886 0.651360 0.769741 0.191624
O18   O     O_3   0.283610 0.761492 0.897215 -0.590749
C56   C     C_3   0.267038 0.863799 0.871662 -0.377700
H42   H     H_    0.179448 0.849593 0.827744 0.167617
H43   H     H_    0.341148 0.929948 0.830260 0.183583
H44   H     H_    0.272201 0.899201 0.933353 0.167396

loop_
_geom_bond_atom_site_label_1
_geom_bond_atom_site_label_2
_ccdc_geom_bond_type
C16   C28   A    
C47   H8    S    
O13   C51   S    
O15   C53   S    
C14   O10   S    
C19   C20   A    
C31   H4    S    
C30   H3    S    
C52   H28   S    
C27   H6    S    
C8    O18   S    
C7    C8    A    
C45   C46   A    
C2    C46   A    
C50   H18   S    
C36   C37   A    
C19   C21   A    
C18   C19   A    
Cu1   O7    S    
C30   C31   A    
C49   H16   S    
Cu2   O8    S    
C47   H9    S    
C20   C25   A    
C38   H24   S    
C33   C36   A    
C54   H35   S    
C53   H33   S    
C16   O11   S    
O18   C56   S    
C41   N1    A    
C33   C35   A    
C25   H2    S    
C12   O3    A    
C15   C27   A    
C23   O6    A    
Cu1   Cu2   S    
C16   C17   A    
C1    C28   S    
C26   H14   S    
O16   C54   S    
C10   O17   S    
C14   C27   A    
C55   H40   S    
C15   C23   S    
C47   H7    S    
C21   C22   A    
Cu2   O4    S    
C48   H13   S    
O17   C55   S    
C52   H29   S    
C21   C26   A    
C39   O15   S    
C56   H43   S    
C3    H34   S    
C38   C39   A    
C41   O13   S    
C4    O16   S    
C24   H10   S    
C36   C40   A    
C24   C25   A    
C48   H12   S    
C17   H1    S    
C49   H15   S    
C8    C9    A    
C15   C26   A    
C20   C28   A    
O11   C49   S    
C30   N2    A    
C3    C45   A    
C35   C39   A    
C43   C44   A    
C37   C38   A    
C1    O1    A    
Cu1   O1    S    
Cu2   O6    S    
C31   C32   A    
C51   H23   S    
C7    C13   A    
C56   H42   S    
C40   N1    A    
O14   C52   S    
C34   O8    A    
C17   C18   A    
C53   H32   S    
C50   H19   S    
C51   H22   S    
O12   C50   S    
C22   C24   A    
C9    H5    S    
C42   C43   A    
C40   H27   S    
C3    C4    A    
C52   H30   S    
C44   C45   A    
Cu1   N1    S    
C55   H38   S    
C56   H44   S    
Cu2   N2    S    
C42   O9    S    
C6    C46   A    
C29   C41   A    
C35   N2    A    
C34   C43   S    
C48   H11   S    
Cu1   O5    S    
C13   H41   S    
C11   C12   S    
Cu2   O2    S    
C6    C7    A    
C54   H37   S    
C32   C33   A    
C14   C22   A    
C5    C10   A    
C32   O14   S    
C1    O2    A    
C29   H25   S    
C11   C13   A    
C49   H17   S    
C5    C6    A    
C2    C42   A    
C4    C5    A    
C34   O7    A    
C18   O12   S    
C54   H36   S    
C53   H31   S    
C44   H26   S    
C10   C11   A    
Cu1   O3    S    
C12   O4    A    
C23   O5    A    
C50   H20   S    
O10   C48   S    
C51   H21   S    
O9    C47   S    
C29   C37   A    
C2    C9    A    
C55   H39   S    
