data_mof_unit_16360.cif
_audit_creation_date              2012-10-26T21:06:25-0400
_audit_creation_method            fapswitch 2.2
_symmetry_space_group_name_H-M    P1
_symmetry_Int_Tables_number       1
_space_group_crystal_system       triclinic
_cell_length_a                    15.896195
_cell_length_b                    10.814043
_cell_length_c                    9.529451
_cell_angle_alpha                 89.835214
_cell_angle_beta                  90.321008
_cell_angle_gamma                 90.483525
_cell_volume                      1638.04238832

loop_
_atom_site_label
_atom_site_type_symbol
_atom_type_description
_atom_site_fract_x
_atom_site_fract_y
_atom_site_fract_z
_atom_type_partial_charge
C1    C     C_R   0.498558 0.262569 0.500337 0.538691
C2    C     C_R   0.554923 0.572997 0.075214 -0.050335
C3    C     C_R   0.339896 0.499871 0.499609 0.542106
C4    C     C_R   0.660099 0.499724 0.500393 0.536000
C5    C     C_3   0.973161 0.455938 0.629042 -0.161329
C6    C     C_3   0.026754 0.537520 0.371803 -0.144874
C7    C     C_3   0.028200 0.383891 0.523935 0.223084
C8    C     C_3   0.971819 0.609606 0.476904 0.232894
C9    C     C_1   0.250413 0.499597 0.498713 0.024671
C10   C     C_1   0.749554 0.497665 0.501402 -0.003122
C11   C     C_3   0.028593 0.571531 0.599627 0.230939
C12   C     C_R   0.500404 0.737911 0.499357 0.615649
C13   C     C_3   0.971325 0.421913 0.401220 0.222823
C14   C     C_3   0.083582 0.498594 0.497491 0.043497
C15   C     C_3   0.916338 0.494979 0.503313 0.038092
C16   C     C_1   0.175036 0.499245 0.498036 0.049204
C17   C     C_1   0.824901 0.495938 0.502410 0.027982
C18   C     C_R   0.444976 0.063588 0.407953 0.191591
C19   C     C_R   0.551366 0.936362 0.595989 0.184881
C20   C     C_3   0.448608 0.858916 0.172089 0.056611
C21   C     C_3   0.421428 0.953833 0.060264 -0.240430
C22   C     C_3   0.488227 0.054038 0.035894 -0.404091
C23   C     C_R   0.453261 0.936346 0.396376 0.248260
C24   C     C_3   0.677666 0.175808 0.610747 0.018641
C25   C     C_3   0.749368 0.082215 0.615937 -0.280499
C26   C     C_3   0.829475 0.136149 0.551906 -0.456307
C27   C     C_R   0.553532 0.065959 0.592048 0.199731
C28   C     C_R   0.501959 0.872228 0.496800 -0.036173
C29   C     C_R   0.498133 0.128928 0.501165 -0.069658
C30   C     C_R   0.445075 0.425794 0.074423 0.350640
C31   C     C_R   0.555347 0.573494 0.925624 0.349490
C32   C     C_R   0.445438 0.426385 0.924804 -0.022676
Cu1   Cu    Cu3+1 0.500000 0.500020 0.640660 1.056053
Cu2   Cu    Cu3+1 0.500000 0.499980 0.359340 1.018033
H1    H     H_    0.951687 0.422638 0.733255 0.126354
H2    H     H_    0.623928 0.926028 0.762124 0.352788
H3    H     H_    0.431972 0.765677 0.131384 0.154837
H4    H     H_    0.518502 0.857956 0.185689 0.103723
H5    H     H_    0.410550 0.905407 0.958864 0.133716
H6    H     H_    0.361029 0.997315 0.089939 0.235566
H7    H     H_    0.502656 0.104615 0.134266 0.203355
H8    H     H_    0.465015 0.121185 0.956532 0.161717
H9    H     H_    0.546924 0.012043 0.995937 0.149491
H10   H     H_    0.698912 0.261414 0.664964 0.169608
H11   H     H_    0.664373 0.202439 0.499661 0.115080
H12   H     H_    0.048141 0.570674 0.267483 0.135060
H13   H     H_    0.762195 0.055708 0.726736 0.182700
H14   H     H_    0.730895 0.997888 0.556606 0.193277
H15   H     H_    0.818290 0.162912 0.440767 0.191611
H16   H     H_    0.879962 0.065868 0.555499 0.174929
H17   H     H_    0.850705 0.218744 0.611874 0.145309
H18   H     H_    0.355577 0.302527 0.080158 0.305386
H19   H     H_    0.646352 0.694299 0.920048 0.297404
H20   H     H_    0.402165 0.367666 0.866939 0.110902
H21   H     H_    0.598393 0.631379 0.133103 0.104190
H22   H     H_    0.010419 0.211714 0.562538 0.332506
H23   H     H_    0.990768 0.782022 0.441292 0.342466
H24   H     H_    0.989562 0.308011 0.251098 0.344526
H25   H     H_    0.010286 0.684303 0.750825 0.341089
H26   H     H_    0.365609 0.197011 0.376072 0.352128
N1    N     N_R   0.500020 0.500030 0.852070 -0.218723
N2    N     N_R   0.499980 0.499970 0.147930 -0.221781
O1    O     O_R   0.500000 0.319660 0.618740 -0.482502
O2    O     O_3   0.940535 0.728673 0.455705 -0.678723
O3    O     O_3   0.939525 0.340949 0.299511 -0.691178
O4    O     O_3   0.060318 0.652493 0.701410 -0.670151
O5    O     O_3   0.383014 0.119996 0.328873 -0.645850
O6    O     O_3   0.599587 0.869902 0.690504 -0.654424
O7    O     O_3   0.403716 0.873757 0.299315 -0.511694
O8    O     O_3   0.606144 0.130347 0.683285 -0.569016
O9    O     O_3   0.390099 0.350994 0.147705 -0.643624
O10   O     O_3   0.611130 0.646999 0.852426 -0.611736
O11   O     O_R   0.500000 0.680340 0.381260 -0.520083
O12   O     O_R   0.499990 0.319630 0.381170 -0.466145
O13   O     O_R   0.500010 0.680370 0.618830 -0.410865
O14   O     O_R   0.379080 0.500000 0.618760 -0.519518
O15   O     O_R   0.620920 0.500000 0.381240 -0.513740
O16   O     O_R   0.379080 0.499970 0.381190 -0.445167
O17   O     O_R   0.620920 0.500030 0.618810 -0.444797
O18   O     O_3   0.060141 0.265212 0.545016 -0.670070

loop_
_geom_bond_atom_site_label_1
_geom_bond_atom_site_label_2
_ccdc_geom_bond_type
C27   C29   A    
C31   N1    A    
C30   O9    S    
C24   O8    S    
C13   O3    S    
C12   C28   S    
C1    O12   A    
C9    C16   T    
C32   N1    A    
C5    C11   S    
C2    H21   S    
C26   H16   S    
H25   O4    S    
C11   C14   S    
C22   H7    S    
C10   C17   T    
Cu2   N2    S    
C23   O7    S    
Cu1   O14   S    
Cu1   O13   S    
C7    C14   S    
H26   O5    S    
C19   C27   A    
C25   H13   S    
C11   O4    S    
C12   O11   A    
C1    O1    A    
C32   H20   S    
C18   C23   A    
C24   C25   S    
C4    O17   A    
C26   H15   S    
C5    C7    S    
Cu1   O17   S    
C6    C8    S    
C25   C26   S    
C2    C31   A    
C3    C9    S    
C6    C14   S    
C20   H4    S    
H24   O3    S    
C22   H9    S    
C21   H5    S    
Cu1   O1    S    
C1    C29   S    
Cu1   Cu2   S    
C19   O6    S    
C18   C29   A    
C23   C28   A    
C3    O14   A    
C25   H14   S    
C27   O8    S    
C8    O2    S    
C31   O10   S    
Cu2   O12   S    
C8    C15   S    
C30   N2    A    
C19   C28   A    
C24   H10   S    
C14   C16   S    
C20   O7    S    
C24   H11   S    
C4    C10   S    
H23   O2    S    
C15   C17   S    
C6    H12   S    
H2    O6    S    
H22   O18   S    
C13   C15   S    
C18   O5    S    
C4    O15   A    
Cu2   O15   S    
H18   O9    S    
C26   H17   S    
Cu2   O16   S    
C6    C13   S    
C30   C32   A    
C20   H3    S    
H19   O10   S    
C22   H8    S    
C21   H6    S    
C8    C11   S    
C5    H1    S    
C5    C15   S    
Cu2   O11   S    
C7    C13   S    
C20   C21   S    
Cu1   N1    S    
C12   O13   A    
C21   C22   S    
C3    O16   A    
C2    N2    A    
C7    O18   S    
