data_mof_unit_35716.cif
_audit_creation_date              2012-12-10T18:45:08-0500
_audit_creation_method            fapswitch 2.2
_symmetry_space_group_name_H-M    P1
_symmetry_Int_Tables_number       1
_space_group_crystal_system       triclinic
_cell_length_a                    10.699837
_cell_length_b                    9.907239
_cell_length_c                    10.602128
_cell_angle_alpha                 89.977593
_cell_angle_beta                  90.902371
_cell_angle_gamma                 90.017939
_cell_volume                      1123.74798851

loop_
_atom_site_label
_atom_site_type_symbol
_atom_type_description
_atom_site_fract_x
_atom_site_fract_y
_atom_site_fract_z
_atom_type_partial_charge
C1    C     C_R   0.260149 0.500221 0.507693 0.832358
C2    C     C_R   0.498813 0.500032 0.739371 0.885238
C3    C     C_R   0.262112 0.502431 0.128794 -0.108828
C4    C     C_R   0.261469 0.504057 0.865767 -0.172013
C5    C     C_R   0.149026 0.504874 0.061479 -0.116573
C6    C     C_R   0.148708 0.505804 0.930087 -0.118521
C7    C     C_R   0.376726 0.501949 0.932611 0.077906
C8    C     C_R   0.377043 0.501498 0.064675 0.098757
C9    C     C_R   0.493358 0.500066 0.128488 -0.068447
C10   C     C_R   0.492753 0.500170 0.871646 -0.081560
C11   C     C_R   0.606626 0.498861 0.066168 -0.214913
C12   C     C_R   0.739541 0.500298 0.489961 0.865507
C13   C     C_R   0.606316 0.498783 0.937059 -0.148631
C14   C     C_R   0.063682 0.378556 0.499040 -0.177153
C15   C     C_R   0.936068 0.378502 0.489757 -0.177945
C16   C     C_R   0.872790 0.501424 0.479467 -0.179318
C17   C     C_R   0.126697 0.501114 0.514801 -0.179174
C18   C     C_2   0.889769 0.742953 0.401725 0.416845
C19   C     C_2   0.109214 0.740386 0.598634 0.420685
C20   C     C_2   0.700425 0.866918 0.626749 0.430791
C21   C     C_2   0.299575 0.866793 0.373566 0.430338
C22   C     C_R   0.938719 0.624593 0.474913 0.016681
C23   C     C_R   0.060677 0.624033 0.522348 0.014764
C24   C     C_R   0.595144 0.073194 0.555567 -0.119423
C25   C     C_R   0.404814 0.073176 0.444504 -0.117407
C26   C     C_R   0.594889 0.930302 0.558447 0.022858
C27   C     C_R   0.405064 0.930295 0.441692 0.025290
C28   C     C_R   0.499740 0.500037 0.260713 0.864048
H1    H     H_    0.061524 0.505978 0.111384 0.140911
H2    H     H_    0.199361 0.735423 0.646271 0.076839
H3    H     H_    0.670463 0.129080 0.600747 0.132315
H4    H     H_    0.329472 0.129033 0.399338 0.130631
H5    H     H_    0.793789 0.907436 0.615508 0.100640
H6    H     H_    0.205967 0.906124 0.385933 0.100212
H7    H     H_    0.060968 0.507678 0.877827 0.146483
H8    H     H_    0.694982 0.497936 0.117785 0.132259
H9    H     H_    0.694444 0.497762 0.887853 0.154203
H10   H     H_    0.258838 0.501445 0.230714 0.147498
H11   H     H_    0.257776 0.504387 0.764057 0.104572
H12   H     H_    0.112223 0.282623 0.497057 0.180587
H13   H     H_    0.887634 0.282426 0.488333 0.180180
H14   H     H_    0.799392 0.738991 0.354404 0.073658
N1    N     N_R   0.500000 0.857200 0.500000 -0.101565
N2    N     N_R   0.500000 0.142810 0.500000 -0.076692
O1    O     O_R   0.316770 0.614620 0.499990 -0.625506
O2    O     O_2   0.045138 0.839938 0.617976 -0.557393
O3    O     O_2   0.684281 0.778048 0.704075 -0.527629
O4    O     O_2   0.316029 0.779228 0.295133 -0.532655
O5    O     O_R   0.683230 0.614620 0.500010 -0.621972
O6    O     O_R   0.316800 0.385290 0.500000 -0.623292
O7    O     O_R   0.683200 0.385290 0.500000 -0.621959
O8    O     O_R   0.500010 0.614690 0.316770 -0.559642
O9    O     O_R   0.499990 0.614690 0.683230 -0.557408
O10   O     O_R   0.500040 0.385360 0.316770 -0.619771
O11   O     O_R   0.499960 0.385360 0.683230 -0.616320
O12   O     O_2   0.953648 0.843196 0.384551 -0.560224
Zn1   Zn    Zn3+2 0.500000 0.653120 0.500000 1.016110
Zn2   Zn    Zn3+2 0.500000 0.346880 0.500000 0.962768

loop_
_geom_bond_atom_site_label_1
_geom_bond_atom_site_label_2
_ccdc_geom_bond_type
C7    C10   A    
C19   C23   S    
C3    H10   S    
C25   C27   A    
C28   O8    A    
C1    O6    A    
C13   H9    S    
C4    H11   S    
C18   O12   D    
C21   O4    D    
C1    O1    A    
C25   H4    S    
C12   O5    A    
C21   C27   S    
C24   H3    S    
C7    C8    A    
O7    Zn2   S    
C9    C11   A    
C14   C17   A    
O1    Zn1   S    
C17   C23   A    
C20   C26   S    
C4    C7    A    
C20   H5    S    
C25   N2    A    
C11   H8    S    
C24   C26   A    
C26   N1    A    
C5    H1    S    
C2    O11   A    
C18   H14   S    
C5    C6    A    
C24   N2    A    
C19   O2    D    
C20   O3    D    
O8    Zn1   S    
N1    Zn1   S    
C14   H12   S    
C15   C16   A    
C2    C10   S    
C27   N1    A    
C11   C13   A    
C12   O7    A    
O5    Zn1   S    
C6    H7    S    
C15   H13   S    
C4    C6    A    
C3    C8    A    
O10   Zn2   S    
O11   Zn2   S    
N2    Zn2   S    
C28   O10   A    
C14   C15   A    
O9    Zn1   S    
C21   H6    S    
C18   C22   S    
C19   H2    S    
C1    C17   S    
C2    O9    A    
C22   C23   A    
C12   C16   S    
C9    C28   S    
C16   C22   A    
C8    C9    A    
C3    C5    A    
C10   C13   A    
O6    Zn2   S    
