data_mof_unit_47602.cif
_audit_creation_date              2012-10-26T19:25:58-0400
_audit_creation_method            fapswitch 2.2
_symmetry_space_group_name_H-M    P1
_symmetry_Int_Tables_number       1
_space_group_crystal_system       triclinic
_cell_length_a                    14.990517
_cell_length_b                    13.920181
_cell_length_c                    11.805622
_cell_angle_alpha                 90.00017
_cell_angle_beta                  83.462378
_cell_angle_gamma                 90.0
_cell_volume                      2447.46822595

loop_
_atom_site_label
_atom_site_type_symbol
_atom_type_description
_atom_site_fract_x
_atom_site_fract_y
_atom_site_fract_z
_atom_type_partial_charge
C1    C     C_R   0.329031 0.499960 0.504038 0.533126
C2    C     C_R   0.520007 0.203248 0.399469 0.370391
C3    C     C_R   0.519796 0.796780 0.399433 0.363516
C4    C     C_R   0.479993 0.203248 0.600531 0.370392
C5    C     C_R   0.500505 0.897523 0.398118 0.021048
C6    C     C_R   0.499378 0.102543 0.601882 0.022434
C7    C     C_R   0.499495 0.897523 0.601882 0.021048
C8    C     C_R   0.500622 0.102543 0.398118 0.022434
C9    C     C_R   0.500000 0.948861 0.500000 -0.072575
C10   C     C_R   0.500000 0.051193 0.500000 -0.073775
C11   C     C_R   0.485315 0.949038 0.298350 0.133080
C12   C     C_R   0.670969 0.499960 0.495962 0.533127
C13   C     C_R   0.514569 0.051105 0.701663 0.135352
C14   C     C_R   0.514684 0.949039 0.701650 0.133080
C15   C     C_R   0.485431 0.051104 0.298337 0.135352
C16   C     C_R   0.500451 0.500001 0.284045 0.532119
C17   C     C_R   0.499549 0.500001 0.715955 0.532116
C18   C     C_1   0.500200 0.499998 0.162215 0.067461
C19   C     C_1   0.499800 0.499999 0.837785 0.067461
C20   C     C_1   0.500058 0.499990 0.059936 0.051157
C21   C     C_1   0.499942 0.499991 0.940064 0.051158
C22   C     C_R   0.822901 0.501415 0.396258 -0.060247
C23   C     C_R   0.916163 0.500974 0.395883 -0.019082
C24   C     C_R   0.177099 0.501415 0.603742 -0.060249
C25   C     C_R   0.767129 0.499360 0.498524 0.018198
C26   C     C_R   0.232871 0.499360 0.501476 0.018200
C27   C     C_R   0.802293 0.495836 0.603201 0.111603
C28   C     C_R   0.197707 0.495834 0.396800 0.111601
C29   C     C_R   0.896127 0.488258 0.604922 0.032398
C30   C     C_R   0.103873 0.488257 0.395079 0.032403
C31   C     C_R   0.952974 0.493050 0.500200 -0.055293
C32   C     C_R   0.047026 0.493050 0.499801 -0.055292
C33   C     C_R   0.083837 0.500974 0.604118 -0.019096
C34   C     C_R   0.935630 0.481303 0.707664 0.252635
C35   C     C_R   0.064370 0.481302 0.292337 0.252580
C36   C     C_R   0.026452 0.505861 0.706732 0.182021
C37   C     C_R   0.973548 0.505861 0.293269 0.181988
C38   C     C_R   0.480204 0.796780 0.600567 0.363515
Cu1   Cu    Cu3+1 0.500000 0.597420 0.500000 1.126422
Cu2   Cu    Cu3+1 0.500000 0.402580 0.500000 1.143382
H1    H     H_    0.792639 0.501449 0.317219 0.166078
H2    H     H_    0.050408 0.666319 0.155624 0.347527
H3    H     H_    0.315831 0.635574 0.760485 0.369773
H4    H     H_    0.696247 0.353471 0.239211 0.357896
H5    H     H_    0.684175 0.635579 0.239512 0.369776
H6    H     H_    0.303750 0.353470 0.760787 0.357897
H7    H     H_    0.507537 0.916964 0.129530 0.267548
H8    H     H_    0.397718 0.916842 0.184715 0.236977
H9    H     H_    0.601924 0.083620 0.815498 0.241424
H10   H     H_    0.492052 0.083193 0.870461 0.266868
H11   H     H_    0.492460 0.916965 0.870470 0.267549
H12   H     H_    0.207362 0.501449 0.682781 0.166082
H13   H     H_    0.602280 0.916844 0.815287 0.236976
H14   H     H_    0.507945 0.083191 0.129539 0.266866
H15   H     H_    0.398073 0.083619 0.184505 0.241424
H16   H     H_    0.710282 0.574760 0.702974 0.243443
H17   H     H_    0.695105 0.453949 0.712955 0.253960
H18   H     H_    0.289719 0.574756 0.297025 0.243438
H19   H     H_    0.304894 0.453945 0.287046 0.253965
H20   H     H_    0.768504 0.457744 0.953977 0.372132
H21   H     H_    0.231495 0.457741 0.046025 0.372141
H22   H     H_    0.949653 0.666386 0.844427 0.347567
N1    N     N_R   0.500000 0.743810 0.500000 -0.278677
N2    N     N_R   0.500000 0.256190 0.500000 -0.276617
N3    N     N_3   0.743117 0.508735 0.706498 -0.539367
N4    N     N_3   0.256883 0.508731 0.293502 -0.539378
N5    N     N_3   0.462641 0.897742 0.200179 -0.539087
N6    N     N_3   0.536985 0.102515 0.799890 -0.533531
N7    N     N_3   0.537358 0.897743 0.799822 -0.539086
N8    N     N_3   0.463014 0.102514 0.200111 -0.533530
O1    O     O_R   0.370260 0.582280 0.500020 -0.464300
O2    O     O_2   0.947770 0.378578 0.899659 -0.131112
O3    O     O_3   0.813859 0.498324 0.908952 -0.432103
O4    O     O_2   0.175897 0.340616 0.210056 -0.267663
O5    O     O_2   0.052227 0.378578 0.100342 -0.131107
O6    O     O_3   0.186139 0.498321 0.091048 -0.432142
O7    O     O_2   0.100489 0.494579 0.900458 -0.147305
O8    O     O_2   0.128860 0.642353 0.790214 -0.269392
O9    O     O_3   0.970301 0.618839 0.898172 -0.345374
O10   O     O_2   0.899512 0.494589 0.099543 -0.147301
O11   O     O_2   0.871143 0.642359 0.209795 -0.269352
O12   O     O_R   0.629740 0.417720 0.499980 -0.456173
O13   O     O_3   0.029701 0.618848 0.101834 -0.345361
O14   O     O_2   0.459189 0.719579 0.812101 -0.270225
O15   O     O_2   0.348415 0.837545 0.767664 -0.228570
O16   O     O_3   0.335601 0.668226 0.687367 -0.474826
O17   O     O_2   0.651953 0.162041 0.232988 -0.242296
O18   O     O_2   0.542000 0.280727 0.187910 -0.263678
O19   O     O_3   0.665265 0.331364 0.313227 -0.496811
O20   O     O_2   0.540811 0.719578 0.187898 -0.270224
O21   O     O_2   0.651585 0.837544 0.232337 -0.228571
O22   O     O_3   0.664398 0.668225 0.312633 -0.474830
O23   O     O_R   0.629740 0.582280 0.499980 -0.464298
O24   O     O_2   0.348045 0.162042 0.767010 -0.242298
O25   O     O_2   0.457998 0.280728 0.812090 -0.263677
O26   O     O_3   0.334734 0.331364 0.686772 -0.496813
O27   O     O_R   0.370260 0.417720 0.500020 -0.456173
O28   O     O_R   0.500010 0.582270 0.337200 -0.458045
O29   O     O_R   0.499990 0.417730 0.662800 -0.449924
O30   O     O_R   0.499990 0.582270 0.662800 -0.458049
O31   O     O_R   0.500010 0.417730 0.337200 -0.449925
O32   O     O_2   0.824101 0.340619 0.789942 -0.267676
S1    S     S_3+6 0.880374 0.420909 0.829038 0.124009
S2    S     S_3+6 0.119624 0.420907 0.170962 0.123986
S3    S     S_3+6 0.060373 0.566149 0.826158 0.113936
S4    S     S_3+6 0.939628 0.566156 0.173846 0.113947
S5    S     S_3+6 0.405686 0.754994 0.720207 0.090929
S6    S     S_3+6 0.594952 0.244919 0.280121 0.081316
S7    S     S_3+6 0.594314 0.754994 0.279793 0.090929
S8    S     S_3+6 0.405047 0.244920 0.719878 0.081315

loop_
_geom_bond_atom_site_label_1
_geom_bond_atom_site_label_2
_ccdc_geom_bond_type
O6    S2    S    
C24   H12   S    
H9    N6    S    
C27   C29   A    
O16   S5    S    
H13   N7    S    
O14   S5    D    
Cu2   O29   S    
C1    O1    A    
C30   C35   A    
O8    S3    D    
C35   C37   A    
C24   C26   A    
C5    C11   A    
H19   N4    S    
O18   S6    D    
O22   S7    S    
C22   H1    S    
H16   N3    S    
O10   S4    D    
H20   O3    S    
C33   C36   A    
O9    S3    S    
C2    S6    S    
C38   S5    S    
H5    O22   S    
Cu1   O23   S    
Cu2   O31   S    
C11   C15   A    
H18   N4    S    
C7    C14   A    
O17   S6    D    
C11   N5    S    
C22   C25   A    
C9    C10   A    
C34   C36   A    
C13   C14   A    
H7    N5    S    
C2    N2    A    
H21   O6    S    
Cu2   O12   S    
H22   O9    S    
C4    C6    A    
C35   S2    S    
C1    O27   A    
Cu2   O27   S    
Cu1   O28   S    
C23   C37   A    
O26   S8    S    
C29   C34   A    
O24   S8    D    
C23   C31   A    
C28   N4    S    
C5    C9    A    
C27   N3    S    
C31   C32   A    
H14   N8    S    
C12   O12   A    
C17   O29   A    
C16   C18   S    
C8    C15   A    
O5    S2    D    
C14   N7    S    
C12   O23   A    
Cu1   Cu2   S    
O4    S2    D    
C38   N1    A    
C7    C9    A    
C15   N8    S    
C4    S8    S    
O11   S4    D    
C19   C21   T    
C36   S3    S    
H3    O16   S    
C2    C8    A    
H2    O13   S    
C24   C33   A    
H17   N3    S    
C3    C5    A    
O25   S8    D    
C6    C10   A    
O2    S1    D    
C3    N1    A    
C25   C27   A    
Cu1   N1    S    
C4    N2    A    
C26   C28   A    
C34   S1    S    
Cu2   N2    S    
O13   S4    S    
C12   C25   S    
C32   C33   A    
O21   S7    D    
C28   C30   A    
C37   S4    S    
C29   C31   A    
C6    C13   A    
C30   C32   A    
C16   O28   A    
Cu1   O30   S    
C1    C26   S    
C3    S7    S    
O19   S6    S    
O7    S3    D    
C17   C19   S    
C7    C38   A    
C18   C20   T    
H8    N5    S    
O32   S1    D    
C17   O30   A    
H15   N8    S    
C16   O31   A    
O3    S1    S    
H6    O26   S    
C20   C21   S    
C8    C10   A    
Cu1   O1    S    
C22   C23   A    
H11   N7    S    
O20   S7    D    
O15   S5    D    
H10   N6    S    
H4    O19   S    
C13   N6    S    
