data_mof_unit_7123.cif
_audit_creation_date              2012-12-11T16:52:12-0500
_audit_creation_method            fapswitch 2.2
_symmetry_space_group_name_H-M    P1
_symmetry_Int_Tables_number       1
_space_group_crystal_system       triclinic
_cell_length_a                    7.20453
_cell_length_b                    25.940017
_cell_length_c                    28.933688
_cell_angle_alpha                 89.994404
_cell_angle_beta                  90.017756
_cell_angle_gamma                 89.761904
_cell_volume                      5407.24355527

loop_
_atom_site_label
_atom_site_type_symbol
_atom_type_description
_atom_site_fract_x
_atom_site_fract_y
_atom_site_fract_z
_atom_type_partial_charge
O1    O     O_R   0.601030 0.796770 0.202460 -0.516181
O2    O     O_R   0.398970 0.203230 0.797540 -0.515516
O3    O     O_R   0.398970 0.203230 0.702460 -0.515567
O4    O     O_R   0.601030 0.796770 0.297540 -0.515555
O5    O     O_R   0.101030 0.703230 0.297540 -0.510350
O6    O     O_R   0.898970 0.296770 0.702460 -0.520418
O7    O     O_R   0.898970 0.296770 0.797540 -0.516667
O8    O     O_R   0.101030 0.703230 0.202460 -0.524055
O9    O     O_R   0.271290 0.802910 0.297210 -0.552938
O10   O     O_R   0.728710 0.197090 0.702790 -0.554234
O11   O     O_R   0.728710 0.197090 0.797210 -0.553841
O12   O     O_R   0.271290 0.802910 0.202790 -0.554492
O13   O     O_R   0.771290 0.697090 0.202790 -0.539512
O14   O     O_R   0.228710 0.302910 0.797210 -0.540656
O15   O     O_R   0.228710 0.302910 0.702790 -0.539903
O16   O     O_R   0.771290 0.697090 0.297210 -0.537037
C1    C     C_R   0.439922 0.814620 0.313135 0.717781
C2    C     C_R   0.560077 0.185374 0.686869 0.709061
C3    C     C_R   0.560114 0.185377 0.813134 0.711694
C4    C     C_R   0.439882 0.814604 0.186853 0.707329
C5    C     C_R   0.940849 0.684599 0.187317 0.705427
C6    C     C_R   0.059003 0.315906 0.812216 0.720675
C7    C     C_R   0.059044 0.315907 0.687808 0.718596
C8    C     C_R   0.940512 0.684557 0.312536 0.712493
O17   O     O_3   0.434520 0.717290 0.250000 -0.358334
O18   O     O_3   0.565480 0.282710 0.750000 -0.360249
O19   O     O_3   0.934520 0.782710 0.250000 -0.384409
O20   O     O_3   0.065480 0.217290 0.750000 -0.383778
V1    V     V_3+5 0.159680 0.756060 0.250000 1.404221
V2    V     V_3+5 0.840320 0.243940 0.750000 1.403474
V3    V     V_3+5 0.659680 0.743940 0.250000 1.444455
V4    V     V_3+5 0.340320 0.256060 0.750000 1.435861
C9    C     C_R   0.879698 0.384062 0.642011 0.275140
C10   C     C_R   0.115598 0.617316 0.360158 0.276459
C11   C     C_R   0.120203 0.619370 0.137748 0.281094
C12   C     C_R   0.876783 0.382426 0.859190 0.279219
C13   C     C_R   0.409832 0.151824 0.886544 0.275866
C14   C     C_R   0.590100 0.848059 0.113403 0.275510
C15   C     C_R   0.590296 0.848134 0.386570 0.277249
C16   C     C_R   0.409651 0.151813 0.613457 0.276138
C17   C     C_R   0.873647 0.420019 0.605582 -0.204890
C18   C     C_R   0.121560 0.583126 0.397746 -0.228831
C19   C     C_R   0.123326 0.585015 0.100031 -0.190479
C20   C     C_R   0.868755 0.417585 0.896176 -0.201030
C21   C     C_R   0.403292 0.115640 0.922735 -0.215923
C22   C     C_R   0.596688 0.884220 0.077193 -0.215779
C23   C     C_R   0.596868 0.884299 0.422774 -0.218364
C24   C     C_R   0.403088 0.115637 0.577263 -0.218385
H1    H     H_    0.746412 0.440847 0.598530 0.135916
H2    H     H_    0.247045 0.560965 0.403916 0.134888
H3    H     H_    0.251167 0.565960 0.090299 0.123619
H4    H     H_    0.738326 0.436013 0.904877 0.122403
H5    H     H_    0.295976 0.119217 0.948784 0.124338
H6    H     H_    0.703965 0.880607 0.051138 0.124487
H7    H     H_    0.704203 0.880705 0.448833 0.123092
H8    H     H_    0.295720 0.119212 0.551210 0.123058
C25   C     C_R   0.029165 0.429300 0.577765 0.107726
C26   C     C_R   0.967324 0.576164 0.426484 0.118959
C27   C     C_R   0.964584 0.575686 0.073511 0.104164
C28   C     C_R   0.025576 0.428203 0.923054 0.107051
C29   C     C_R   0.530719 0.074662 0.925107 0.109252
C30   C     C_R   0.469364 0.925224 0.074812 0.109179
C31   C     C_R   0.469444 0.925278 0.425146 0.109363
C32   C     C_R   0.530567 0.074672 0.574891 0.109328
C33   C     C_R   0.193026 0.401484 0.586449 -0.094272
C34   C     C_R   0.805334 0.604759 0.417527 -0.090999
C35   C     C_R   0.800397 0.602240 0.084263 -0.093438
C36   C     C_R   0.192702 0.402681 0.912897 -0.087812
C37   C     C_R   0.670247 0.071307 0.891289 -0.075121
C38   C     C_R   0.329848 0.928615 0.108632 -0.075311
C39   C     C_R   0.329881 0.928647 0.391314 -0.075392
C40   C     C_R   0.670151 0.071322 0.608719 -0.076166
H9    H     H_    0.314043 0.406791 0.564804 0.139847
H10   H     H_    0.685340 0.601099 0.439803 0.136506
H11   H     H_    0.675272 0.595652 0.064409 0.144004
H12   H     H_    0.316544 0.410473 0.932898 0.142284
H13   H     H_    0.773142 0.040808 0.892815 0.148892
H14   H     H_    0.227008 0.959129 0.107095 0.148894
H15   H     H_    0.226971 0.959142 0.392841 0.148650
H16   H     H_    0.773091 0.040835 0.607194 0.148786
C41   C     C_R   0.201140 0.365319 0.622294 -0.247800
C42   C     C_R   0.797795 0.639286 0.380332 -0.253404
C43   C     C_R   0.795527 0.637426 0.120923 -0.240946
C44   C     C_R   0.201660 0.366596 0.877000 -0.242079
C45   C     C_R   0.679698 0.107506 0.855384 -0.260453
C46   C     C_R   0.320350 0.892443 0.144555 -0.260314
C47   C     C_R   0.320405 0.892471 0.355397 -0.261236
C48   C     C_R   0.679617 0.107510 0.644627 -0.260332
H17   H     H_    0.328407 0.343767 0.627163 0.140554
H18   H     H_    0.672314 0.661652 0.375220 0.142861
H19   H     H_    0.667833 0.658217 0.127322 0.149637
H20   H     H_    0.330736 0.346351 0.871288 0.143928
H21   H     H_    0.788233 0.103552 0.829722 0.138500
H22   H     H_    0.211836 0.896428 0.170218 0.138436
H23   H     H_    0.211838 0.896439 0.329728 0.138374
H24   H     H_    0.788205 0.103559 0.670292 0.138739
C49   C     C_R   0.045959 0.355767 0.650516 -0.100313
C50   C     C_R   0.951565 0.646133 0.350956 -0.079131
C51   C     C_R   0.953116 0.646396 0.148536 -0.109396
C52   C     C_R   0.045309 0.355681 0.849614 -0.102785
C53   C     C_R   0.549310 0.147856 0.852121 -0.077848
C54   C     C_R   0.450683 0.852082 0.147837 -0.076689
C55   C     C_R   0.450797 0.852124 0.352132 -0.079856
C56   C     C_R   0.549197 0.147851 0.647886 -0.078033
C57   C     C_R   0.154696 0.504431 0.531618 0.368029
C58   C     C_R   0.839828 0.501990 0.473280 0.369011
C59   C     C_R   0.910154 0.550511 0.990142 0.376789
C60   C     C_R   0.074511 0.453052 0.006543 0.376261
C61   C     C_R   0.519386 0.982518 0.953948 0.377087
C62   C     C_R   0.480823 0.017363 0.045969 0.377024
C63   C     C_R   0.480626 0.017412 0.454010 0.376911
C64   C     C_R   0.519436 0.982536 0.546028 0.377010
C65   C     C_R   0.134851 0.539905 0.495004 -0.320471
C66   C     C_R   0.859984 0.466388 0.509765 -0.321813
C67   C     C_R   0.929085 0.514200 0.954147 -0.329609
C68   C     C_R   0.055325 0.489300 0.042519 -0.330412
C69   C     C_R   0.502910 0.947147 0.990810 -0.327617
C70   C     C_R   0.497290 0.052734 0.009108 -0.327729
C71   C     C_R   0.497026 0.052771 0.490881 -0.329314
C72   C     C_R   0.503030 0.947177 0.509157 -0.329122
H25   H     H_    0.240966 0.568755 0.489550 0.131287
H26   H     H_    0.754297 0.437364 0.514953 0.129319
H27   H     H_    0.881563 0.524027 0.919706 0.129904
H28   H     H_    0.102854 0.479416 0.076948 0.129659
H29   H     H_    0.503003 0.906167 0.983572 0.130759
H30   H     H_    0.497188 0.093714 0.016345 0.130589
H31   H     H_    0.496782 0.093755 0.483652 0.128240
H32   H     H_    0.503270 0.906193 0.516387 0.128527
C73   C     C_R   0.978784 0.539130 0.465784 0.029842
C74   C     C_R   0.016125 0.467102 0.539003 0.031095
C75   C     C_R   0.011735 0.465744 0.961845 0.029927
C76   C     C_R   0.973913 0.537909 0.034789 0.029755
C77   C     C_R   0.482920 0.963974 0.036746 0.029353
C78   C     C_R   0.517258 0.035907 0.963172 0.029340
C79   C     C_R   0.517123 0.035930 0.536816 0.030176
C80   C     C_R   0.482925 0.964018 0.463222 0.030061
N1    N     N_2   0.716664 0.374308 0.668465 -0.493913
H33   H     H_    0.636837 0.345005 0.655094 0.250596
C81   C     C_3   0.609778 0.418214 0.684358 -0.517923
H34   H     H_    0.533036 0.436384 0.655311 0.197032
H35   H     H_    0.701921 0.446866 0.701194 0.199634
H36   H     H_    0.505719 0.404998 0.709924 0.197921
N2    N     N_2   0.275964 0.621942 0.331911 -0.501838
H37   H     H_    0.398575 0.617612 0.349912 0.247176
C82   C     C_3   0.272316 0.589977 0.291079 -0.474288
H38   H     H_    0.261559 0.548629 0.300788 0.175213
H39   H     H_    0.403104 0.595564 0.271689 0.196961
H40   H     H_    0.153785 0.600824 0.268458 0.197613
N3    N     N_2   0.286268 0.628811 0.163186 -0.497180
H41   H     H_    0.356135 0.661121 0.152108 0.257377
C83   C     C_3   0.406252 0.585348 0.173489 -0.573524
H42   H     H_    0.475985 0.570956 0.141859 0.187114
H43   H     H_    0.325480 0.553836 0.189816 0.202626
H44   H     H_    0.517039 0.597809 0.197602 0.201868
N4    N     N_2   0.713024 0.371618 0.833491 -0.488704
H45   H     H_    0.631977 0.343726 0.848629 0.249303
C84   C     C_3   0.609312 0.415125 0.815570 -0.528178
H46   H     H_    0.539874 0.436613 0.843909 0.176058
H47   H     H_    0.499733 0.400886 0.791922 0.200599
H48   H     H_    0.702508 0.441237 0.795996 0.200106
N5    N     N_2   0.281490 0.193636 0.886412 -0.530289
H49   H     H_    0.280696 0.213738 0.917172 0.247035
C85   C     C_3   0.095859 0.179841 0.872040 -0.460381
H50   H     H_    0.031473 0.153496 0.897676 0.171127
H51   H     H_    0.098889 0.160776 0.837668 0.209820
H52   H     H_    0.009155 0.215198 0.869389 0.182886
N6    N     N_2   0.718302 0.806212 0.113543 -0.530700
H53   H     H_    0.718842 0.786059 0.082810 0.247363
C86   C     C_3   0.904067 0.819976 0.127833 -0.460069
H54   H     H_    0.968351 0.846305 0.102168 0.171161
H55   H     H_    0.990716 0.784606 0.130450 0.182735
H56   H     H_    0.901309 0.839045 0.162204 0.209683
N7    N     N_2   0.718613 0.806315 0.386441 -0.530504
H57   H     H_    0.719372 0.786184 0.417189 0.241484
C87   C     C_3   0.904260 0.820113 0.372112 -0.464194
H58   H     H_    0.968601 0.846465 0.397755 0.170821
H59   H     H_    0.901268 0.839170 0.337732 0.210480
H60   H     H_    0.990984 0.784760 0.369496 0.182673
N8    N     N_2   0.281262 0.193614 0.613587 -0.532089
H61   H     H_    0.280340 0.213714 0.582822 0.240124
C88   C     C_3   0.095698 0.179802 0.627972 -0.464013
H62   H     H_    0.031258 0.153451 0.602344 0.170635
H63   H     H_    0.008965 0.215152 0.630622 0.180201
H64   H     H_    0.098868 0.160738 0.662347 0.211409
O21   O     O_3   0.305178 0.506566 0.561160 -0.656498
H65   H     H_    0.389705 0.534391 0.550910 0.287419
O22   O     O_3   0.689027 0.500026 0.443828 -0.653829
H66   H     H_    0.604135 0.472319 0.454147 0.287632
O23   O     O_3   0.835625 0.598828 0.982078 -0.648105
H67   H     H_    0.798399 0.601408 0.949158 0.288240
O24   O     O_3   0.149181 0.404745 0.014613 -0.647997
H68   H     H_    0.185788 0.402092 0.047571 0.288071
O25   O     O_3   0.532106 0.965747 0.908745 -0.645227
H69   H     H_    0.531240 0.927526 0.908263 0.290959
O26   O     O_3   0.468125 0.034136 0.091172 -0.645334
H70   H     H_    0.469011 0.072358 0.091654 0.290781
O27   O     O_3   0.467806 0.034203 0.408810 -0.645697
H71   H     H_    0.468555 0.072426 0.408337 0.289545
O28   O     O_3   0.532271 0.965746 0.591228 -0.645550
H72   H     H_    0.531531 0.927524 0.591702 0.289720

loop_
_geom_bond_atom_site_label_1
_geom_bond_atom_site_label_2
_ccdc_geom_bond_type
O17   V3    S    
C58   C73   A    
C48   H24   S    
O18   V4    S    
C84   H46   S    
O12   V1    S    
N4    C84   S    
C86   H55   S    
C86   H54   S    
C37   H13   S    
C85   H50   S    
C10   C18   A    
C15   N7    S    
C69   C77   A    
C62   C70   A    
C39   H15   S    
N5    H49   S    
C61   C69   A    
O15   V4    S    
N6    C86   S    
C67   C75   A    
N7    H57   S    
O16   V3    S    
C35   C43   A    
C11   N3    S    
N1    C81   S    
O11   C3    A    
N5    C85   S    
C65   C73   A    
O12   C4    A    
C58   C66   A    
C8    C50   S    
O8    V1    S    
C30   C77   S    
C57   C65   A    
C85   H51   S    
C20   C28   A    
C58   O22   S    
N3    C83   S    
C23   C31   A    
C5    C51   S    
C81   H36   S    
C63   C80   A    
C24   C32   A    
C38   H14   S    
C26   C73   S    
N2    H37   S    
C34   H10   S    
N2    C82   S    
O1    V3    S    
C40   H16   S    
C33   H9    S    
O19   V1    S    
C30   C38   A    
O3    C2    A    
O2    V4    S    
C83   H44   S    
C57   O21   S    
C16   C24   A    
C60   C75   A    
C46   H22   S    
C27   C35   A    
C19   H3    S    
C45   H21   S    
C26   C34   A    
O11   V2    S    
C9    N1    S    
C47   H23   S    
C83   H42   S    
C60   O24   S    
C61   O25   S    
C11   C19   A    
C64   O28   S    
C70   C78   A    
C19   C27   A    
C41   H17   S    
C20   H4    S    
O15   C7    A    
C61   C78   A    
C32   C79   S    
C21   H5    S    
O28   H72   S    
O16   C8    A    
O7    V2    S    
C43   C51   A    
C83   H43   S    
C66   C74   A    
C18   C26   A    
O3    V4    S    
C11   C51   A    
C28   C75   S    
C17   H1    S    
C40   C48   A    
C29   C78   S    
C82   H38   S    
C87   H60   S    
O5    V1    S    
C88   H63   S    
C14   N6    S    
C27   C76   S    
C10   N2    S    
C6    C52   S    
C82   H39   S    
O24   H68   S    
C44   C52   A    
C25   C74   S    
C85   H52   S    
C67   H27   S    
C87   H59   S    
O14   V4    S    
N6    H53   S    
C64   C72   A    
C88   H62   S    
C15   C23   A    
C71   C79   A    
N8    H61   S    
C72   C80   A    
C36   C44   A    
C16   C56   A    
C16   N8    S    
O10   V2    S    
C33   C41   A    
C87   H58   S    
C68   C76   A    
C22   H6    S    
O8    C5    A    
O13   C5    A    
C12   C52   A    
C2    C56   S    
C81   H35   S    
C44   H20   S    
C59   C67   A    
C31   C39   A    
N7    C87   S    
C18   H2    S    
C47   C55   A    
O4    C1    A    
C63   C71   A    
O9    C1    A    
C7    C49   S    
C22   C30   A    
C84   H48   S    
C86   H56   S    
C39   C47   A    
C12   C20   A    
C35   H11   S    
C64   C79   A    
C13   C21   A    
C38   C46   A    
C62   O26   S    
C82   H40   S    
C37   C45   A    
C13   N5    S    
C23   H7    S    
C88   H64   S    
C29   C37   A    
O23   H67   S    
C24   H8    S    
O1    C4    A    
C68   H28   S    
O6    V2    S    
O2    C3    A    
O13   V3    S    
C25   C33   A    
C59   C76   A    
C59   O23   S    
C81   H34   S    
C72   H32   S    
C15   C55   A    
C57   C74   A    
O9    V1    S    
C36   H12   S    
O7    C6    A    
C43   H19   S    
N1    H33   S    
C42   H18   S    
C9    C17   A    
C31   C80   S    
O14   C6    A    
O20   V2    S    
C1    C55   S    
C17   C25   A    
O22   H66   S    
C14   C54   A    
N3    H41   S    
C63   O27   S    
C13   C53   A    
C3    C53   S    
C4    C54   S    
C60   C68   A    
O21   H65   S    
O5    C8    A    
C41   C49   A    
O10   C2    A    
O6    C7    A    
C21   C29   A    
C10   C50   A    
C9    C49   A    
C32   C40   A    
O27   H71   S    
C42   C50   A    
C14   C22   A    
O4    V3    S    
C45   C53   A    
O26   H70   S    
C66   H26   S    
C65   H25   S    
C28   C36   A    
C84   H47   S    
O25   H69   S    
N4    H45   S    
C62   C77   A    
C70   H30   S    
C69   H29   S    
C48   C56   A    
C34   C42   A    
C12   N4    S    
C71   H31   S    
N8    C88   S    
C46   C54   A    
