data_mof_unit_48473.cif
_audit_creation_date              2012-12-11T14:41:05-0500
_audit_creation_method            fapswitch 2.2
_symmetry_space_group_name_H-M    P1
_symmetry_Int_Tables_number       1
_space_group_crystal_system       triclinic
_cell_length_a                    6.932663
_cell_length_b                    17.92086
_cell_length_c                    19.06263
_cell_angle_alpha                 89.983124
_cell_angle_beta                  89.945417
_cell_angle_gamma                 89.966845
_cell_volume                      2368.3259107

loop_
_atom_site_label
_atom_site_type_symbol
_atom_type_description
_atom_site_fract_x
_atom_site_fract_y
_atom_site_fract_z
_atom_type_partial_charge
O1    O     O_R   0.377350 0.828520 0.186660 -0.548843
O2    O     O_R   0.622650 0.171480 0.813340 -0.557590
O3    O     O_R   0.122650 0.171480 0.686660 -0.547855
O4    O     O_R   0.877350 0.828520 0.313340 -0.556664
O5    O     O_R   0.877350 0.671480 0.313340 -0.548885
O6    O     O_R   0.122650 0.328520 0.686660 -0.546323
O7    O     O_R   0.622650 0.328520 0.813340 -0.549105
O8    O     O_R   0.377350 0.671480 0.186660 -0.556390
O9    O     O_R   0.707090 0.671930 0.178410 -0.535983
O10   O     O_R   0.292910 0.328070 0.821590 -0.526151
O11   O     O_R   0.792910 0.328070 0.678410 -0.525455
O12   O     O_R   0.207090 0.671930 0.321590 -0.524232
O13   O     O_R   0.207090 0.828070 0.321590 -0.535961
O14   O     O_R   0.792910 0.171930 0.678410 -0.527447
O15   O     O_R   0.292910 0.171930 0.821590 -0.537765
O16   O     O_R   0.707090 0.828070 0.178410 -0.525301
C1    C     C_R   0.538701 0.647080 0.160292 0.692940
C2    C     C_R   0.461128 0.353101 0.839550 0.687344
C3    C     C_R   0.961221 0.353456 0.660736 0.683886
C4    C     C_R   0.038748 0.647057 0.339632 0.682371
C5    C     C_R   0.038460 0.852752 0.339819 0.692645
C6    C     C_R   0.961347 0.146571 0.660700 0.676413
C7    C     C_R   0.461356 0.147064 0.839683 0.688414
C8    C     C_R   0.538814 0.853111 0.160467 0.683606
O17   O     O_3   0.543850 0.750000 0.294270 -0.370786
O18   O     O_3   0.456150 0.250000 0.705730 -0.362110
O19   O     O_3   0.956150 0.250000 0.794270 -0.374893
O20   O     O_3   0.043850 0.750000 0.205730 -0.371258
V1    V     V_3+5 0.818700 0.750000 0.241790 1.440743
V2    V     V_3+5 0.181300 0.250000 0.758210 1.454948
V3    V     V_3+5 0.681300 0.250000 0.741790 1.466322
V4    V     V_3+5 0.318700 0.750000 0.258210 1.442220
C9    C     C_R   0.962821 0.414672 0.607437 -0.139236
C10   C     C_R   0.037339 0.586774 0.393612 -0.133573
C11   C     C_R   0.536843 0.586333 0.106730 -0.124846
C12   C     C_R   0.462438 0.413772 0.893263 -0.140567
C13   C     C_R   0.463340 0.086293 0.893213 -0.124052
C14   C     C_R   0.537398 0.913805 0.106782 -0.138103
C15   C     C_R   0.036305 0.913220 0.393570 -0.124532
C16   C     C_R   0.963213 0.085274 0.607475 -0.141764
C17   C     C_R   0.207971 0.480194 0.442633 -0.106841
C18   C     C_R   0.792454 0.521866 0.558949 -0.093651
C19   C     C_R   0.290090 0.519828 0.942850 -0.099516
C20   C     C_R   0.707721 0.479311 0.058057 -0.140289
C21   C     C_R   0.709519 0.019895 0.057279 -0.101218
C22   C     C_R   0.292737 0.979223 0.941791 -0.137381
C23   C     C_R   0.789142 0.979832 0.557629 -0.095357
C24   C     C_R   0.209496 0.018928 0.443104 -0.148214
C25   C     C_R   0.188305 0.534876 0.391543 -0.107346
C26   C     C_R   0.811275 0.466400 0.609531 -0.102430
C27   C     C_R   0.308388 0.464420 0.892360 -0.102616
C28   C     C_R   0.685437 0.533381 0.109760 -0.188020
C29   C     C_R   0.691232 0.964477 0.107770 -0.107712
C30   C     C_R   0.315077 0.033282 0.890071 -0.184606
C31   C     C_R   0.808001 0.035208 0.608165 -0.103206
C32   C     C_R   0.186226 0.965528 0.390992 -0.184781
C33   C     C_R   0.897782 0.581543 0.447940 -0.083926
C34   C     C_R   0.104042 0.421320 0.553843 -0.076261
C35   C     C_R   0.603914 0.420000 0.946782 -0.082384
C36   C     C_R   0.404809 0.583681 0.049905 -0.054107
C37   C     C_R   0.396139 0.919999 0.053187 -0.082871
C38   C     C_R   0.595036 0.083710 0.950134 -0.053022
C39   C     C_R   0.106607 0.077652 0.554667 -0.074764
C40   C     C_R   0.903278 0.916086 0.450214 -0.054663
C41   C     C_R   0.920983 0.526547 0.501900 0.099329
C42   C     C_R   0.079933 0.476051 0.499827 0.100207
C43   C     C_R   0.582204 0.475768 0.000127 0.112751
C44   C     C_R   0.425670 0.527302 0.997254 0.104313
C45   C     C_R   0.417906 0.975750 0.999824 0.111008
C46   C     C_R   0.574179 0.027327 0.002786 0.105409
C47   C     C_R   0.083483 0.022509 0.500966 0.110205
C48   C     C_R   0.925131 0.971925 0.503295 0.102120
H1    H     H_    0.705052 0.464047 0.651234 0.141031
H2    H     H_    0.293587 0.536534 0.349491 0.134292
H3    H     H_    0.787472 0.534066 0.152809 0.128086
H4    H     H_    0.198528 0.460822 0.852083 0.142575
H5    H     H_    0.213316 0.033931 0.846934 0.130394
H6    H     H_    0.800931 0.960887 0.148112 0.140342
H7    H     H_    0.288762 0.964794 0.348027 0.127932
H8    H     H_    0.697394 0.039359 0.648201 0.145610
C49   C     C_2   0.271682 0.369900 0.554022 0.370123
H9    H     H_    0.249849 0.311113 0.563201 0.036407
O21   O     O_2   0.435831 0.393327 0.547085 -0.531165
C50   C     C_2   0.734207 0.635093 0.448535 0.398648
H10   H     H_    0.760231 0.693711 0.438388 0.088420
O22   O     O_2   0.568539 0.613751 0.456665 -0.527087
C51   C     C_2   0.252605 0.641668 0.044106 0.305525
H11   H     H_    0.157342 0.653085 0.087901 0.087277
O23   O     O_2   0.234981 0.678161 0.990395 -0.528164
C52   C     C_2   0.766921 0.366171 0.947747 0.389277
H12   H     H_    0.740552 0.307544 0.937786 0.089730
O24   O     O_2   0.932596 0.387232 0.956303 -0.537960
C53   C     C_2   0.746817 0.141782 0.956034 0.301801
H13   H     H_    0.842199 0.153292 0.912298 0.087586
O25   O     O_2   0.763934 0.178247 0.009758 -0.531626
C54   C     C_2   0.233305 0.866165 0.052168 0.393171
H14   H     H_    0.259819 0.807536 0.062171 0.090774
O26   O     O_2   0.067597 0.887227 0.043519 -0.536882
C55   C     C_2   0.748761 0.859009 0.455283 0.306105
H15   H     H_    0.654543 0.848314 0.411106 0.087707
O27   O     O_2   0.727920 0.822466 0.508818 -0.528558
C56   C     C_2   0.274211 0.129050 0.554778 0.361701
H16   H     H_    0.252794 0.187704 0.564787 0.044154
O28   O     O_2   0.438106 0.105799 0.546602 -0.541627
H17   H     H_    0.325461 0.441221 0.436103 0.162349
H18   H     H_    0.674578 0.560629 0.565517 0.174184
H19   H     H_    0.164189 0.555238 0.939546 0.169846
H20   H     H_    0.823469 0.439720 0.065222 0.171827
H21   H     H_    0.835245 0.055333 0.060646 0.168516
H22   H     H_    0.177248 0.939587 0.934563 0.173832
H23   H     H_    0.662161 0.945034 0.560690 0.172725
H24   H     H_    0.326258 0.058103 0.436226 0.164778

loop_
_geom_bond_atom_site_label_1
_geom_bond_atom_site_label_2
_ccdc_geom_bond_type
C51   H11   S    
C53   H13   S    
O4    C5    A    
O13   V4    S    
O14   V3    S    
C12   C35   A    
C19   C27   A    
C49   H9    S    
C37   C54   S    
O5    C4    A    
C15   C40   A    
O11   C3    A    
C9    C34   A    
C16   C39   A    
C17   H17   S    
O20   V1    S    
C50   O22   D    
C21   H21   S    
C38   C46   A    
C22   C45   A    
C35   C43   A    
C34   C42   A    
C40   C55   S    
C15   C32   A    
C19   C44   A    
C54   O26   D    
C18   C41   A    
C8    C14   S    
O4    V1    S    
O9    V1    S    
C14   C37   A    
C4    C10   S    
C20   C28   A    
O17   V4    S    
O15   C7    A    
O11   V3    S    
O18   V3    S    
C53   O25   D    
O12   V4    S    
O19   V2    S    
C22   C30   A    
C45   C46   A    
C39   C56   S    
C17   C25   A    
C49   O21   D    
C36   C51   S    
C13   C38   A    
O5    V1    S    
C20   H20   S    
O17   V1    S    
O7    V3    S    
O19   V3    S    
C43   C44   A    
O8    V4    S    
O20   V4    S    
C27   H4    S    
C3    C9    S    
C34   C49   S    
C9    C26   A    
C7    C13   S    
O1    V4    S    
C11   C36   A    
C35   C52   S    
O3    V2    S    
O6    C3    A    
C10   C33   A    
O10   V2    S    
C52   O24   D    
C55   H15   S    
C5    C15   S    
O7    C2    A    
C6    C16   S    
C54   H14   S    
O12   C4    A    
C33   C50   S    
O13   C5    A    
C19   H19   S    
C50   H10   S    
C56   O28   D    
C18   H18   S    
C12   C27   A    
C18   C26   A    
C13   C30   A    
O9    C1    A    
C24   H24   S    
C39   C47   A    
O18   V2    S    
C51   O23   D    
C26   H1    S    
C24   C47   A    
O2    C7    A    
O15   V2    S    
C23   C31   A    
C37   C45   A    
C24   C32   A    
C10   C25   A    
O6    V2    S    
C21   C46   A    
C33   C41   A    
C20   C43   A    
C16   C31   A    
C17   C42   A    
O8    C1    A    
C30   H5    S    
C22   H22   S    
C29   H6    S    
O16   V1    S    
C32   H7    S    
C47   C48   A    
C31   H8    S    
O14   C6    A    
C52   H12   S    
C14   C29   A    
O10   C2    A    
C23   H23   S    
C40   C48   A    
C56   H16   S    
C23   C48   A    
C28   H3    S    
C21   C29   A    
C36   C44   A    
O1    C8    A    
O16   C8    A    
C41   C42   A    
C38   C53   S    
C11   C28   A    
C25   H2    S    
O2    V3    S    
O3    C6    A    
C1    C11   S    
C2    C12   S    
C55   O27   D    
