data_mof_unit_54734.cif
_audit_creation_date              2012-12-11T14:54:34-0500
_audit_creation_method            fapswitch 2.2
_symmetry_space_group_name_H-M    P1
_symmetry_Int_Tables_number       1
_space_group_crystal_system       triclinic
_cell_length_a                    18.801602
_cell_length_b                    11.036448
_cell_length_c                    18.784553
_cell_angle_alpha                 89.60356
_cell_angle_beta                  89.778594
_cell_angle_gamma                 89.926295
_cell_volume                      3897.72377634

loop_
_atom_site_label
_atom_site_type_symbol
_atom_type_description
_atom_site_fract_x
_atom_site_fract_y
_atom_site_fract_z
_atom_type_partial_charge
C1    C     C_R   0.732563 0.385418 0.649157 0.522852
C2    C     C_R   0.326949 0.962579 0.477590 -0.081689
C3    C     C_R   0.029996 0.559896 0.453816 -0.151777
C4    C     C_1   0.449870 0.468278 0.428122 0.298061
C5    C     C_1   0.389069 0.309800 0.589396 0.199710
C6    C     C_1   0.949980 0.968173 0.427957 0.299177
C7    C     C_1   0.889243 0.810025 0.589386 0.199811
C8    C     C_2   0.789193 0.138514 0.386119 0.295771
C9    C     C_2   0.151259 0.100885 0.590442 0.249749
C10   C     C_2   0.288697 0.638634 0.386101 0.296203
C11   C     C_2   0.651327 0.600990 0.590447 0.249630
C12   C     C_2   0.832989 0.148071 0.541412 0.253194
C13   C     C_R   0.193244 0.399465 0.535111 -0.142246
C14   C     C_2   0.132344 0.022416 0.440177 0.335513
C15   C     C_2   0.332773 0.648400 0.541246 0.252605
C16   C     C_2   0.632323 0.522466 0.440239 0.335564
C17   C     C_2   0.536205 0.925824 0.946372 0.307490
C18   C     C_2   0.565888 0.966195 0.097720 0.261194
C19   C     C_2   0.036200 0.425823 0.946371 0.307481
C20   C     C_2   0.065885 0.466193 0.097718 0.261199
C21   C     C_R   0.826939 0.462502 0.477576 -0.082197
C22   C     C_R   0.700579 0.865975 0.464726 -0.151671
C23   C     C_R   0.319960 0.932620 0.549889 -0.125739
C24   C     C_R   0.200782 0.365588 0.464823 -0.151598
C25   C     C_R   0.819954 0.432523 0.549870 -0.126311
C26   C     C_R   0.741932 0.934907 0.418179 -0.053871
C27   C     C_R   0.255336 0.954072 0.584754 -0.033864
C28   C     C_R   0.241942 0.434732 0.418215 -0.053800
C29   C     C_R   0.268067 0.379712 0.352555 0.498642
C30   C     C_R   0.755346 0.454045 0.584750 -0.034035
C31   C     C_R   0.770542 0.045252 0.440886 0.027253
C32   C     C_R   0.203367 0.025600 0.549535 -0.005641
C33   C     C_R   0.270341 0.545242 0.440863 0.027762
C34   C     C_R   0.703396 0.525620 0.549542 -0.005685
C35   C     C_R   0.776254 0.066029 0.514878 0.004871
C36   C     C_R   0.202624 0.024647 0.475417 -0.011044
C37   C     C_R   0.276092 0.566122 0.514836 0.005198
C38   C     C_R   0.702632 0.524668 0.475425 -0.010972
C39   C     C_R   0.733118 0.995623 0.562352 -0.031788
C40   C     C_R   0.232563 0.885424 0.649159 0.522963
C41   C     C_R   0.266611 0.998216 0.438231 -0.005923
C42   C     C_R   0.233121 0.495549 0.562367 -0.031845
C43   C     C_R   0.766600 0.498156 0.438223 -0.006666
C44   C     C_R   0.531623 0.049725 0.976306 0.011624
C45   C     C_R   0.534694 0.061774 0.050311 0.008941
C46   C     C_R   0.031619 0.549724 0.976305 0.011616
C47   C     C_R   0.034691 0.561773 0.050310 0.008938
C48   C     C_R   0.507705 0.168237 0.080669 -0.031260
C49   C     C_R   0.521281 0.155946 0.933170 -0.016562
C50   C     C_R   0.007704 0.668237 0.080668 -0.031249
C51   C     C_R   0.768061 0.879747 0.352546 0.498789
C52   C     C_R   0.021277 0.655946 0.933169 -0.016567
C53   C     C_R   0.496927 0.272098 0.038681 -0.144310
C54   C     C_R   0.506637 0.266982 0.965630 -0.151167
C55   C     C_R   0.996926 0.772098 0.038681 -0.144304
C56   C     C_R   0.006635 0.766982 0.965630 -0.151163
C57   C     C_R   0.536076 0.154445 0.644289 0.553674
C58   C     C_R   0.468101 0.154963 0.353020 0.523554
C59   C     C_R   0.036120 0.654444 0.644266 0.553696
C60   C     C_R   0.968120 0.654958 0.353008 0.523557
C61   C     C_R   0.781971 0.033079 0.973806 -0.123327
C62   C     C_3   0.434580 0.355477 0.467035 -0.132519
C63   C     C_R   0.204595 0.021793 0.027260 -0.145117
C64   C     C_R   0.281978 0.533072 0.973805 -0.123328
C65   C     C_R   0.704589 0.521778 0.027263 -0.145124
C66   C     C_R   0.783765 0.017234 0.046575 -0.139800
C67   C     C_R   0.197388 0.997269 0.956410 -0.132043
C68   C     C_R   0.283771 0.517230 0.046574 -0.139790
C69   C     C_R   0.697382 0.497253 0.956414 -0.132048
C70   C     C_R   0.750695 0.916364 0.076825 0.017407
C71   C     C_R   0.249667 0.930296 0.920425 0.018754
C72   C     C_R   0.250695 0.416368 0.076826 0.017399
C73   C     C_3   0.448500 0.359302 0.546879 -0.135622
C74   C     C_R   0.749665 0.430292 0.920426 0.018748
C75   C     C_R   0.712815 0.835275 0.034145 -0.102563
C76   C     C_R   0.312721 0.898191 0.955238 -0.128857
C77   C     C_R   0.212807 0.335287 0.034147 -0.102588
C78   C     C_R   0.812722 0.398197 0.955237 -0.128863
C79   C     C_R   0.712130 0.849440 0.960981 -0.151872
C80   C     C_R   0.321907 0.929873 0.026432 -0.118633
C81   C     C_R   0.212123 0.349449 0.960983 -0.151872
C82   C     C_R   0.821908 0.429879 0.026431 -0.118635
C83   C     C_R   0.747283 0.947862 0.930620 0.020277
C84   C     C_3   0.934700 0.855479 0.466979 -0.132442
C85   C     C_R   0.266577 0.988844 0.063164 0.012127
C86   C     C_R   0.247284 0.447862 0.930621 0.020279
C87   C     C_R   0.766575 0.488840 0.063165 0.012124
C88   C     C_R   0.727872 0.020499 0.639439 0.551033
C89   C     C_R   0.271982 0.019431 0.360478 0.565494
C90   C     C_R   0.227871 0.520497 0.639439 0.551035
C91   C     C_R   0.771975 0.519402 0.360480 0.565198
C92   C     C_R   0.730250 0.379932 0.851878 0.545617
C93   C     C_R   0.269581 0.379104 0.148030 0.530062
C94   C     C_R   0.230251 0.879932 0.851877 0.545603
C95   C     C_3   0.948670 0.859402 0.546813 -0.135383
C96   C     C_R   0.769581 0.879103 0.148029 0.530009
C97   C     C_R   0.537716 0.154622 0.856789 0.545384
C98   C     C_R   0.470596 0.157784 0.148633 0.521887
C99   C     C_R   0.037714 0.654622 0.856789 0.545394
C100  C     C_R   0.970595 0.657784 0.148633 0.521880
C101  C     C_R   0.740659 0.975218 0.855845 0.557052
C102  C     C_R   0.272309 0.019573 0.138119 0.552864
C103  C     C_R   0.240659 0.475218 0.855845 0.557055
C104  C     C_R   0.772309 0.519572 0.138119 0.552795
C105  C     C_R   0.503119 0.164478 0.421051 0.001592
C106  C     C_R   0.693082 0.899789 0.535029 -0.142386
C107  C     C_R   0.521096 0.159037 0.568853 0.019936
C108  C     C_R   0.003191 0.664461 0.421015 0.001640
C109  C     C_R   0.021212 0.659052 0.568811 0.019873
C110  C     C_R   0.495661 0.269612 0.461572 -0.032787
C111  C     C_R   0.506786 0.268630 0.534268 -0.008704
C112  C     C_R   0.995763 0.769598 0.461526 -0.032920
C113  C     C_R   0.006918 0.768648 0.534215 -0.008622
C114  C     C_R   0.536956 0.056280 0.527313 -0.149472
C115  C     C_R   0.529895 0.059900 0.453858 -0.152074
C116  C     C_R   0.037096 0.556298 0.527274 -0.149333
Cr1   Cr    Cr6+3 0.771950 0.169480 0.750100 1.024678
Cr2   Cr    Cr6+3 0.383410 0.010620 0.249390 1.067972
Cr3   Cr    Cr6+3 0.116590 0.510620 0.750610 1.025666
Cr4   Cr    Cr6+3 0.883410 0.510620 0.249390 1.068180
Cr5   Cr    Cr6+3 0.228050 0.169480 0.249900 1.065981
Cr6   Cr    Cr6+3 0.271950 0.669480 0.750100 1.024558
Cr7   Cr    Cr6+3 0.728050 0.669480 0.249900 1.066190
Cr8   Cr    Cr6+3 0.614930 0.323340 0.749170 1.035074
Cr9   Cr    Cr6+3 0.385070 0.323340 0.250830 1.029535
Cr10  Cr    Cr6+3 0.114930 0.823340 0.749170 1.035208
Cr11  Cr    Cr6+3 0.885070 0.823340 0.250830 1.029585
Cr12  Cr    Cr6+3 0.616590 0.010620 0.750610 1.025614
H1    H     H_    0.552736 0.971299 0.551524 0.166800
H2    H     H_    0.147779 0.023774 0.931575 0.149318
H3    H     H_    0.313342 0.580697 0.078759 0.145391
H4    H     H_    0.647770 0.523749 0.931581 0.149318
H5    H     H_    0.686363 0.758225 0.057357 0.165694
H6    H     H_    0.353191 0.845761 0.928274 0.176913
H7    H     H_    0.186349 0.258246 0.057361 0.165700
H8    H     H_    0.853194 0.345777 0.928271 0.176924
H9    H     H_    0.684606 0.784061 0.928366 0.118460
H10   H     H_    0.370760 0.904942 0.053183 0.187446
H11   H     H_    0.184594 0.284074 0.928370 0.118459
H12   H     H_    0.538238 0.977248 0.424144 0.171964
H13   H     H_    0.870764 0.404958 0.053180 0.187457
H14   H     H_    0.883238 0.813426 0.451819 0.128977
H15   H     H_    0.969064 0.947327 0.566862 0.177196
H16   H     H_    0.383132 0.313441 0.451821 0.128997
H17   H     H_    0.468851 0.447218 0.566986 0.176413
H18   H     H_    0.659698 0.845064 0.569242 0.178808
H19   H     H_    0.377441 0.947232 0.451224 0.183869
H20   H     H_    0.159977 0.344614 0.569365 0.178626
H21   H     H_    0.877432 0.447173 0.451209 0.184276
H22   H     H_    0.676786 0.782955 0.447602 0.212712
H23   H     H_    0.052910 0.471336 0.551489 0.166883
H24   H     H_    0.363851 0.890440 0.577722 0.150940
H25   H     H_    0.177180 0.282380 0.447755 0.212422
H26   H     H_    0.863845 0.390324 0.577691 0.150949
H27   H     H_    0.477450 0.355555 0.061745 0.158412
H28   H     H_    0.499471 0.348719 0.934179 0.146423
H29   H     H_    0.977450 0.855556 0.061745 0.158416
H30   H     H_    0.999469 0.848719 0.934178 0.146431
H31   H     H_    0.787684 0.117658 0.329845 0.122510
H32   H     H_    0.164448 0.129234 0.644025 0.131081
H33   H     H_    0.287926 0.617534 0.329845 0.122988
H34   H     H_    0.038331 0.477242 0.424103 0.172065
H35   H     H_    0.664484 0.629201 0.644063 0.131306
H36   H     H_    0.831514 0.185242 0.593556 0.152991
H37   H     H_    0.105687 0.936399 0.433242 0.103858
H38   H     H_    0.331601 0.685017 0.593545 0.153110
H39   H     H_    0.605359 0.436589 0.433913 0.103518
H40   H     H_    0.580456 0.899430 0.913216 0.136492
H41   H     H_    0.591929 0.993261 0.146582 0.100696
H42   H     H_    0.080450 0.399429 0.913213 0.136493
H43   H     H_    0.091932 0.493259 0.146576 0.100725
H44   H     H_    0.807481 0.112751 0.951456 0.149428
H45   H     H_    0.160074 0.063927 0.054112 0.151439
H46   H     H_    0.307495 0.612738 0.951454 0.149427
H47   H     H_    0.660067 0.563905 0.054117 0.151448
H48   H     H_    0.813329 0.080707 0.078761 0.145394
N1    N     N_1   0.461266 0.556029 0.396039 -0.154095
N2    N     N_1   0.342526 0.270387 0.622697 -0.285103
N3    N     N_1   0.961351 0.055833 0.395778 -0.153503
N4    N     N_1   0.842702 0.770707 0.622730 -0.284782
O1    O     O_R   0.787510 0.042610 0.670410 -0.515172
O2    O     O_R   0.454250 0.051070 0.169440 -0.511683
O3    O     O_R   0.045750 0.551070 0.830560 -0.531556
O4    O     O_R   0.954250 0.551070 0.169440 -0.511667
O5    O     O_R   0.681210 0.959150 0.825320 -0.517890
O6    O     O_R   0.318790 0.959150 0.174680 -0.490377
O7    O     O_R   0.181210 0.459150 0.825320 -0.517884
O8    O     O_R   0.818790 0.459150 0.174680 -0.490400
O9    O     O_3   0.667820 0.167810 0.749960 -0.275990
O10   O     O_3   0.332180 0.167810 0.250040 -0.303504
O11   O     O_3   0.167820 0.667810 0.749960 -0.276002
O12   O     O_R   0.212490 0.042610 0.329590 -0.481530
O13   O     O_3   0.832180 0.667810 0.250040 -0.303472
O14   O     O_R   0.765670 0.292090 0.675090 -0.539121
O15   O     O_R   0.234330 0.292090 0.324910 -0.497860
O16   O     O_R   0.265670 0.792090 0.675090 -0.539056
O17   O     O_R   0.734330 0.792090 0.324910 -0.497692
O18   O     O_R   0.670220 0.409020 0.668560 -0.518576
O19   O     O_R   0.329780 0.409020 0.331440 -0.533672
O20   O     O_R   0.170220 0.909020 0.668560 -0.518507
O21   O     O_R   0.829780 0.909020 0.331440 -0.533538
O22   O     O_R   0.556580 0.251590 0.674980 -0.487425
O23   O     O_R   0.287510 0.542610 0.670410 -0.515374
O24   O     O_R   0.443420 0.251590 0.325020 -0.502708
O25   O     O_R   0.056580 0.751590 0.674980 -0.487381
O26   O     O_R   0.943420 0.751590 0.325020 -0.502862
O27   O     O_R   0.545890 0.049670 0.670030 -0.525491
O28   O     O_R   0.454110 0.049670 0.329970 -0.524791
O29   O     O_R   0.045890 0.549670 0.670030 -0.525418
O30   O     O_R   0.954110 0.549670 0.329970 -0.524598
O31   O     O_R   0.681340 0.957860 0.676500 -0.492948
O32   O     O_R   0.318660 0.957860 0.323500 -0.446893
O33   O     O_R   0.181340 0.457860 0.676500 -0.492976
O34   O     O_R   0.712490 0.542610 0.329590 -0.481029
O35   O     O_R   0.818660 0.457860 0.323500 -0.447071
O36   O     O_R   0.787380 0.044010 0.830940 -0.508720
O37   O     O_R   0.212620 0.044010 0.169060 -0.507341
O38   O     O_R   0.287380 0.544010 0.830940 -0.508738
O39   O     O_R   0.712620 0.544010 0.169060 -0.507379
O40   O     O_R   0.765540 0.293390 0.823910 -0.506066
O41   O     O_R   0.234460 0.293390 0.176090 -0.514825
O42   O     O_R   0.265540 0.793390 0.823910 -0.506085
O43   O     O_R   0.734460 0.793390 0.176090 -0.514846
O44   O     O_R   0.670090 0.410410 0.829090 -0.525894
O45   O     O_R   0.556450 0.252890 0.823790 -0.493128
O46   O     O_R   0.329910 0.410410 0.170910 -0.512870
O47   O     O_R   0.170090 0.910410 0.829090 -0.525894
O48   O     O_R   0.829910 0.910410 0.170910 -0.512864
O49   O     O_2   0.801509 0.242650 0.402408 -0.475913
O50   O     O_2   0.094121 0.132315 0.565770 -0.495456
O51   O     O_2   0.299835 0.743161 0.402374 -0.476769
O52   O     O_2   0.594262 0.632682 0.565717 -0.496363
O53   O     O_2   0.885623 0.171270 0.505793 -0.464309
O54   O     O_2   0.104779 0.115121 0.417798 -0.458186
O55   O     O_2   0.385056 0.672463 0.505298 -0.464977
O56   O     O_R   0.443550 0.252890 0.176210 -0.497308
O57   O     O_2   0.604998 0.615041 0.417377 -0.458324
O58   O     O_2   0.489435 0.851994 0.958723 -0.506587
O59   O     O_2   0.560194 0.858299 0.085329 -0.484963
O60   O     O_2   0.989431 0.351992 0.958725 -0.506579
O61   O     O_2   0.060182 0.358297 0.085331 -0.484953
O62   O     O_R   0.056450 0.752890 0.823790 -0.493114
O63   O     O_R   0.943550 0.752890 0.176210 -0.497329
O64   O     O_R   0.545750 0.051070 0.830560 -0.531563

loop_
_geom_bond_atom_site_label_1
_geom_bond_atom_site_label_2
_ccdc_geom_bond_type
C44   C49   A    
C39   C106  A    
C97   O45   A    
C23   H24   S    
C22   H22   S    
Cr9   O24   S    
C95   H15   S    
C11   O52   D    
C4    C62   S    
C6    N3    T    
C68   H3    S    
C41   C89   S    
Cr10  O47   S    
C19   H42   S    
C4    N1    T    
C55   C56   A    
Cr5   O12   S    
C65   C87   A    
C114  C115  A    
Cr2   O6    S    
C19   C46   S    
Cr6   O11   S    
C107  C114  A    
C71   C94   S    
C53   C54   A    
C24   H25   S    
Cr4   O35   S    
C102  O6    A    
C43   C91   S    
C96   O48   A    
C28   C29   S    
C105  C110  A    
Cr3   O11   S    
C91   O34   A    
C3    C116  A    
Cr11  O13   S    
Cr12  O31   S    
C14   C36   S    
C71   C76   A    
Cr1   O1    S    
C45   C48   A    
C67   C71   A    
Cr10  O25   S    
C82   C87   A    
Cr8   O18   S    
Cr1   O40   S    
Cr2   O32   S    
Cr12  O9    S    
C50   C55   A    
C74   C92   S    
C37   C42   A    
C92   O40   A    
C110  C111  A    
C15   C37   S    
C56   H30   S    
Cr1   O14   S    
C51   O17   A    
C102  O37   A    
C21   C43   A    
C74   C78   A    
C93   O46   A    
Cr8   O44   S    
Cr11  O26   S    
C29   O19   A    
C88   O31   A    
C57   O22   A    
Cr10  O62   S    
C91   O35   A    
C15   H38   S    
C73   C111  S    
Cr9   O10   S    
Cr12  O27   S    
C23   C27   A    
C89   O32   A    
Cr6   O38   S    
C49   C54   A    
C99   O3    A    
C81   C86   A    
C109  C116  A    
C109  C113  A    
Cr2   O28   S    
C107  C111  A    
C17   O58   D    
C59   O25   A    
C1    O18   A    
C27   C32   A    
C58   O24   A    
C26   C31   A    
C16   H39   S    
C63   C85   A    
C66   H48   S    
C36   C41   A    
C12   O53   D    
Cr7   O39   S    
C39   C88   S    
C82   H13   S    
C101  O5    A    
C86   C103  S    
C61   C66   A    
C64   C86   A    
C13   C42   A    
C105  C115  A    
C63   H45   S    
C47   C50   A    
Cr2   O2    S    
Cr4   O30   S    
C20   O61   D    
C104  O8    A    
C63   C67   A    
Cr3   O29   S    
C6    C84   S    
C30   C34   A    
C52   C56   A    
Cr12  O5    S    
Cr8   O45   S    
C92   O44   A    
C103  O7    A    
C61   C83   A    
Cr6   O16   S    
Cr5   O10   S    
C76   H6    S    
C40   O20   A    
C9    H32   S    
C65   C69   A    
C2    H19   S    
C22   C106  A    
Cr7   O43   S    
C33   C37   A    
C108  C112  A    
C13   C24   A    
C73   H17   S    
C9    O50   D    
C42   C90   S    
C84   C95   S    
Cr6   O23   S    
C98   O2    A    
Cr1   O36   S    
C70   C96   S    
C104  O39   A    
C80   C85   A    
C84   H14   S    
C12   H36   S    
Cr11  O21   S    
C8    O49   D    
C78   C82   A    
C75   H5    S    
C62   C110  S    
C58   O28   A    
C27   C40   S    
C68   C72   A    
C96   O43   A    
C11   H35   S    
Cr11  O63   S    
C69   C74   A    
C62   C73   S    
C61   H44   S    
Cr3   O3    S    
C14   H37   S    
Cr4   O4    S    
C100  O63   A    
Cr1   O9    S    
C94   O47   A    
C72   C93   S    
C3    H34   S    
C16   O57   D    
C53   H27   S    
C10   H33   S    
C21   H21   S    
Cr6   O42   S    
Cr11  O48   S    
Cr12  O64   S    
C114  H1    S    
C31   C35   A    
C9    C32   S    
C67   H2    S    
C76   C80   A    
C64   H46   S    
C101  O36   A    
C48   C53   A    
C18   C45   S    
C64   C68   A    
C14   O54   D    
C77   H7    S    
C48   C98   S    
C18   O59   D    
Cr8   O22   S    
C94   O42   A    
C90   O23   A    
C40   O16   A    
C18   H41   S    
Cr10  O20   S    
C25   C30   A    
C81   H11   S    
C21   C25   A    
C46   C47   A    
C83   C101  S    
C79   H9    S    
C25   H26   S    
C34   C38   A    
C8    C31   S    
Cr5   O37   S    
Cr7   O17   S    
C11   C34   S    
C44   C45   A    
C24   C28   A    
C62   H16   S    
C17   H40   S    
C60   C108  S    
C28   C33   A    
C72   C77   A    
C32   C36   A    
Cr3   O33   S    
C90   O33   A    
C3    C108  A    
C7    C95   S    
C57   O27   A    
C52   C99   S    
C50   C100  S    
Cr4   O13   S    
C106  H18   S    
C58   C105  S    
C99   O62   A    
C1    O14   A    
C17   C44   S    
C38   C43   A    
Cr9   O56   S    
C29   O15   A    
C26   C51   S    
C46   C52   A    
C54   H28   S    
Cr2   O10   S    
C60   O26   A    
C88   O1    A    
C66   C70   A    
C78   H8    S    
C95   C113  S    
C69   H4    S    
C80   H10   S    
C35   C39   A    
Cr4   O8    S    
C10   O51   D    
C1    C30   S    
C59   C109  S    
C89   O12   A    
C60   O30   A    
C7    N4    T    
C10   C33   S    
C112  C113  A    
C116  H23   S    
C5    C73   S    
Cr10  O11   S    
C100  O4    A    
Cr3   O7    S    
C5    N2    T    
C20   C47   S    
C103  O38   A    
C49   C97   S    
C87   C104  S    
C79   C83   A    
C51   O21   A    
C55   H29   S    
C20   H43   S    
C98   O56   A    
C115  H12   S    
Cr9   O19   S    
C77   C81   A    
C22   C26   A    
Cr7   O34   S    
C15   O55   D    
C2    C23   A    
C57   C107  S    
Cr5   O41   S    
Cr9   O46   S    
Cr7   O13   S    
C70   C75   A    
C93   O41   A    
C84   C112  S    
C2    C41   A    
C13   H20   S    
Cr8   O9    S    
C19   O60   D    
C8    H31   S    
C75   C79   A    
Cr5   O15   S    
C12   C35   S    
C65   H47   S    
C85   C102  S    
C59   O29   A    
C16   C38   S    
C97   O64   A    
