data_mof_unit_13887.cif
_audit_creation_date              2012-10-26T20:32:01-0400
_audit_creation_method            fapswitch 2.2
_symmetry_space_group_name_H-M    P1
_symmetry_Int_Tables_number       1
_space_group_crystal_system       triclinic
_cell_length_a                    10.644372
_cell_length_b                    10.87599
_cell_length_c                    9.573129
_cell_angle_alpha                 90.080682
_cell_angle_beta                  90.381022
_cell_angle_gamma                 88.842348
_cell_volume                      1108.01118835

loop_
_atom_site_label
_atom_site_type_symbol
_atom_type_description
_atom_site_fract_x
_atom_site_fract_y
_atom_site_fract_z
_atom_type_partial_charge
C1    C     C_R   0.501396 0.262855 0.499699 0.534146
C2    C     C_R   0.471632 0.940121 0.617855 0.003283
C3    C     C_3   0.445774 0.937400 0.772791 0.159190
C4    C     C_R   0.259554 0.497172 0.499481 0.538260
C5    C     C_3   0.457855 0.078242 0.770272 -0.219990
C6    C     C_R   0.606339 0.525741 0.074229 0.110046
C7    C     C_R   0.399602 0.458565 0.072180 0.364056
C8    C     C_R   0.399159 0.461494 0.923876 0.010045
C9    C     C_R   0.606951 0.524455 0.927284 0.139586
C10   C     C_3   0.681529 0.638631 0.921734 -0.273392
C11   C     C_3   0.679130 0.640639 0.080277 -0.270618
C12   C     C_3   0.958241 0.590434 0.427920 0.272485
C13   C     C_R   0.497881 0.737386 0.499965 0.542391
C14   C     C_R   0.740692 0.499090 0.500514 0.575929
C15   C     C_3   0.044618 0.397861 0.573445 -0.141711
C16   C     C_3   0.959059 0.390468 0.442146 -0.169279
C17   C     C_3   0.877759 0.496482 0.501643 0.063520
C18   C     C_3   0.961020 0.503450 0.633027 -0.143857
C19   C     C_3   0.041699 0.599833 0.558373 -0.108339
C20   C     C_3   0.303191 0.287586 0.154220 0.024457
C21   C     C_3   0.206461 0.226344 0.060244 -0.305701
C22   C     C_3   0.210080 0.087444 0.080252 -0.469517
C23   C     C_3   0.040367 0.485871 0.366210 -0.129737
C24   C     C_3   0.982223 0.729120 0.247953 0.002858
C25   C     C_3   0.928923 0.847294 0.181571 -0.256574
C26   C     C_3   0.968607 0.858015 0.029172 -0.495061
C27   C     C_3   0.234806 0.872922 0.720170 0.034911
C28   C     C_3   0.164940 0.987633 0.663544 -0.289437
C29   C     C_3   0.054731 0.953189 0.569729 -0.478212
C30   C     C_3   0.122908 0.494276 0.498382 0.009210
C31   C     C_R   0.481279 0.063698 0.618257 -0.032784
C32   C     C_R   0.501930 0.130362 0.497857 -0.000719
C33   C     C_R   0.519911 0.063851 0.372709 -0.170471
C34   C     C_R   0.517399 0.934894 0.373133 -0.152631
C35   C     C_R   0.494844 0.870409 0.498269 -0.010945
Cu1   Cu    Cu3+1 0.499990 0.499980 0.640670 0.931010
Cu2   Cu    Cu3+1 0.500010 0.500020 0.359330 0.976457
H1    H     H_    0.922275 0.304706 0.395653 0.106897
H2    H     H_    0.075609 0.476098 0.257955 0.145777
H3    H     H_    0.537524 0.110592 0.275245 0.119799
H4    H     H_    0.534420 0.886438 0.276037 0.131514
H5    H     H_    0.280680 0.265511 0.264453 0.171166
H6    H     H_    0.398546 0.246939 0.132983 0.114084
H7    H     H_    0.110863 0.262762 0.085218 0.163843
H8    H     H_    0.226338 0.247276 0.949233 0.141678
H9    H     H_    0.306279 0.049483 0.062203 0.184855
H10   H     H_    0.145483 0.045849 0.003590 0.166003
H11   H     H_    0.179781 0.063321 0.187452 0.140228
H12   H     H_    0.522761 0.892638 0.833600 0.113691
H13   H     H_    0.629027 0.716251 0.872736 0.148444
H14   H     H_    0.083839 0.318302 0.633152 0.107780
H15   H     H_    0.927468 0.509254 0.742279 0.111046
H16   H     H_    0.984483 0.655170 0.167495 0.130820
H17   H     H_    0.080153 0.745682 0.284308 0.130730
H18   H     H_    0.824581 0.848555 0.185652 0.182823
H19   H     H_    0.962526 0.928104 0.241269 0.146663
H20   H     H_    0.072167 0.847161 0.020404 0.166093
H21   H     H_    0.938400 0.949094 0.987199 0.139975
H22   H     H_    0.923883 0.785524 0.965289 0.141340
H23   H     H_    0.369142 0.130317 0.791312 0.146874
H24   H     H_    0.164966 0.815040 0.773225 0.143059
H25   H     H_    0.274045 0.814812 0.635062 0.138742
H26   H     H_    0.129014 0.044077 0.751961 0.159028
H27   H     H_    0.229146 0.044666 0.601608 0.161265
H28   H     H_    0.088742 0.897476 0.479895 0.154716
H29   H     H_    0.007785 0.038043 0.528958 0.143611
H30   H     H_    0.984978 0.900212 0.629457 0.161377
H31   H     H_    0.541770 0.111668 0.827423 0.099130
H32   H     H_    0.316628 0.432688 0.867473 0.126920
H33   H     H_    0.776956 0.621426 0.879071 0.113994
H34   H     H_    0.772518 0.623450 0.128349 0.164431
H35   H     H_    0.624326 0.719531 0.124054 0.145683
H36   H     H_    0.077830 0.685520 0.604100 0.087267
N1    N     N_R   0.500800 0.500930 0.147930 -0.227624
N2    N     N_R   0.500800 0.500890 0.852020 -0.260279
O1    O     O_R   0.500000 0.319640 0.618810 -0.506023
O2    O     O_3   0.905004 0.694383 0.359822 -0.577004
O3    O     O_3   0.325094 0.903997 0.822950 -0.580541
O4    O     O_R   0.500010 0.319680 0.381230 -0.524406
O5    O     O_R   0.316850 0.499950 0.618770 -0.523849
O6    O     O_R   0.316860 0.499990 0.381190 -0.452691
O7    O     O_R   0.499990 0.680320 0.618770 -0.498996
O8    O     O_R   0.500000 0.680360 0.381190 -0.502852
O9    O     O_R   0.683140 0.500010 0.618810 -0.509805
O10   O     O_R   0.683150 0.500050 0.381230 -0.490133
O11   O     O_3   0.294381 0.416840 0.138556 -0.570005

loop_
_geom_bond_atom_site_label_1
_geom_bond_atom_site_label_2
_ccdc_geom_bond_type
C2    C35   A    
C15   C18   S    
C22   H11   S    
Cu2   N1    S    
C25   H19   S    
C14   O9    A    
C27   O3    S    
C6    C9    A    
C3    H12   S    
C18   H15   S    
C7    C8    A    
Cu2   O4    S    
C12   C23   S    
C8    H32   S    
Cu2   O10   S    
Cu1   Cu2   S    
C27   H25   S    
C13   C35   S    
C11   H34   S    
C7    O11   S    
C24   H17   S    
C15   C16   S    
C17   C18   S    
C34   C35   A    
C27   H24   S    
C29   H30   S    
C4    O6    A    
Cu1   O7    S    
C16   C17   S    
C20   O11   S    
C12   C17   S    
C15   H14   S    
Cu1   O1    S    
C9    C10   S    
C22   H10   S    
C21   C22   S    
C14   C17   S    
Cu2   O6    S    
C34   H4    S    
C5    H31   S    
C6    N1    A    
C7    N1    A    
C21   H8    S    
C33   H3    S    
C23   C30   S    
C19   H36   S    
C24   C25   S    
Cu1   O5    S    
C6    C11   S    
C11   H35   S    
C18   C19   S    
C24   H16   S    
C13   O7    A    
C1    C32   S    
C2    C31   A    
Cu1   N2    S    
C21   H7    S    
C31   C32   A    
C12   O2    S    
C33   C34   A    
C26   H21   S    
C29   H28   S    
C28   H27   S    
C22   H9    S    
C16   C23   S    
C1    O4    A    
C10   H13   S    
C10   H33   S    
C20   H6    S    
C15   C30   S    
C26   H22   S    
C28   C29   S    
C5    H23   S    
C1    O1    A    
C25   H18   S    
C14   O10   A    
C3    C5    S    
C20   H5    S    
C4    O5    A    
C13   O8    A    
C32   C33   A    
C2    C3    S    
C25   C26   S    
C3    O3    S    
Cu1   O9    S    
C23   H2    S    
C12   C19   S    
C8    N2    A    
C26   H20   S    
C10   C11   S    
C29   H29   S    
C28   H26   S    
C24   O2    S    
C20   C21   S    
C27   C28   S    
Cu2   O8    S    
C9    N2    A    
C19   C30   S    
C4    C30   S    
C16   H1    S    
C5    C31   S    
