data_mof_unit_60212.cif
_audit_creation_date              2013-03-05T16:45:05-0500
_audit_creation_method            fapswitch 2.2
_symmetry_space_group_name_H-M    P1
_symmetry_Int_Tables_number       1
_space_group_crystal_system       triclinic
_cell_length_a                    19.173138
_cell_length_b                    19.180614
_cell_length_c                    19.527336
_cell_angle_alpha                 89.877778
_cell_angle_beta                  95.001229
_cell_angle_gamma                 85.27364
_cell_volume                      7129.24751892

loop_
_atom_site_label
_atom_site_type_symbol
_atom_site_description
_atom_site_fract_x
_atom_site_fract_y
_atom_site_fract_z
_atom_type_partial_charge
Zn1   Zn    Zn3+2 0.558280 0.441710 0.441700 0.984428
Zn2   Zn    Zn3+2 0.558950 0.553420 0.562770 1.003320
Zn3   Zn    Zn3+2 0.446190 0.441460 0.553820 0.964720
Zn4   Zn    Zn3+2 0.436580 0.563410 0.441710 0.959351
O1    O     O_3   0.500000 0.500000 0.500000 -0.482026
O2    O     O_R   0.451210 0.659450 0.463610 -0.646373
O3    O     O_R   0.545190 0.344140 0.454780 -0.638641
O4    O     O_R   0.656710 0.532590 0.548340 -0.619505
O5    O     O_R   0.346890 0.463830 0.533270 -0.646234
O6    O     O_R   0.546320 0.532340 0.658770 -0.637864
O7    O     O_R   0.450550 0.549430 0.344370 -0.650053
O8    O     O_R   0.467400 0.453980 0.652500 -0.642680
O9    O     O_R   0.535730 0.464240 0.344360 -0.651670
O10   O     O_R   0.656240 0.454400 0.463600 -0.636685
O11   O     O_R   0.340160 0.549180 0.454800 -0.645418
O12   O     O_R   0.536860 0.652450 0.548350 -0.645715
O13   O     O_R   0.466740 0.343960 0.533260 -0.648187
C1    C     C_R   0.492592 0.689202 0.507436 0.785854
C2    C     C_R   0.506770 0.310908 0.492457 0.798511
C3    C     C_R   0.689518 0.492089 0.507434 0.880206
C4    C     C_R   0.309981 0.506843 0.491623 0.792816
C5    C     C_R   0.509149 0.491058 0.687952 0.801781
C6    C     C_R   0.491116 0.508134 0.311611 0.789042
C7    C     C_R   0.484098 0.508711 0.236392 -0.000893
C8    C     C_R   0.530067 0.464905 0.200432 -0.209061
C9    C     C_R   0.522276 0.463653 0.129118 -0.159712
C10   C     C_R   0.468659 0.506629 0.092705 0.201027
C11   C     C_R   0.421813 0.549332 0.128452 -0.177534
C12   C     C_R   0.429756 0.550841 0.199970 -0.195794
C13   C     C_R   0.451418 0.518628 0.863674 -0.143480
C14   C     C_R   0.450718 0.513980 0.792703 -0.248833
C15   C     C_R   0.573665 0.468033 0.803767 0.112364
C16   C     C_R   0.573625 0.472790 0.875218 -0.200179
C17   C     C_R   0.512959 0.497726 0.905549 0.169973
C18   C     C_2   0.460565 0.507073 0.017361 -0.234629
C19   C     C_2   0.516919 0.500930 0.981059 -0.217325
C20   C     C_R   0.511417 0.489609 0.762478 0.003204
H1    H     H_    0.571779 0.431222 0.227338 0.163832
H2    H     H_    0.403115 0.531242 0.761068 0.144814
H3    H     H_    0.569082 0.496410 0.008186 0.149507
H4    H     H_    0.379799 0.582203 0.100966 0.132309
H5    H     H_    0.404050 0.539970 0.884731 0.131664
H6    H     H_    0.393120 0.584519 0.226664 0.163087
H7    H     H_    0.407641 0.513596 0.992568 0.147535
H8    H     H_    0.557636 0.428359 0.102643 0.133119
H9    H     H_    0.620893 0.455917 0.907562 0.128202
C21   C     C_R   0.506228 0.234560 0.487408 0.001172
C22   C     C_R   0.473342 0.197584 0.535795 -0.227192
C23   C     C_R   0.470593 0.125591 0.530434 -0.170393
C24   C     C_R   0.500754 0.089083 0.476245 0.322009
C25   C     C_R   0.532484 0.126146 0.427364 -0.193960
C26   C     C_R   0.535900 0.198330 0.433139 -0.209028
C27   C     C_R   0.464608 0.879982 0.457448 -0.168611
C28   C     C_R   0.463531 0.807427 0.454244 -0.228232
C29   C     C_R   0.491526 0.911520 0.518213 0.320667
N1    N     N_2   0.499219 0.015640 0.469033 -0.201690
N2    N     N_2   0.493775 0.984809 0.524365 -0.203128
C30   C     C_R   0.490022 0.765666 0.511203 0.004764
H10   H     H_    0.443319 0.783946 0.406966 0.162380
H11   H     H_    0.444225 0.911295 0.412820 0.150162
H12   H     H_    0.555276 0.098834 0.385116 0.144147
H13   H     H_    0.560856 0.225830 0.394708 0.166522
C31   C     C_R   0.515646 0.797399 0.571963 -0.209249
C32   C     C_R   0.515442 0.869849 0.575561 -0.192816
H14   H     H_    0.535616 0.766193 0.616820 0.166151
H15   H     H_    0.444349 0.098679 0.568303 0.151430
H16   H     H_    0.535281 0.893647 0.622811 0.145696
H17   H     H_    0.449572 0.224272 0.577867 0.168838
C33   C     C_R   0.232620 0.507580 0.485572 -0.022706
C34   C     C_R   0.196807 0.447745 0.500133 0.132765
C35   C     C_R   0.123216 0.454330 0.496302 -0.207877
C36   C     C_R   0.084790 0.518051 0.477329 0.291177
C37   C     C_R   0.120185 0.575022 0.459335 -0.196304
C38   C     C_R   0.193302 0.570143 0.463963 -0.257190
C39   C     C_R   0.870094 0.507026 0.453150 -0.152124
C40   C     C_R   0.797559 0.505153 0.451286 -0.287037
C41   C     C_R   0.912347 0.492305 0.514907 0.260678
N3    N     N_2   0.010401 0.525159 0.473974 -0.190729
N4    N     N_2   0.986649 0.489482 0.518687 -0.183742
C42   C     C_R   0.766105 0.489005 0.510779 -0.107984
H18   H     H_    0.765703 0.517316 0.403498 0.161335
H19   H     H_    0.893069 0.519021 0.406239 0.159208
H20   H     H_    0.091009 0.623944 0.443305 0.151530
H21   H     H_    0.219267 0.616051 0.451607 0.174864
C43   C     C_R   0.808086 0.472827 0.572798 0.303329
C44   C     C_R   0.881062 0.474837 0.573925 -0.254802
H22   H     H_    0.095302 0.409212 0.507020 0.149567
H23   H     H_    0.914124 0.461442 0.620715 0.185097
N5    N     N_R   0.778040 0.451261 0.633606 0.201711
O14   O     O_R   0.808910 0.462321 0.694169 -0.410186
O15   O     O_R   0.725342 0.412432 0.628662 -0.443237
C45   C     C_3   0.233652 0.375891 0.517743 -0.390011
C46   C     C_3   0.267250 0.342764 0.456128 -0.819540
H24   H     H_    0.308039 0.374623 0.438443 0.248993
H25   H     H_    0.292434 0.290007 0.470851 0.245946
H26   H     H_    0.226449 0.337174 0.412921 0.251246
H27   H     H_    0.272821 0.378182 0.562706 0.235285
H28   H     H_    0.195632 0.339650 0.533895 0.191859
C47   C     C_3   0.639412 0.437401 0.773594 -0.372718
C48   C     C_3   0.631074 0.362689 0.749231 -0.772121
H29   H     H_    0.616143 0.330045 0.791819 0.241540
H30   H     H_    0.590332 0.362062 0.705264 0.248294
H31   H     H_    0.681633 0.339344 0.732473 0.289092
H32   H     H_    0.652123 0.470598 0.730556 0.266088
H33   H     H_    0.685342 0.436105 0.812641 0.216886

loop_
_geom_bond_atom_site_label_1
_geom_bond_atom_site_label_2
_geom_bond_distance
_ccdc_geom_bond_type
C31   H14   1.083363 S    
C46   H24   1.108707 S    
C37   C38   1.392289 A    
C18   C19   1.340433 D    
C25   H12   1.083053 S    
C45   H28   1.112095 S    
C27   C28   1.394958 A    
O6    C5    1.273388 A    
C9    C10   1.404383 A    
O4    C3    1.283335 A    
Zn1   O1    1.953463 S    
C11   C12   1.392186 A    
C13   C14   1.387903 A    
C44   H23   1.083435 S    
O8    C5    1.274781 A    
C11   H4    1.083503 S    
N1    N2    1.247055 D    
O9    C6    1.277937 A    
C7    C12   1.404994 A    
C45   C46   1.528826 S    
C36   N3    1.417295 S    
Zn3   O8    1.953882 S    
C9    H8    1.082666 S    
C1    C30   1.465600 S    
C47   C48   1.527375 S    
C6    C7    1.463180 S    
C34   C35   1.401631 A    
N5    O15   1.300840 A    
Zn2   O12   1.926386 S    
C17   C19   1.471521 S    
C41   N4    1.416620 S    
C47   H32   1.109120 S    
C46   H25   1.110764 S    
C12   H6    1.083008 S    
C16   H9    1.084434 S    
O2    C1    1.282916 A    
C27   H11   1.082866 S    
C45   H27   1.107900 S    
C16   C17   1.400755 A    
C28   H10   1.083277 S    
C27   C29   1.409967 A    
C47   H33   1.112078 S    
C3    C42   1.460464 S    
C34   C45   1.520499 S    
C23   H15   1.082839 S    
C13   C17   1.405013 A    
C25   C26   1.395797 A    
C32   H16   1.083311 S    
O10   C3    1.282880 A    
C19   H3    1.086971 S    
C7    C8    1.401520 A    
Zn4   O2    1.929383 S    
C43   N5    1.438526 S    
N3    N4    1.247470 D    
C36   C37   1.392918 A    
C10   C18   1.465857 S    
C8    C9    1.388016 A    
C43   C44   1.401147 A    
C5    C20   1.452272 S    
C48   H31   1.109806 S    
C24   N1    1.418465 S    
C14   C20   1.397351 A    
C4    C33   1.476543 S    
C39   C40   1.391451 A    
C42   C43   1.413558 A    
Zn3   O5    1.923896 S    
C8    H1    1.083140 S    
C21   C22   1.402878 A    
C29   C32   1.396224 A    
C48   H30   1.110004 S    
C24   C25   1.398641 A    
C33   C38   1.406999 A    
C15   C20   1.412510 A    
C22   H17   1.083199 S    
Zn4   O7    1.958509 S    
C18   H7    1.082994 S    
C39   C41   1.407425 A    
C35   H22   1.083615 S    
C22   C23   1.390024 A    
C41   C44   1.397235 A    
C46   H26   1.111056 S    
O3    C2    1.288452 A    
C29   N2    1.414984 S    
Zn2   O1    1.945356 S    
Zn1   O9    1.951691 S    
Zn2   O6    1.956624 S    
C28   C30   1.402615 A    
C30   C31   1.403682 A    
Zn1   O3    1.927979 S    
Zn2   O4    1.929102 S    
C40   C42   1.400237 A    
C38   H21   1.083376 S    
Zn4   O1    1.939711 S    
Zn3   O1    1.950542 S    
C40   H18   1.083742 S    
C39   H19   1.082704 S    
C21   C26   1.404528 A    
C15   C47   1.513378 S    
C15   C16   1.398469 A    
Zn4   O11   1.929420 S    
C35   C36   1.405688 A    
C26   H13   1.082982 S    
O5    C4    1.281950 A    
O7    C6    1.276306 A    
C48   H29   1.111035 S    
O13   C2    1.286233 A    
C14   H2    1.084100 S    
Zn3   O13   1.929533 S    
C2    C21   1.468746 S    
C33   C34   1.425478 A    
C31   C32   1.391261 A    
O11   C4    1.287924 A    
O12   C1    1.279226 A    
C23   C24   1.409817 A    
C10   C11   1.398356 A    
C13   H5    1.079814 S    
Zn1   O10   1.924968 S    
N5    O14   1.301396 A    
C37   H20   1.083101 S    
