data_mof_unit_23928.cif
_audit_creation_date              2013-03-05T15:50:21-0500
_audit_creation_method            fapswitch 2.2
_symmetry_space_group_name_H-M    P1
_symmetry_Int_Tables_number       1
_space_group_crystal_system       triclinic
_cell_length_a                    22.023329
_cell_length_b                    7.259584
_cell_length_c                    19.514928
_cell_angle_alpha                 90.00008
_cell_angle_beta                  87.552215
_cell_angle_gamma                 89.998463
_cell_volume                      3117.20385886

loop_
_atom_site_label
_atom_site_type_symbol
_atom_site_description
_atom_site_fract_x
_atom_site_fract_y
_atom_site_fract_z
_atom_type_partial_charge
O1    O     O_R   0.688010 0.379840 0.189360 -0.586176
O2    O     O_R   0.311990 0.620160 0.810640 -0.575832
O3    O     O_R   0.811990 0.879840 0.310640 -0.586187
O4    O     O_R   0.188010 0.120160 0.689360 -0.575834
O5    O     O_R   0.808630 0.708850 0.184280 -0.573217
O6    O     O_R   0.191370 0.291150 0.815720 -0.558741
O7    O     O_R   0.691370 0.208850 0.315720 -0.573222
O8    O     O_R   0.308630 0.791150 0.684280 -0.558743
C1    C     C_R   0.829888 0.541228 0.165953 0.933122
C2    C     C_R   0.170098 0.459205 0.834009 0.938047
C3    C     C_R   0.670113 0.041231 0.334047 0.933122
C4    C     C_R   0.329903 0.959202 0.665992 0.938043
O9    O     O_R   0.688260 0.709510 0.181570 -0.581401
O10   O     O_R   0.311740 0.290490 0.818430 -0.589862
O11   O     O_R   0.811740 0.209510 0.318430 -0.581405
O12   O     O_R   0.188260 0.790490 0.681570 -0.589859
O13   O     O_R   0.690760 0.880550 0.307920 -0.554204
O14   O     O_R   0.309240 0.119450 0.692080 -0.570717
O15   O     O_R   0.809240 0.380550 0.192080 -0.554209
O16   O     O_R   0.190760 0.619450 0.807920 -0.570722
C5    C     C_R   0.669307 0.540602 0.165111 0.928743
C6    C     C_R   0.330575 0.458870 0.835060 0.923344
C7    C     C_R   0.830694 0.040602 0.334887 0.928748
C8    C     C_R   0.169424 0.958873 0.664941 0.923350
O17   O     O_3   0.750960 0.546580 0.291460 -0.276570
O18   O     O_3   0.249040 0.453420 0.708540 -0.276701
O19   O     O_3   0.749040 0.046580 0.208540 -0.276564
O20   O     O_3   0.250960 0.953420 0.791460 -0.276703
V1    V     V_3+5 0.749820 0.821150 0.242310 1.154145
V2    V     V_3+5 0.250180 0.178850 0.757690 1.153883
V3    V     V_3+5 0.750180 0.321150 0.257690 1.154141
V4    V     V_3+5 0.249820 0.678850 0.742310 1.153882
C9    C     C_R   0.057905 0.977133 0.641851 -0.054426
C10   C     C_R   0.942349 0.021530 0.357175 -0.051393
C11   C     C_R   0.442094 0.477082 0.858152 -0.054426
C12   C     C_R   0.557652 0.521527 0.142823 -0.051390
C13   C     C_R   0.118771 0.965722 0.617039 -0.163079
C14   C     C_R   0.881519 0.028303 0.382438 -0.163799
C15   C     C_R   0.381227 0.465704 0.882964 -0.163078
C16   C     C_R   0.618483 0.528296 0.117559 -0.163808
C17   C     C_R   0.131805 0.959181 0.546568 -0.250684
C18   C     C_R   0.868417 0.011836 0.452563 -0.253196
C19   C     C_R   0.368193 0.459161 0.953436 -0.250681
C20   C     C_R   0.631584 0.511770 0.047435 -0.253142
C21   C     C_R   0.085300 0.968661 0.499054 0.108750
C22   C     C_R   0.914954 0.993256 0.499577 0.109309
C23   C     C_R   0.414699 0.468623 0.000949 0.108750
C24   C     C_R   0.585046 0.493179 0.000423 0.109316
C25   C     C_R   0.023697 0.977391 0.523157 0.002895
C26   C     C_R   0.976603 0.989708 0.475288 0.002620
C27   C     C_R   0.476302 0.477327 0.976846 0.002898
C28   C     C_R   0.523396 0.489650 0.024714 0.002616
C29   C     C_R   0.009300 0.971198 0.595141 0.038258
C30   C     C_R   0.990881 0.994668 0.403183 0.038798
C31   C     C_R   0.490698 0.471115 0.904862 0.038255
C32   C     C_R   0.509120 0.494639 0.096819 0.038798
C33   C     C_R   0.099397 0.962438 0.427832 -0.081814
C34   C     C_R   0.900524 0.969714 0.570244 -0.081935
C35   C     C_R   0.400604 0.462407 0.072172 -0.081815
C36   C     C_R   0.599472 0.469605 0.929758 -0.081944
C37   C     C_R   0.052766 0.968508 0.380201 -0.097793
C38   C     C_R   0.947072 0.953471 0.617570 -0.097243
C39   C     C_R   0.447235 0.468484 0.119802 -0.097788
C40   C     C_R   0.552924 0.453359 0.882434 -0.097223
C41   C     C_1   0.381246 0.970495 0.612675 -0.307839
C42   C     C_1   0.618886 0.032695 0.387588 -0.311501
C43   C     C_1   0.118757 0.470506 0.887328 -0.307843
C44   C     C_1   0.881115 0.532688 0.112413 -0.311490
C45   C     C_1   0.424770 0.983031 0.569821 0.012705
C46   C     C_1   0.575504 0.024094 0.430773 0.017198
C47   C     C_1   0.075234 0.483044 0.930183 0.012698
C48   C     C_1   0.924497 0.524090 0.069230 0.017197
C49   C     C_1   0.477734 0.998833 0.520893 -0.038644
C50   C     C_1   0.522652 0.011429 0.480007 -0.039147
C51   C     C_1   0.022270 0.498840 0.979111 -0.038642
C52   C     C_1   0.977350 0.511431 0.019996 -0.039150
C53   C     C_R   0.047380 0.016607 0.715854 0.112091
C54   C     C_R   0.055548 0.878675 0.765136 -0.110195
C55   C     C_R   0.044850 0.917668 0.834698 -0.089057
C56   C     C_R   0.026568 0.093742 0.855446 -0.069536
C57   C     C_R   0.019987 0.232456 0.806698 -0.141019
C58   C     C_R   0.030987 0.195071 0.737110 -0.142976
H1    H     H_    0.068894 0.740804 0.749529 0.107713
H2    H     H_    0.049939 0.811349 0.872572 0.118378
H3    H     H_    0.017560 0.122517 0.909321 0.108456
H4    H     H_    0.006431 0.369110 0.822891 0.118257
H5    H     H_    0.025592 0.303649 0.699786 0.106887
C59   C     C_R   0.953110 0.061435 0.283377 0.099993
C60   C     C_R   0.944951 0.923706 0.234049 -0.095808
C61   C     C_R   0.955717 0.963018 0.164541 -0.093848
C62   C     C_R   0.973583 0.139537 0.143947 -0.069968
C63   C     C_R   0.979591 0.278505 0.192765 -0.128351
C64   C     C_R   0.968739 0.240541 0.262301 -0.148465
H6    H     H_    0.931755 0.785668 0.249611 0.104203
H7    H     H_    0.951153 0.856598 0.126575 0.117325
H8    H     H_    0.982843 0.168000 0.090137 0.109894
H9    H     H_    0.992763 0.415606 0.176793 0.115396
H10   H     H_    0.973719 0.349071 0.299729 0.106611
C65   C     C_R   0.452622 0.516565 0.784150 0.112083
C66   C     C_R   0.444454 0.378644 0.734863 -0.110205
C67   C     C_R   0.455159 0.417643 0.665303 -0.089065
C68   C     C_R   0.473445 0.593715 0.644560 -0.069541
C69   C     C_R   0.480024 0.732419 0.693312 -0.141018
C70   C     C_R   0.469021 0.695025 0.762898 -0.142967
H11   H     H_    0.431102 0.240777 0.750466 0.107717
H12   H     H_    0.450069 0.311333 0.627427 0.118381
H13   H     H_    0.482456 0.622496 0.590687 0.108454
H14   H     H_    0.493582 0.869073 0.677122 0.118245
H15   H     H_    0.474416 0.803595 0.800226 0.106881
C71   C     C_R   0.546891 0.561440 0.216621 0.099986
C72   C     C_R   0.555049 0.423713 0.265950 -0.095791
C73   C     C_R   0.544283 0.463032 0.335458 -0.093855
C74   C     C_R   0.526419 0.639556 0.356050 -0.069975
C75   C     C_R   0.520412 0.778522 0.307231 -0.128350
C76   C     C_R   0.531263 0.740551 0.237695 -0.148471
H16   H     H_    0.568245 0.285672 0.250389 0.104202
H17   H     H_    0.548847 0.356613 0.373425 0.117324
H18   H     H_    0.517158 0.668024 0.409860 0.109896
H19   H     H_    0.507241 0.915628 0.323202 0.115399
H20   H     H_    0.526284 0.849079 0.200266 0.106615
H21   H     H_    0.179096 0.949892 0.529265 0.122875
H22   H     H_    0.821068 0.014389 0.470019 0.123293
H23   H     H_    0.320902 0.449889 0.970738 0.122875
H24   H     H_    0.678933 0.514281 0.029976 0.123277
C77   C     C_R   0.163116 0.941015 0.400999 0.159357
C78   C     C_R   0.187089 0.764087 0.389278 -0.142139
C79   C     C_R   0.242221 0.742267 0.352057 -0.122761
C80   C     C_R   0.273757 0.896796 0.326695 -0.091937
C81   C     C_R   0.250614 0.073415 0.339450 -0.120021
C82   C     C_R   0.195650 0.095857 0.376914 -0.169248
H25   H     H_    0.161719 0.643356 0.406215 0.105901
H26   H     H_    0.259513 0.605282 0.341349 0.112211
H27   H     H_    0.315610 0.879658 0.296351 0.098139
H28   H     H_    0.274223 0.192822 0.318657 0.128836
H29   H     H_    0.176942 0.232847 0.384208 0.105337
C83   C     C_R   0.836583 0.944038 0.595593 0.158178
C84   C     C_R   0.810593 0.767545 0.595212 -0.141933
C85   C     C_R   0.754092 0.736276 0.628413 -0.117512
C86   C     C_R   0.723436 0.880697 0.662306 -0.091600
C87   C     C_R   0.748894 0.057270 0.662115 -0.119834
C88   C     C_R   0.804987 0.089640 0.628153 -0.173448
H30   H     H_    0.835077 0.653379 0.571319 0.110266
H31   H     H_    0.734857 0.599148 0.629127 0.106152
H32   H     H_    0.680376 0.855093 0.689293 0.097975
H33   H     H_    0.726024 0.168407 0.689549 0.132776
H34   H     H_    0.825052 0.225745 0.629809 0.107283
C89   C     C_R   0.336885 0.440995 0.099005 0.159358
C90   C     C_R   0.312915 0.264077 0.110739 -0.142121
C91   C     C_R   0.257781 0.242278 0.147959 -0.122783
C92   C     C_R   0.226241 0.396818 0.173306 -0.091948
C93   C     C_R   0.249382 0.573427 0.160539 -0.120001
C94   C     C_R   0.304347 0.595847 0.123076 -0.169265
H35   H     H_    0.338286 0.143339 0.093814 0.105897
H36   H     H_    0.240490 0.105302 0.158677 0.112215
H37   H     H_    0.184387 0.379697 0.203648 0.098145
H38   H     H_    0.225771 0.692843 0.181320 0.128831
H39   H     H_    0.323054 0.732831 0.115772 0.105344
C95   C     C_R   0.663413 0.444015 0.904391 0.158162
C96   C     C_R   0.689356 0.267422 0.904502 -0.141587
C97   C     C_R   0.745827 0.236307 0.871210 -0.117771
C98   C     C_R   0.776505 0.380996 0.837508 -0.091537
C99   C     C_R   0.751098 0.557666 0.837975 -0.119587
C100  C     C_R   0.695029 0.589861 0.872014 -0.173709
H40   H     H_    0.664844 0.153068 0.928237 0.110120
H41   H     H_    0.765018 0.099102 0.870268 0.106167
H42   H     H_    0.819543 0.355521 0.810448 0.098010
H43   H     H_    0.773982 0.669025 0.810681 0.132658
H44   H     H_    0.674988 0.726043 0.870549 0.107306
C101  C     C_R   0.070088 0.919098 0.308019 0.188087
C102  C     C_R   0.094976 0.051424 0.262378 -0.101547
C103  C     C_R   0.112271 0.001659 0.195155 -0.117967
C104  C     C_R   0.107565 0.818576 0.174081 -0.100016
C105  C     C_R   0.085909 0.684641 0.220323 -0.134135
C106  C     C_R   0.066669 0.734537 0.286927 -0.166539
H45   H     H_    0.099469 0.193403 0.278435 0.090109
H46   H     H_    0.128847 0.105112 0.159184 0.105303
H47   H     H_    0.121441 0.780038 0.122167 0.110948
H48   H     H_    0.084352 0.542131 0.204594 0.103171
H49   H     H_    0.049743 0.629633 0.322283 0.103104
C107  C     C_R   0.929432 0.884810 0.687403 0.184169
C108  C     C_R   0.904471 0.004030 0.737874 -0.100250
C109  C     C_R   0.888295 0.936898 0.803240 -0.111226
C110  C     C_R   0.894954 0.749795 0.817864 -0.103797
C111  C     C_R   0.916714 0.629080 0.766752 -0.139672
C112  C     C_R   0.934441 0.696169 0.701878 -0.161790
H50   H     H_    0.899178 0.149292 0.727078 0.089706
H51   H     H_    0.871173 0.030136 0.842707 0.100605
H52   H     H_    0.882304 0.697818 0.868463 0.113863
H53   H     H_    0.919629 0.483443 0.777272 0.101577
H54   H     H_    0.951773 0.601495 0.662850 0.106272
C113  C     C_R   0.429915 0.419089 0.191985 0.188082
C114  C     C_R   0.405027 0.551426 0.237624 -0.101545
C115  C     C_R   0.387731 0.501672 0.304848 -0.117966
C116  C     C_R   0.392432 0.318588 0.325923 -0.100012
C117  C     C_R   0.414088 0.184643 0.279684 -0.134139
C118  C     C_R   0.433331 0.234528 0.213081 -0.166547
H55   H     H_    0.400535 0.693403 0.221564 0.090112
H56   H     H_    0.371157 0.605132 0.340817 0.105301
H57   H     H_    0.378554 0.280059 0.377838 0.110949
H58   H     H_    0.415642 0.042134 0.295415 0.103177
H59   H     H_    0.450256 0.129616 0.177726 0.103104
C119  C     C_R   0.570568 0.384765 0.812594 0.184148
C120  C     C_R   0.595558 0.504022 0.762154 -0.100165
C121  C     C_R   0.611752 0.436952 0.696784 -0.111072
C122  C     C_R   0.605094 0.249868 0.682129 -0.103798
C123  C     C_R   0.583307 0.129111 0.733212 -0.139644
C124  C     C_R   0.565554 0.196143 0.798087 -0.161930
H60   H     H_    0.600862 0.649264 0.772980 0.089766
H61   H     H_    0.628889 0.530220 0.657338 0.100503
H62   H     H_    0.617764 0.197939 0.631528 0.113869
H63   H     H_    0.580394 0.983487 0.722670 0.101587
H64   H     H_    0.548204 0.101438 0.837094 0.106269

loop_
_geom_bond_atom_site_label_1
_geom_bond_atom_site_label_2
_geom_bond_distance
_ccdc_geom_bond_type
C104  H47   1.082398 S    
C34   C38   1.413732 A    
C94   H39   1.083497 S    
C99   H43   1.080891 S    
C120  C121  1.397412 A    
C25   C29   1.427541 A    
O1    C5    1.331268 A    
C67   C68   1.394974 A    
O19   V1    1.764595 S    
O13   V1    1.837072 S    
C49   C50   1.247477 T    
O3    C7    1.331278 A    
C72   C73   1.396485 A    
C92   H37   1.081240 S    
C103  C104  1.396442 A    
O15   V3    1.837092 S    
C80   C81   1.398164 A    
C98   C99   1.399152 A    
C91   C92   1.398726 A    
C61   H7    1.078081 S    
C105  C106  1.397527 A    
C79   H26   1.082045 S    
O7    C3    1.346672 A    
C5    C16   1.486850 S    
C21   C33   1.411867 A    
C66   H11   1.083176 S    
C117  H58   1.080097 S    
C77   C78   1.403727 A    
C78   H25   1.083446 S    
O9    V1    2.009295 S    
C36   C95   1.484261 S    
C14   C18   1.391598 A    
C85   H31   1.081743 S    
C96   C97   1.396720 A    
C38   C107  1.487047 S    
C73   H17   1.078080 S    
O4    C8    1.335015 A    
C41   C45   1.248196 T    
C102  C103  1.397809 A    
C58   H5    1.083223 S    
C108  C109  1.397418 A    
O1    V3    1.997558 S    
C111  C112  1.396489 A    
O2    V4    1.997558 S    
C18   C22   1.410919 A    
C17   H21   1.083171 S    
C60   H6    1.083220 S    
O3    V1    1.997571 S    
C109  C110  1.396955 A    
C66   C67   1.396813 A    
C62   H8    1.081081 S    
C74   C75   1.397724 A    
C105  H48   1.080095 S    
C77   C82   1.403267 A    
C1    O15   1.344463 A    
C89   C90   1.403705 A    
C2    O16   1.341572 A    
C121  H61   1.081041 S    
C46   C50   1.480180 S    
C101  C106  1.404607 A    
C45   C49   1.479968 S    
C69   H14   1.079389 S    
O14   V2    1.837073 S    
C114  C115  1.397813 A    
C16   C20   1.391617 A    
C27   C31   1.427533 A    
C57   H4    1.079390 S    
C3    C42   1.505885 S    
C53   C54   1.405262 A    
C84   C85   1.396736 A    
C59   C60   1.404791 A    
C70   H15   1.083223 S    
O11   C7    1.338800 A    
C116  C117  1.396595 A    
C93   C94   1.396677 A    
O12   C8    1.335332 A    
C91   H36   1.082030 S    
C22   C34   1.412287 A    
C55   H2    1.077786 S    
O10   V2    2.009295 S    
C11   C65   1.480834 S    
C123  H63   1.079439 S    
C73   C74   1.394616 A    
C63   H9    1.078990 S    
C24   C36   1.412266 A    
O5    V1    1.870630 S    
C102  H45   1.083047 S    
C9    C29   1.435951 A    
C71   C76   1.402199 A    
C84   H30   1.083319 S    
O7    V3    1.870660 S    
C119  C120  1.405380 A    
C11   C31   1.435943 A    
C113  C114  1.405313 A    
O8    V4    1.870663 S    
C101  C102  1.405314 A    
C12   C16   1.408499 A    
C108  H50   1.082649 S    
C87   C88   1.396656 A    
C107  C112  1.403575 A    
C62   C63   1.397723 A    
C123  C124  1.396495 A    
C83   C84   1.403473 A    
C15   C19   1.393648 A    
O6    C2    1.349436 A    
C34   C83   1.484249 S    
C122  C123  1.397022 A    
O11   V3    2.009267 S    
C20   H24   1.083266 S    
C99   C100  1.396645 A    
C57   C58   1.395858 A    
C117  C118  1.397527 A    
C44   C48   1.248248 T    
C95   C96   1.403575 A    
C11   C15   1.408092 A    
C51   C52   1.247476 T    
C110  C111  1.397023 A    
O2    C6    1.335022 A    
C56   H3    1.081915 S    
C12   C32   1.438214 A    
C86   H32   1.081009 S    
C4    C41   1.505780 S    
C65   C66   1.405261 A    
C96   H40   1.083413 S    
C21   C25   1.418230 A    
O8    C4    1.349440 A    
C31   C40   1.426544 A    
C8    C13   1.486563 S    
C32   C39   1.429179 A    
O9    C5    1.338822 A    
C68   H13   1.081918 S    
C71   C72   1.404790 A    
C10   C59   1.478184 S    
C93   H38   1.080904 S    
C90   C91   1.397003 A    
C33   C37   1.414972 A    
C72   H16   1.083221 S    
C95   C100  1.402682 A    
C88   H34   1.083441 S    
C122  H62   1.082379 S    
O6    V2    1.870632 S    
C82   H29   1.083516 S    
C10   C30   1.438226 A    
C119  C124  1.403580 A    
C12   C71   1.478187 S    
C124  H64   1.083188 S    
C25   C26   1.427976 A    
C55   C56   1.394974 A    
C37   C101  1.487453 S    
C90   H35   1.083416 S    
C79   C80   1.398742 A    
C19   H23   1.083178 S    
C104  C105  1.396594 A    
C18   H22   1.083266 S    
C81   C82   1.396672 A    
O16   V4    1.837091 S    
C67   H12   1.077789 S    
C40   C119  1.487039 S    
C59   C64   1.402201 A    
C3    O13   1.344460 A    
C10   C14   1.408481 A    
O17   V3    1.764592 S    
C113  C118  1.404609 A    
O5    C1    1.346666 A    
C56   C57   1.397077 A    
C87   H33   1.080828 S    
C54   H1    1.083174 S    
C23   C27   1.418238 A    
C86   C87   1.399052 A    
C76   H20   1.083106 S    
C75   C76   1.395289 A    
C115  H56   1.080819 S    
O18   V4    1.764594 S    
C30   C37   1.429155 A    
O12   V4    2.009267 S    
C7    C14   1.486839 S    
C103  H46   1.080822 S    
C22   C26   1.419079 A    
C35   C39   1.414957 A    
C36   C40   1.413712 A    
C97   C98   1.398005 A    
O10   C6    1.335329 A    
C97   H41   1.081849 S    
C89   C94   1.403242 A    
C118  H59   1.083070 S    
C1    C44   1.505880 S    
C100  H44   1.083536 S    
C27   C28   1.427973 A    
C26   C30   1.429120 A    
C2    C43   1.505777 S    
C80   H27   1.081255 S    
C114  H55   1.083048 S    
C33   C77   1.484886 S    
C47   C51   1.479962 S    
C54   C55   1.396813 A    
C9    C53   1.480830 S    
C61   C62   1.394617 A    
C42   C46   1.248251 T    
C75   H19   1.078991 S    
C53   C58   1.402889 A    
C78   C79   1.396994 A    
C39   C113  1.487453 S    
C6    C15   1.486560 S    
C106  H49   1.083067 S    
O20   V2    1.764594 S    
C63   C64   1.395287 A    
C83   C88   1.402650 A    
C112  H54   1.083195 S    
C65   C70   1.402896 A    
C120  H60   1.082660 S    
C43   C47   1.248195 T    
C109  H51   1.081062 S    
C13   C17   1.393633 A    
C68   C69   1.397075 A    
C9    C13   1.408088 A    
C81   H28   1.080933 S    
C85   C86   1.397967 A    
C98   H42   1.081070 S    
C23   C35   1.411866 A    
C74   H18   1.081077 S    
C116  H57   1.082399 S    
C28   C32   1.429112 A    
C24   C28   1.419106 A    
C121  C122  1.396948 A    
C29   C38   1.426566 A    
C115  C116  1.396443 A    
C48   C52   1.480178 S    
C4    O14   1.341574 A    
C69   C70   1.395857 A    
C17   C21   1.412307 A    
C92   C93   1.398144 A    
C60   C61   1.396485 A    
C110  H52   1.082377 S    
C19   C23   1.412297 A    
C64   H10   1.083107 S    
C111  H53   1.079439 S    
O4    V2    1.997576 S    
C107  C108  1.405391 A    
C20   C24   1.410908 A    
C35   C89   1.484891 S    
