data_mof_unit_55832.cif
_audit_creation_date              2012-12-11T15:42:45-0500
_audit_creation_method            fapswitch 2.2
_symmetry_space_group_name_H-M    P1
_symmetry_Int_Tables_number       1
_space_group_crystal_system       triclinic
_cell_length_a                    6.945243
_cell_length_b                    14.564972
_cell_length_c                    16.224201
_cell_angle_alpha                 90.366851
_cell_angle_beta                  90.068995
_cell_angle_gamma                 90.228815
_cell_volume                      1641.14790958

loop_
_atom_site_label
_atom_site_type_symbol
_atom_type_description
_atom_site_fract_x
_atom_site_fract_y
_atom_site_fract_z
_atom_type_partial_charge
O1    O     O_R   0.505810 0.583360 0.413880 -0.544723
O2    O     O_R   0.175870 0.595480 0.585520 -0.549140
O3    O     O_R   0.005540 0.416640 0.586120 -0.545806
C1    C     C_R   0.345538 0.616303 0.615560 0.747281
O4    O     O_R   0.176100 0.594390 0.414490 -0.534573
O5    O     O_R   0.005770 0.415540 0.413870 -0.512328
C2    C     C_R   0.344523 0.614265 0.384252 0.771070
O6    O     O_R   0.505580 0.584460 0.586130 -0.527425
O7    O     O_3   0.339190 0.441320 0.500000 -0.349592
V1    V     V_3+5 0.064350 0.510890 0.500000 1.500298
O8    O     O_R   0.676050 0.404520 0.414480 -0.507640
C3    C     C_R   0.844920 0.381584 0.386117 0.785105
O9    O     O_R   0.675830 0.405610 0.585510 -0.524417
C4    C     C_R   0.844795 0.381550 0.612119 0.723421
V2    V     V_3+5 0.564340 0.489110 0.500000 1.544508
O10   O     O_3   0.839370 0.558680 0.500000 -0.382278
C5    C     C_2   0.721131 0.207132 0.785610 -0.243590
C6    C     C_2   0.886969 0.177869 0.819586 -0.363081
H1    H     H_    0.585887 0.183973 0.812036 0.147547
H2    H     H_    0.024978 0.198226 0.794544 0.139209
C7    C     C_2   0.705545 0.267620 0.711403 0.456666
C8    C     C_2   0.857954 0.314785 0.680638 -0.388498
H3    H     H_    0.000209 0.306170 0.706659 0.108863
C9    C     C_R   0.037074 0.201935 0.235388 -0.296135
H4    H     H_    0.169443 0.164163 0.226176 0.206572
C10   C     C_R   0.026308 0.264177 0.301364 0.609480
C11   C     C_R   0.855330 0.313292 0.317183 -0.383200
C12   C     C_R   0.695902 0.298132 0.264963 0.505575
C13   C     C_R   0.707430 0.237011 0.197800 0.344668
C14   C     C_R   0.878381 0.186519 0.183296 -0.334204
C15   C     C_R   0.195706 0.733249 0.709331 -0.328002
H5    H     H_    0.060868 0.719862 0.678183 0.202475
C16   C     C_R   0.204174 0.800508 0.772342 0.411031
C17   C     C_R   0.376583 0.812078 0.818515 -0.329242
C18   C     C_R   0.538024 0.759278 0.796946 0.473402
C19   C     C_R   0.530850 0.695341 0.732180 0.334305
C20   C     C_R   0.358588 0.682577 0.686258 -0.281751
C21   C     C_R   0.184942 0.713230 0.275276 0.368798
C22   C     C_R   0.199221 0.790098 0.223553 0.337868
C23   C     C_R   0.377285 0.812460 0.186412 -0.363713
C24   C     C_R   0.541394 0.766496 0.214457 0.577036
C25   C     C_R   0.530838 0.706069 0.280984 -0.327290
H6    H     H_    0.661139 0.677879 0.305712 0.221416
C26   C     C_R   0.353009 0.678891 0.313269 -0.320153
O11   O     O_R   0.230120 0.912300 0.917180 -0.514992
O12   O     O_R   0.559740 0.902430 0.088770 -0.496922
O13   O     O_R   0.729930 0.081310 0.089370 -0.527536
C27   C     C_R   0.390365 0.880901 0.118067 0.781667
O14   O     O_R   0.559840 0.901330 0.917750 -0.504054
O15   O     O_R   0.730030 0.080210 0.917120 -0.555944
C28   C     C_R   0.390056 0.879720 0.888262 0.778695
O16   O     O_R   0.230020 0.913400 0.089430 -0.527587
O17   O     O_3   0.396460 0.055470 0.003290 -0.398573
V3    V     V_3+5 0.671360 0.985960 0.003250 1.584723
O18   O     O_R   0.059740 0.091300 0.917690 -0.555909
C29   C     C_R   0.891316 0.112855 0.889250 0.737318
O19   O     O_R   0.059640 0.092400 0.088720 -0.551713
C30   C     C_R   0.890329 0.116474 0.116000 0.731461
V4    V     V_3+5 0.171350 0.007820 0.003190 1.492387
O20   O     O_3   0.896380 0.938200 0.003220 -0.325463
O21   O     O_3   0.041026 0.849415 0.795185 -0.511158
C31   C     C_3   0.956677 0.897025 0.728402 0.208145
H7    H     H_    0.817889 0.925243 0.751056 0.142014
H8    H     H_    0.918161 0.851432 0.675838 0.098367
C32   C     C_3   0.081838 0.977754 0.699658 -0.405213
H9    H     H_    0.120484 0.021826 0.753312 0.197337
H10   H     H_    0.216976 0.951729 0.671495 0.179930
C33   C     C_3   0.974325 0.034954 0.636066 -0.844621
H11   H     H_    0.941957 0.992629 0.580630 0.236816
H12   H     H_    0.063907 0.094255 0.617358 0.230395
H13   H     H_    0.837492 0.061325 0.662241 0.233201
F1    F     F_    0.704884 0.768166 0.839781 -0.652552
O22   O     O_3   0.699372 0.650888 0.711125 -0.557972
C34   C     C_3   0.707596 0.564158 0.749717 0.140703
H14   H     H_    0.791691 0.519617 0.708199 0.138723
H15   H     H_    0.563892 0.530647 0.757477 0.080844
C35   C     C_3   0.814688 0.569439 0.832291 -0.268122
H16   H     H_    0.943679 0.614323 0.826203 0.244208
H17   H     H_    0.718366 0.598979 0.880104 0.220698
C36   C     C_3   0.879494 0.474428 0.860061 -0.891376
H18   H     H_    0.753869 0.427433 0.865562 0.244531
H19   H     H_    0.952052 0.480001 0.920792 0.237915
H20   H     H_    0.983609 0.445100 0.815261 0.238106
O23   O     O_3   0.004978 0.675519 0.289474 -0.553083
C37   C     C_3   0.993348 0.585543 0.254869 0.124642
H21   H     H_    0.881096 0.547359 0.289400 0.122026
H22   H     H_    0.128272 0.545151 0.261484 0.110063
C38   C     C_3   0.934973 0.587170 0.163814 -0.262911
H23   H     H_    0.793624 0.621027 0.157059 0.255401
H24   H     H_    0.044052 0.625643 0.127617 0.204927
C39   C     C_3   0.916407 0.489955 0.129169 -0.900943
H25   H     H_    0.055203 0.452996 0.134500 0.241471
H26   H     H_    0.874503 0.492886 0.063304 0.240551
H27   H     H_    0.803402 0.451634 0.163066 0.240912
O24   O     O_3   0.035243 0.839162 0.206011 -0.493767
C40   C     C_3   0.031033 0.920613 0.254217 0.224997
H28   H     H_    0.947088 0.971765 0.219137 0.127533
H29   H     H_    0.176324 0.951676 0.264785 0.039696
C41   C     C_3   0.928697 0.904561 0.336512 -0.307208
H30   H     H_    0.786436 0.871817 0.325122 0.227883
H31   H     H_    0.015910 0.857950 0.375425 0.186509
C42   C     C_3   0.897973 0.994880 0.382855 -0.875353
H32   H     H_    0.038678 0.027240 0.398305 0.247545
H33   H     H_    0.818219 0.981468 0.440783 0.235572
H34   H     H_    0.812045 0.043057 0.344941 0.235237
F2    F     F_    0.711793 0.779286 0.176848 -0.638952
O25   O     O_3   0.523524 0.282921 0.678903 -0.564079
C43   C     C_3   0.452964 0.202552 0.639459 0.058925
H35   H     H_    0.294369 0.209736 0.634912 0.139739
H36   H     H_    0.479774 0.138893 0.675377 0.094503
C44   C     C_3   0.534326 0.193127 0.551834 -0.285866
H37   H     H_    0.501023 0.256017 0.516239 0.241145
H38   H     H_    0.693251 0.185194 0.554524 0.170041
C45   C     C_3   0.448532 0.110231 0.506811 -0.794724
H39   H     H_    0.479382 0.046200 0.541173 0.216322
H40   H     H_    0.513010 0.104574 0.444394 0.243664
H41   H     H_    0.290403 0.118249 0.499944 0.243380
F3    F     F_    0.182420 0.274036 0.351100 -0.628143
F4    F     F_    0.529590 0.345041 0.276856 -0.637841
O26   O     O_3   0.547190 0.225852 0.147901 -0.542395
C46   C     C_3   0.564781 0.281033 0.076584 0.134412
H42   H     H_    0.552238 0.235482 0.021638 0.134705
H43   H     H_    0.705351 0.318139 0.070894 0.074567
C47   C     C_3   0.400342 0.350499 0.074743 -0.279041
H44   H     H_    0.260223 0.313415 0.077397 0.199345
H45   H     H_    0.411175 0.396580 0.129395 0.235799
C48   C     C_3   0.406500 0.408657 0.996862 -0.878543
H46   H     H_    0.542810 0.448654 0.994436 0.244598
H47   H     H_    0.284133 0.457476 0.997174 0.242911
H48   H     H_    0.395006 0.364283 0.941102 0.235541

loop_
_geom_bond_atom_site_label_1
_geom_bond_atom_site_label_2
_ccdc_geom_bond_type
O18   C29   A    
O18   V4    S    
O22   C34   S    
O24   C40   S    
C1    O6    A    
C45   H39   S    
O17   V4    S    
V3    O20   S    
C37   H21   S    
C12   C13   A    
C10   C11   A    
C31   H7    S    
C34   H15   S    
C19   C20   A    
C9    C10   A    
O5    C3    A    
C21   C22   A    
O19   V4    S    
O11   C28   A    
V2    O10   S    
C40   C41   S    
C43   H35   S    
C42   H34   S    
C17   C18   A    
C24   C25   A    
C46   C47   S    
C31   H8    S    
O8    V2    S    
C18   C19   A    
C33   H11   S    
C32   H10   S    
C34   C35   S    
C40   H29   S    
O25   C43   S    
C15   C16   A    
O1    V2    S    
O7    V1    S    
C31   C32   S    
C6    C29   S    
C38   H23   S    
C35   H17   S    
V4    O20   S    
O9    C4    A    
O21   C31   S    
C25   C26   A    
C36   H20   S    
C16   C17   A    
C37   H22   S    
C13   O26   S    
O12   C27   A    
C24   F2    S    
C3    C11   S    
C9    H4    S    
C36   H19   S    
C34   H14   S    
C39   H25   S    
O4    C2    A    
O14   C28   A    
C35   H16   S    
O15   C29   A    
C15   C20   A    
O2    C1    A    
C48   H47   S    
C21   C26   A    
C13   C14   A    
O16   V4    S    
C39   H26   S    
C15   H5    S    
C38   C39   S    
C32   C33   S    
C40   H28   S    
O12   V3    S    
C5    C6    D    
C17   C28   S    
C44   H38   S    
O15   V3    S    
C2    C26   S    
O23   C37   S    
C42   H33   S    
C22   O24   S    
C46   H42   S    
C7    O25   S    
O3    C4    A    
O13   V3    S    
C16   O21   S    
C23   C24   A    
C41   H31   S    
C38   H24   S    
C18   F1    S    
O6    V2    S    
C47   C48   S    
C25   H6    S    
C48   H46   S    
O2    V1    S    
C22   C23   A    
O26   C46   S    
C47   H45   S    
C37   C38   S    
C23   C27   S    
O11   V4    S    
C44   H37   S    
C21   O23   S    
O1    C2    A    
C10   F3    S    
C36   H18   S    
C12   F4    S    
O5    V1    S    
C45   H40   S    
O8    C3    A    
O17   V3    S    
C43   C44   S    
C4    C8    S    
O9    V2    S    
O7    V2    S    
C48   H48   S    
O4    V1    S    
O3    V1    S    
V1    O10   S    
C41   H30   S    
O13   C30   A    
C35   C36   S    
O19   C30   A    
C33   H13   S    
C14   C30   S    
C5    H1    S    
C43   H36   S    
C44   C45   S    
C6    H2    S    
C42   H32   S    
C9    C14   A    
C46   H43   S    
C45   H41   S    
C19   O22   S    
C27   O16   A    
C41   C42   S    
C1    C20   S    
C33   H12   S    
C32   H9    S    
C11   C12   A    
C8    H3    S    
C7    C8    D    
O14   V3    S    
C47   H44   S    
C39   H27   S    
C5    C7    S    
