data_mof_unit_50431.cif
_audit_creation_date              2012-12-11T20:21:50-0500
_audit_creation_method            fapswitch 2.2
_symmetry_space_group_name_H-M    P1
_symmetry_Int_Tables_number       1
_space_group_crystal_system       triclinic
_cell_length_a                    8.258138
_cell_length_b                    17.418468
_cell_length_c                    26.938281
_cell_angle_alpha                 99.397637
_cell_angle_beta                  93.36779
_cell_angle_gamma                 80.664627
_cell_volume                      3770.20447969

loop_
_atom_site_label
_atom_site_type_symbol
_atom_type_description
_atom_site_fract_x
_atom_site_fract_y
_atom_site_fract_z
_atom_type_partial_charge
Ba1   Ba    Ba6+2 0.860160 0.462360 0.521850 1.478064
Ba2   Ba    Ba6+2 0.329680 0.537570 0.478140 1.463449
C1    C     C_3   0.774470 0.172965 0.651421 -0.352537
C2    C     C_3   0.707836 0.251800 0.634599 0.132978
C3    C     C_3   0.416935 0.743207 0.637462 0.700538
C4    C     C_3   0.355642 0.828865 0.631358 -0.235001
C5    C     C_3   0.927905 0.766412 0.352690 0.242487
C6    C     C_3   0.949634 0.778654 0.298504 0.324396
C7    C     C_3   0.482296 0.747923 0.369556 -1.507412
C8    C     C_3   0.490356 0.816056 0.341096 0.285333
C9    C     C_R   0.019933 0.436243 0.177200 0.517283
C10   C     C_R   0.856425 0.562485 0.175130 0.524472
C11   C     C_2   0.739725 0.543514 0.273672 0.097462
C12   C     C_3   0.202010 0.229026 0.649825 0.378198
C13   C     C_3   0.726482 0.575525 0.328891 -0.228046
C14   C     C_1   0.981565 0.486909 0.342154 0.005708
C15   C     C_2   0.018599 0.482375 0.293944 -0.238045
C16   C     C_2   0.888134 0.508598 0.255665 0.176223
C17   C     C_R   0.993392 0.493399 0.099185 -0.034332
C18   C     C_R   0.061238 0.432463 0.126407 -0.080108
C19   C     C_R   0.169103 0.368605 0.102261 -0.037046
C20   C     C_R   0.881941 0.556898 0.122902 -0.025132
C21   C     C_2   0.844052 0.528274 0.361260 -0.261927
C22   C     C_2   0.355575 0.484067 0.641467 -0.280017
C23   C     C_3   0.124013 0.268800 0.699656 -0.610804
C24   C     C_R   0.178824 0.420249 0.971979 0.027869
C25   C     C_R   0.024602 0.553638 0.972194 0.038218
C26   C     C_R   0.123327 0.485944 0.946882 0.055484
C27   C     C_R   0.267805 0.352288 0.944019 -0.163339
C28   C     C_R   0.304164 0.349876 0.893889 -0.146820
C29   C     C_R   0.255438 0.415359 0.869328 0.063369
C30   C     C_R   0.166164 0.483791 0.895873 -0.033930
C31   C     C_R   0.119665 0.550018 0.871447 -0.125352
C32   C     C_R   0.164782 0.547254 0.821126 0.584143
C33   C     C_R   0.292834 0.413008 0.818504 0.491660
C34   C     C_3   0.217179 0.298153 0.412682 -0.181934
C35   C     C_2   0.435285 0.439170 0.723656 -0.177076
C36   C     C_3   0.457350 0.421707 0.667475 -0.103525
C37   C     C_1   0.208233 0.514755 0.658151 0.034102
C38   C     C_2   0.163817 0.510558 0.704425 -0.218845
C39   C     C_2   0.287015 0.475202 0.741522 0.186373
C40   C     C_R   0.142630 0.424365 0.023736 0.038911
C41   C     C_R   0.036165 0.490406 0.048071 0.034104
C42   C     C_R   0.971685 0.553385 0.021665 0.022911
C43   C     C_R   0.209176 0.364594 0.052262 -0.208419
C44   C     C_R   0.801474 0.613815 0.093799 -0.018229
C45   C     C_3   0.243899 0.208916 0.398698 -0.272516
C46   C     C_R   0.983565 0.619943 0.947169 -0.132885
C47   C     C_R   0.030465 0.618127 0.898056 -0.125221
C48   C     C_R   0.850028 0.612603 0.044767 -0.229004
C49   C     C_2   0.456972 0.284915 0.518130 -0.333639
C50   C     C_3   0.397483 0.238171 0.553720 -0.109548
C51   C     C_2   0.463047 0.151729 0.543049 -0.218258
C52   C     C_2   0.558697 0.120627 0.503434 0.096214
C53   C     C_2   0.617715 0.175309 0.473873 -0.279865
C54   C     C_1   0.571528 0.252229 0.485421 0.024684
C55   C     C_R   0.775713 0.862690 0.470390 -0.128392
C56   C     C_3   0.968910 0.702804 0.588703 0.300251
C57   C     C_R   0.844529 0.782599 0.466275 -0.281478
C58   C     C_R   0.615798 0.757095 0.509375 -0.003445
C59   C     C_R   0.542221 0.834795 0.510754 -0.194166
C60   C     C_R   0.620146 0.890241 0.492322 0.045100
C61   C     C_2   0.620596 0.034406 0.491591 -0.243538
C62   C     C_2   0.538708 0.975561 0.498895 -0.058246
C63   C     C_R   0.761417 0.730054 0.484607 -0.458600
C64   C     C_3   0.912038 0.790182 0.606334 -0.358741
C65   C     C_3   0.695097 0.363275 0.368684 0.218641
C66   C     C_3   0.688853 0.344491 0.311537 -0.332903
H1    H     H_    0.733800 0.247421 0.594103 0.103447
H2    H     H_    0.335653 0.190136 0.368841 0.116838
H3    H     H_    0.289261 0.181187 0.432132 0.070733
H4    H     H_    0.126302 0.188528 0.384893 0.105953
H5    H     H_    0.863363 0.675179 0.571887 0.036261
H6    H     H_    0.062861 0.696257 0.559987 0.055989
H7    H     H_    0.808396 0.798276 0.632059 0.143609
H8    H     H_    0.871943 0.820965 0.573823 0.094568
H9    H     H_    0.013733 0.817533 0.626780 0.084747
H10   H     H_    0.820412 0.373596 0.381542 0.008086
H11   H     H_    0.605554 0.417224 0.380289 0.074123
H12   H     H_    0.904674 0.153742 0.641810 0.182780
H13   H     H_    0.780130 0.291743 0.298750 0.104335
H14   H     H_    0.717333 0.394776 0.295106 0.082848
H15   H     H_    0.564144 0.332992 0.297913 0.106815
H16   H     H_    0.573818 0.262171 0.639809 -0.045721
H17   H     H_    0.703851 0.127191 0.631797 0.039111
H18   H     H_    0.318792 0.707383 0.623457 -0.037296
H19   H     H_    0.290411 0.832003 0.594453 -0.002113
H20   H     H_    0.267803 0.857069 0.661089 0.078724
H21   H     H_    0.460423 0.862289 0.634724 0.070532
H22   H     H_    0.762955 0.177314 0.692678 0.101764
H23   H     H_    0.026905 0.237169 0.709146 0.196352
H24   H     H_    0.865726 0.714271 0.351889 -0.587899
H25   H     H_    0.849754 0.820097 0.371267 0.151695
H26   H     H_    0.838089 0.817075 0.286680 -0.051675
H27   H     H_    0.052225 0.811654 0.296004 0.053685
H28   H     H_    0.608695 0.729081 0.384156 2.238053
H29   H     H_    0.403903 0.768852 0.402562 0.217990
H30   H     H_    0.553410 0.861499 0.365228 -0.209479
H31   H     H_    0.306209 0.260465 0.645999 0.094557
H32   H     H_    0.568282 0.793104 0.308098 0.110492
H33   H     H_    0.144368 0.462765 0.282631 0.201684
H34   H     H_    0.224525 0.321145 0.122182 0.143552
H35   H     H_    0.532390 0.415576 0.748427 0.172964
H36   H     H_    0.371762 0.295937 0.874353 0.158872
H37   H     H_    0.307977 0.298788 0.959396 0.114584
H38   H     H_    0.296104 0.314266 0.037365 0.119273
H39   H     H_    0.636518 0.559265 0.248531 0.092540
H40   H     H_    0.918885 0.675317 0.965248 0.102698
H41   H     H_    0.995381 0.670674 0.880828 0.175906
H42   H     H_    0.039230 0.533650 0.715781 0.192626
H43   H     H_    0.782636 0.656388 0.024132 0.120799
H44   H     H_    0.831098 0.543426 0.401681 0.089682
H45   H     H_    0.409273 0.508363 0.612754 0.098065
H46   H     H_    0.696417 0.151491 0.442294 0.144535
H47   H     H_    0.844558 0.901245 0.455914 0.049526
H48   H     H_    0.740656 0.020260 0.475962 0.132257
H49   H     H_    0.439863 0.116541 0.570434 0.179001
H50   H     H_    0.217413 0.268802 0.730763 0.220143
H51   H     H_    0.424690 0.850806 0.527520 0.113358
H52   H     H_    0.407766 0.347145 0.521931 0.150799
H53   H     H_    0.815086 0.668764 0.482555 0.110355
H54   H     H_    0.072541 0.331150 0.697335 0.236299
H55   H     H_    0.335659 0.317915 0.424444 0.163164
H56   H     H_    0.132161 0.314693 0.444360 0.222927
N1    N     N_R   0.921201 0.501761 0.201814 -0.365048
N2    N     N_R   0.248140 0.478650 0.794488 -0.350921
O1    O     O_2   0.906370 0.542040 0.619810 -0.431868
O2    O     O_3   0.656282 0.298979 0.388109 -0.583818
O3    O     O_3   0.082243 0.236666 0.610468 -0.482117
O4    O     O_2   0.283330 0.457940 0.380160 -0.429849
O5    O     O_3   0.051340 0.457960 0.440360 -0.496817
O6    O     O_3   0.503130 0.601610 0.416130 -0.541967
O7    O     O_3   0.152463 0.331692 0.370601 -0.528643
O8    O     O_3   0.616890 0.595000 0.528820 -0.444173
O9    O     O_3   0.087820 0.642040 0.442240 -0.433005
O10   O     O_2   0.184466 0.780228 0.473022 -0.474644
O11   O     O_3   0.080793 0.756178 0.378544 -0.497718
O12   O     O_3   0.138370 0.541980 0.559630 -0.488876
O13   O     O_3   0.572820 0.404940 0.471170 -0.484164
O14   O     O_2   0.345130 0.693150 0.532000 -0.477069
O15   O     O_3   0.563879 0.715090 0.611708 -0.631359
O16   O     O_2   0.404459 0.536089 0.324796 -0.459581
O17   O     O_3   0.415455 0.687634 0.337414 -0.483949
O18   O     O_2   0.071242 0.380736 0.199255 -0.558253
O19   O     O_2   0.364242 0.351788 0.795572 -0.604005
O20   O     O_2   0.781520 0.623327 0.197313 -0.541058
O21   O     O_2   0.131448 0.606469 0.801366 -0.569396
O22   O     O_3   0.686580 0.398330 0.583860 -0.454776
O23   O     O_2   0.774724 0.466238 0.675248 -0.487816
O24   O     O_3   0.034611 0.668056 0.630169 -0.608428
O25   O     O_3   0.780718 0.312817 0.663485 -0.505337
O26   O     O_2   0.844570 0.306830 0.467970 -0.454381
O27   O     O_3   0.101900 0.357890 0.557750 -0.468922
O28   O     O_2   0.079322 0.216283 0.510981 -0.474745
P1    P     P_3+3 0.071770 0.565500 0.613330 1.053326
P2    P     P_3+3 0.664870 0.318630 0.453960 1.073887
P3    P     P_3+3 0.167879 0.258232 0.557301 1.072231
P4    P     P_3+3 0.117940 0.434440 0.386660 1.097408
P5    P     P_3+3 0.048389 0.743193 0.440233 1.009922
P6    P     P_3+3 0.675662 0.402230 0.648642 1.062060
P7    P     P_3+3 0.532320 0.693724 0.546035 0.961846
P8    P     P_3+3 0.512452 0.596379 0.351263 0.795257
O29   O     O_3   0.451157 0.741861 0.689438 -0.630270
C67   C     C_3   0.458026 0.664959 0.700398 0.239488
H57   H     H_    0.332515 0.649505 0.698822 0.030386
H58   H     H_    0.508323 0.663351 0.739370 0.082852
H59   H     H_    0.539919 0.620640 0.674827 0.036881
O30   O     O_3   0.962532 0.707204 0.264526 -0.585279
C68   C     C_3   0.124085 0.666187 0.264941 0.363139
H60   H     H_    0.134498 0.615782 0.233736 0.001576
H61   H     H_    0.151176 0.641615 0.300514 0.140596
H62   H     H_    0.215854 0.703442 0.258462 0.074906
O31   O     O_3   0.332660 0.846232 0.322949 -0.516906
C69   C     C_3   0.261878 0.911906 0.356804 0.347539
H63   H     H_    0.135671 0.932242 0.342907 -0.022469
H64   H     H_    0.332615 0.961538 0.358731 0.004191
H65   H     H_    0.252389 0.896283 0.394825 0.040369
C70   C     C_R   0.655227 0.671135 0.111429 0.151402
C71   C     C_R   0.658664 0.752456 0.117485 -0.039979
C72   C     C_R   0.521069 0.805996 0.134912 -0.064078
C73   C     C_R   0.379194 0.778744 0.146042 -0.039166
C74   C     C_R   0.374238 0.697886 0.139536 -0.063424
C75   C     C_R   0.511460 0.644170 0.122135 -0.025402
H66   H     H_    0.768249 0.774197 0.109285 0.063053
H67   H     H_    0.524534 0.868641 0.139899 0.071744
H68   H     H_    0.273029 0.820279 0.159632 0.076510
H69   H     H_    0.264201 0.676828 0.148026 0.069189
H70   H     H_    0.506360 0.581623 0.117309 0.058699
O32   O     O_3   0.255500 0.147509 0.650026 -0.595060
C76   C     C_3   0.385214 0.133400 0.685602 0.162656
H71   H     H_    0.334272 0.127145 0.721709 0.069035
H72   H     H_    0.464814 0.179950 0.692618 0.040974
H73   H     H_    0.463503 0.076933 0.671499 0.050325
C77   C     C_R   0.362773 0.995047 0.512966 0.112446
C78   C     C_R   0.242645 0.023428 0.478618 -0.052116
C79   C     C_R   0.078577 0.043450 0.492021 -0.042380
C80   C     C_R   0.033470 0.036629 0.540153 -0.032076
C81   C     C_R   0.152243 0.009361 0.574809 -0.006299
C82   C     C_R   0.316469 0.989677 0.561589 -0.088726
H74   H     H_    0.276734 0.031630 0.441937 0.047306
H75   H     H_    0.987479 0.066174 0.465401 0.060119
H76   H     H_    0.907279 0.053750 0.551074 0.082520
H77   H     H_    0.117602 0.004901 0.612244 0.090287
H78   H     H_    0.408588 0.971457 0.589322 0.066391

loop_
_geom_bond_atom_site_label_1
_geom_bond_atom_site_label_2
_ccdc_geom_bond_type
C25   C46   A    
O12   P1    S    
C53   C54   D    
O15   P7    S    
C76   H71   S    
C59   H51   S    
C68   H60   S    
C44   C70   S    
C13   P8    S    
C17   C18   A    
C54   P2    S    
C34   O7    S    
O3    P3    S    
C70   C71   A    
C7    O17   S    
C12   H31   S    
C55   H47   S    
C46   H40   S    
O31   C69   S    
C50   C51   S    
C21   H44   S    
C6    H27   S    
C19   H34   S    
C27   C28   A    
C11   C16   D    
C34   C45   S    
C1    H22   S    
Ba2   O13   S    
C3    O29   S    
C67   H57   S    
C34   H56   S    
O7    P4    S    
C16   N1    S    
C33   O19   D    
C28   C29   A    
C51   H49   S    
C55   C57   A    
C1    H17   S    
C52   C61   S    
C5    H24   S    
C31   C47   A    
C10   C20   A    
C22   C37   D    
C4    H20   S    
Ba1   O26   S    
C8    H30   S    
Ba1   Ba2   S    
O22   P6    S    
C10   O20   D    
Ba1   P1    S    
C15   H33   S    
C74   C75   A    
C60   C62   S    
C6    O30   S    
C76   H73   S    
C69   H63   S    
O10   P5    D    
C57   P5    S    
C25   C42   A    
C56   C64   S    
O26   P2    D    
C76   H72   S    
C14   C15   D    
C49   H52   S    
C62   C77   S    
C22   C36   S    
C56   H6    S    
C81   C82   A    
C63   H53   S    
C7    C8    S    
O17   P8    S    
C70   C75   A    
Ba1   O13   S    
C71   H66   S    
C11   H39   S    
C8    O31   S    
C13   C21   S    
C77   C78   A    
C22   H45   S    
C23   H50   S    
O27   P3    S    
C68   H61   S    
C27   H37   S    
C59   C60   A    
C65   H10   S    
C1    H12   S    
C2    H1    S    
C17   C41   A    
C58   P7    S    
C19   C43   A    
C5    H25   S    
C9    C18   A    
C23   H23   S    
Ba2   O5    S    
O11   P5    S    
C61   C62   D    
C14   P4    S    
C65   C66   S    
Ba2   O12   S    
C55   C60   A    
C34   H55   S    
O9    P5    S    
O28   P3    D    
O1    P1    D    
C37   C38   D    
C5    O11   S    
C38   H42   S    
C10   N1    Am   
O14   P7    D    
C73   C74   A    
O32   C76   S    
C4    H19   S    
C49   C50   S    
C33   N2    Am   
C37   P1    S    
C58   C59   A    
C40   C43   A    
C49   C54   D    
Ba1   P2    S    
Ba1   O27   S    
C41   C42   A    
C45   H2    S    
C35   C36   S    
O5    P4    S    
C32   O21   D    
Ba2   O6    S    
C29   C30   A    
C2    H16   S    
C26   C30   A    
C32   N2    Am   
C64   H8    S    
C17   C20   A    
C15   C16   S    
C65   H11   S    
C80   H76   S    
Ba2   O8    S    
C18   C19   A    
C8    H32   S    
C7    H28   S    
C45   H3    S    
C69   H65   S    
C61   H48   S    
O30   C68   S    
C20   C44   A    
C58   C63   A    
C14   C21   D    
O24   P1    S    
C11   C13   S    
C82   H78   S    
C68   H62   S    
C29   C33   A    
Ba1   O12   S    
C40   C41   A    
C3    H18   S    
C1    C2    S    
C6    H26   S    
C81   H77   S    
C43   H38   S    
C24   C40   A    
C47   H41   S    
C78   H74   S    
C23   H54   S    
C42   C48   A    
C50   P3    S    
C12   O32   S    
C2    O25   S    
C52   C53   S    
C38   C39   S    
C7    H29   S    
C9    N1    Am   
C66   H15   S    
C39   N2    S    
C67   H59   S    
C3    O15   S    
Ba1   O1    S    
C79   C80   A    
Ba1   O5    S    
O16   P8    D    
C35   H35   S    
C73   H68   S    
C51   C52   D    
C53   H46   S    
C78   C79   A    
C4    H21   S    
C44   C48   A    
C24   C26   A    
Ba2   O9    S    
O8    P7    S    
C66   H13   S    
O4    P4    D    
Ba2   O14   S    
C30   C31   A    
C9    O18   D    
C67   H58   S    
C66   H14   S    
C75   H70   S    
O25   P6    S    
O6    P8    S    
C3    C4    S    
O13   P2    S    
C46   C47   A    
C64   H7    S    
C48   H43   S    
Ba2   O4    S    
C31   C32   A    
C74   H69   S    
C64   H9    S    
C12   C23   S    
C35   C39   D    
C80   C81   A    
O23   P6    D    
C69   H64   S    
C45   H4    S    
O29   C67   S    
C5    C6    S    
C72   H67   S    
O2    P2    S    
C36   P6    S    
C71   C72   A    
C77   C82   A    
C56   O24   S    
Ba2   P4    S    
C24   C27   A    
C28   H36   S    
C25   C26   A    
Ba1   O22   S    
C79   H75   S    
C65   O2    S    
C57   C63   A    
C72   C73   A    
Ba1   O8    S    
C56   H5    S    
C12   O3    S    
