data_mof_unit_54496.cif
_audit_creation_date              2012-12-10T18:06:38-0500
_audit_creation_method            fapswitch 2.2
_symmetry_space_group_name_H-M    P1
_symmetry_Int_Tables_number       1
_space_group_crystal_system       triclinic
_cell_length_a                    12.596571
_cell_length_b                    13.147665
_cell_length_c                    15.293178
_cell_angle_alpha                 83.26797
_cell_angle_beta                  98.46152
_cell_angle_gamma                 97.022875
_cell_volume                      2473.68590914

loop_
_atom_site_label
_atom_site_type_symbol
_atom_type_description
_atom_site_fract_x
_atom_site_fract_y
_atom_site_fract_z
_atom_type_partial_charge
C1    C     C_R   0.443444 0.307872 0.511366 0.924840
C2    C     C_R   0.691869 0.556933 0.928315 0.016065
C3    C     C_R   0.582648 0.568563 0.894068 0.008433
C4    C     C_R   0.436657 0.515880 0.335361 0.876066
C5    C     C_R   0.760853 0.524044 0.874821 0.478082
C6    C     C_R   0.718960 0.499511 0.788462 -0.319200
C7    C     C_R   0.542842 0.539213 0.809711 -0.234587
C8    C     C_R   0.725508 0.925883 0.569912 -0.187319
C9    C     C_R   0.596179 0.798541 0.500474 -0.051321
C10   C     C_R   0.296508 0.163648 0.490791 0.325605
C11   C     C_R   0.266196 0.058622 0.478681 0.396847
C12   C     C_R   0.466865 0.593743 0.096091 0.084744
C13   C     C_R   0.344922 0.990866 0.492723 -0.258201
C14   C     C_R   0.454863 0.024598 0.518415 -0.005050
C15   C     C_R   0.482914 0.125782 0.541075 0.001783
C16   C     C_R   0.557451 0.691434 0.491804 0.858050
C17   C     C_R   0.538121 0.960678 0.522383 0.126377
C18   C     C_R   0.644136 0.991575 0.562866 0.168592
C19   C     C_R   0.666534 0.086526 0.597119 -0.237555
C20   C     C_R   0.586994 0.152958 0.586444 -0.147235
C21   C     C_R   0.518917 0.867213 0.485646 -0.254136
C22   C     C_R   0.700969 0.828357 0.540304 -0.185082
C23   C     C_R   0.361216 0.617231 0.060864 0.180222
C24   C     C_R   0.406462 0.197483 0.517466 -0.213690
C25   C     C_R   0.138637 0.641375 0.623527 -0.292327
C26   C     C_R   0.757031 0.379001 0.396317 -0.102865
C27   C     C_R   0.852783 0.351748 0.374307 0.425695
C28   C     C_R   0.565450 0.490713 0.664243 0.862794
C29   C     C_R   0.950411 0.397762 0.414387 -0.201709
C30   C     C_R   0.952710 0.470650 0.476071 -0.078208
C31   C     C_R   0.853454 0.494669 0.496013 0.230162
C32   C     C_R   0.048993 0.520370 0.518670 0.012455
C33   C     C_R   0.044170 0.591884 0.580733 0.205057
C34   C     C_R   0.547584 0.600785 0.039619 -0.068048
C35   C     C_R   0.945206 0.613428 0.599297 -0.288556
C36   C     C_R   0.851142 0.565553 0.557117 -0.193375
C37   C     C_R   0.150778 0.502419 0.502139 -0.034168
C38   C     C_R   0.236807 0.619825 0.604274 0.007576
C39   C     C_R   0.406345 0.545154 0.240440 -0.074376
C40   C     C_R   0.609734 0.506212 0.756404 -0.097025
C41   C     C_R   0.281487 0.611113 0.116915 -0.187177
C42   C     C_R   0.304391 0.576408 0.206697 -0.170164
C43   C     C_R   0.485450 0.551955 0.184434 -0.261014
C44   C     C_R   0.513318 0.601038 0.947622 0.060256
C45   C     C_R   0.409547 0.630287 0.913146 -0.190179
C46   C     C_R   0.335777 0.641759 0.969638 -0.224272
C47   C     C_R   0.660054 0.601906 0.071067 0.371055
C48   C     C_R   0.730075 0.578643 0.015488 -0.151024
H1    H     H_    0.256272 0.662451 0.941450 0.151062
H2    H     H_    0.679689 0.344733 0.366468 0.145027
H3    H     H_    0.022412 0.374460 0.395902 0.179226
H4    H     H_    0.777616 0.585574 0.573640 0.206667
H5    H     H_    0.771632 0.475737 0.746468 0.159191
H6    H     H_    0.814694 0.576883 0.041527 0.223201
H7    H     H_    0.201118 0.631200 0.091006 0.153959
H8    H     H_    0.242299 0.573157 0.249280 0.168993
H9    H     H_    0.561198 0.521606 0.209664 0.210154
H10   H     H_    0.384213 0.645666 0.842697 0.138242
H11   H     H_    0.904556 0.492474 0.862077 0.333956
H12   H     H_    0.761731 0.775013 0.552552 0.153002
H13   H     H_    0.152252 0.199745 0.493553 0.336513
H14   H     H_    0.124247 0.075586 0.412584 0.352709
H15   H     H_    0.458101 0.539148 0.785206 0.167831
H16   H     H_    0.940372 0.667759 0.646363 0.155735
H17   H     H_    0.136484 0.695863 0.671056 0.149043
H18   H     H_    0.778109 0.255946 0.292592 0.331280
H19   H     H_    0.659346 0.679613 0.170766 0.342009
H20   H     H_    0.745978 0.110185 0.630929 0.149309
H21   H     H_    0.806440 0.948199 0.601546 0.147659
H22   H     H_    0.442401 0.843575 0.447857 0.152584
H23   H     H_    0.317025 0.911395 0.483707 0.183365
H24   H     H_    0.607522 0.225217 0.615386 0.163110
H25   H     H_    0.311353 0.656903 0.636519 0.132713
H26   H     H_    0.163311 0.450399 0.456251 0.159756
N1    N     N_R   0.239390 0.551900 0.544730 -0.106436
N2    N     N_R   0.759950 0.448600 0.455730 -0.142227
O1    O     O_R   0.374950 0.371210 0.521360 -0.542502
O2    O     O_3   0.221438 0.234206 0.475982 -0.768742
O3    O     O_3   0.162118 0.019851 0.448419 -0.759266
O4    O     O_3   0.853705 0.281060 0.314597 -0.744743
O5    O     O_3   0.705940 0.632396 0.152742 -0.761584
O6    O     O_R   0.542050 0.338030 0.492790 -0.628592
O7    O     O_R   0.368720 0.526070 0.390200 -0.610614
O8    O     O_R   0.535820 0.492890 0.361630 -0.609158
O9    O     O_R   0.457950 0.661970 0.507210 -0.615731
O10   O     O_R   0.625050 0.628790 0.478640 -0.624105
O11   O     O_R   0.464180 0.507110 0.638370 -0.620301
O12   O     O_R   0.631280 0.473930 0.609800 -0.641218
O13   O     O_3   0.868008 0.516127 0.908019 -0.784420
Zn1   Zn    Zn3+2 0.388420 0.522150 0.519080 0.965184
Zn2   Zn    Zn3+2 0.611580 0.477850 0.480920 0.935268

loop_
_geom_bond_atom_site_label_1
_geom_bond_atom_site_label_2
_ccdc_geom_bond_type
C37   H26   S    
C27   C29   A    
C1    O1    A    
C41   C42   A    
C19   C20   A    
C10   O2    S    
C45   C46   A    
C48   H6    S    
C46   H1    S    
C26   C27   A    
C9    C16   S    
C12   C43   A    
C3    C7    A    
O10   Zn2   S    
C26   H2    S    
C22   H12   S    
C30   C31   A    
C9    C22   A    
C28   C40   S    
C18   C19   A    
H11   O13   S    
C41   H7    S    
N1    Zn1   S    
C42   H8    S    
C35   C36   A    
C28   O12   A    
C26   N2    A    
C7    C40   A    
O12   Zn2   S    
C35   H16   S    
O8    Zn2   S    
C36   H4    S    
C37   N1    A    
C23   C46   A    
C13   C14   A    
C16   O10   A    
C14   C17   A    
C39   C42   A    
C38   N1    A    
C15   C20   A    
C45   H10   S    
C3    C44   A    
H14   O3    S    
C34   C44   A    
C27   O4    S    
C12   C23   A    
C39   C43   A    
C13   H23   S    
C10   C24   A    
C1    O6    A    
C8    C18   A    
O6    Zn2   S    
C29   C30   A    
C25   C38   A    
C8    C22   A    
C47   C48   A    
C4    O8    A    
C4    C39   S    
H13   O2    S    
C28   O11   A    
C17   C18   A    
C8    H21   S    
C25   H17   S    
C19   H20   S    
C32   C37   A    
C7    H15   S    
C11   O3    S    
C15   C24   A    
H19   O5    S    
C16   O9    A    
C6    C40   A    
C2    C5    A    
C6    H5    S    
C12   C34   A    
C44   C45   A    
C29   H3    S    
O7    Zn1   S    
C14   C15   A    
O9    Zn1   S    
H18   O4    S    
C23   C41   A    
C21   H22   S    
C2    C48   A    
C32   C33   A    
C2    C3    A    
C30   C32   A    
C11   C13   A    
C9    C21   A    
C31   N2    A    
C5    C6    A    
C4    O7    A    
C33   C35   A    
C47   O5    S    
C17   C21   A    
C10   C11   A    
C43   H9    S    
N2    Zn2   S    
C1    C24   S    
O11   Zn1   S    
O1    Zn1   S    
C31   C36   A    
C20   H24   S    
C34   C47   A    
C5    O13   S    
C25   C33   A    
C38   H25   S    
