data_mof_unit_51572.cif
_audit_creation_date              2012-12-11T20:03:22-0500
_audit_creation_method            fapswitch 2.2
_symmetry_space_group_name_H-M    P1
_symmetry_Int_Tables_number       1
_space_group_crystal_system       triclinic
_cell_length_a                    8.275235
_cell_length_b                    16.144977
_cell_length_c                    19.13131
_cell_angle_alpha                 112.3562
_cell_angle_beta                  91.682712
_cell_angle_gamma                 83.529635
_cell_volume                      2348.58165794

loop_
_atom_site_label
_atom_site_type_symbol
_atom_type_description
_atom_site_fract_x
_atom_site_fract_y
_atom_site_fract_z
_atom_type_partial_charge
Ba1   Ba    Ba6+2 0.334020 0.539200 0.472300 1.681810
Ba2   Ba    Ba6+2 0.855780 0.460880 0.527720 1.659291
C1    C     C_3   0.037470 0.870966 0.361814 -0.357730
C2    C     C_3   0.033019 0.779022 0.365990 0.360789
C3    C     C_3   0.049933 0.326069 0.286418 0.297081
C4    C     C_3   0.037012 0.301919 0.201643 -0.359096
C5    C     C_3   0.657015 0.264892 0.682859 0.317638
C6    C     C_3   0.656269 0.222189 0.741259 -0.289858
C7    C     C_3   0.166285 0.230490 0.668276 0.284187
C8    C     C_3   0.129210 0.144193 0.676786 0.295642
C9    C     C_R   0.536643 0.547629 0.809984 -0.112203
C10   C     C_R   0.503518 0.533684 0.733185 0.051349
C11   C     C_R   0.384103 0.424086 0.797644 -0.173830
C12   C     C_3   0.518293 0.731169 0.315969 0.347721
C13   C     C_R   0.313626 0.431723 0.732756 -0.003252
C14   C     C_R   0.801721 0.576793 0.202846 -0.164769
C15   C     C_R   0.872654 0.570456 0.268175 0.009802
C16   C     C_R   0.658710 0.449713 0.189741 -0.146348
C17   C     C_R   0.687645 0.466005 0.267180 0.053042
C18   C     C_R   0.487025 0.487711 0.843217 -0.002637
C19   C     C_R   0.385195 0.478702 0.696980 -0.238976
C20   C     C_R   0.703830 0.510584 0.156669 0.003092
C21   C     C_R   0.803126 0.522806 0.303976 -0.242689
C22   C     C_R   0.283516 0.443025 0.952046 -0.076436
C23   C     C_3   0.482855 0.759979 0.249523 -0.357024
C24   C     C_R   0.195064 0.411044 0.995212 -0.035612
C25   C     C_R   0.239807 0.426585 0.068563 -0.044898
C26   C     C_R   0.378071 0.468652 0.096001 -0.085899
C27   C     C_R   0.492005 0.480441 0.048290 0.021105
C28   C     C_R   0.440471 0.470772 0.973112 0.051097
C29   C     C_R   0.648579 0.506176 0.076563 -0.007729
C30   C     C_R   0.749589 0.526780 0.026729 0.044810
C31   C     C_R   0.699414 0.514997 0.951001 0.026548
C32   C     C_R   0.542189 0.490695 0.923058 -0.004385
C33   C     C_R   0.904605 0.557264 0.048483 -0.086418
C34   C     C_3   0.640870 0.741295 0.669473 0.313667
C35   C     C_R   0.991866 0.588846 0.004630 -0.075329
C36   C     C_R   0.950185 0.568963 0.930190 -0.060834
C37   C     C_R   0.815015 0.523753 0.902557 -0.074131
C38   C     C_2   0.402122 0.238458 0.474337 -0.282036
C39   C     C_R   0.800555 0.752136 0.518227 -0.318185
C40   C     C_2   0.247007 0.113208 0.400019 -0.131619
C41   C     C_2   0.262780 0.201672 0.427176 0.046803
C42   C     C_2   0.511648 0.185149 0.495004 -0.004185
C43   C     C_3   0.468432 0.093526 0.486474 -0.054851
C44   C     C_3   0.375717 0.048005 0.413838 0.018335
C45   C     C_3   0.660319 0.840771 0.713786 0.285351
C46   C     C_2   0.607330 0.031123 0.494296 -0.079809
C47   C     C_2   0.576500 0.969179 0.520567 -0.078614
C48   C     C_R   0.848466 0.933652 0.565507 -0.000862
C49   C     C_R   0.704954 0.903610 0.528650 -0.028893
C50   C     C_R   0.965094 0.873752 0.580755 -0.123262
C51   C     C_R   0.938395 0.783372 0.558925 0.038633
C52   C     C_R   0.680936 0.812247 0.504957 0.016088
C53   C     C_3   0.574003 0.258224 0.333442 0.316084
C54   C     C_3   0.608834 0.156120 0.297636 -0.369283
C55   C     C_3   0.143560 0.666829 0.708756 0.280038
C56   C     C_3   0.120380 0.686881 0.792858 -0.346675
H1    H     H_    0.096414 0.778817 0.417907 0.078933
H2    H     H_    0.726169 0.848208 0.766926 0.053479
H3    H     H_    0.733688 0.866312 0.680584 -0.079183
H4    H     H_    0.443723 0.276641 0.348961 -0.009487
H5    H     H_    0.649884 0.282837 0.384533 0.064598
H6    H     H_    0.528532 0.128852 0.248501 0.133828
H7    H     H_    0.587126 0.125844 0.339172 0.055415
H8    H     H_    0.737890 0.136962 0.278355 0.132788
H9    H     H_    0.274605 0.655687 0.694579 0.010985
H10   H     H_    0.087112 0.604055 0.677367 0.073139
H11   H     H_    0.164949 0.884111 0.357897 0.153430
H12   H     H_    0.174069 0.627385 0.804612 0.034273
H13   H     H_    0.988528 0.697236 0.807213 0.067608
H14   H     H_    0.903405 0.768933 0.369689 -0.078244
H15   H     H_    0.979361 0.924215 0.413337 0.066752
H16   H     H_    0.927335 0.350805 0.312590 0.005001
H17   H     H_    0.130744 0.380391 0.309220 0.077982
H18   H     H_    0.949926 0.251014 0.177475 0.141491
H19   H     H_    0.993633 0.362935 0.190059 0.053685
H20   H     H_    0.158127 0.274260 0.174029 0.139365
H21   H     H_    0.970481 0.873776 0.311468 0.109635
H22   H     H_    0.539983 0.708125 0.197081 0.072973
H23   H     H_    0.711644 0.329534 0.707782 0.084539
H24   H     H_    0.529395 0.278357 0.667446 -0.076661
H25   H     H_    0.592890 0.269645 0.793810 0.103758
H26   H     H_    0.594080 0.160075 0.718072 0.135041
H27   H     H_    0.782423 0.203941 0.755347 0.192215
H28   H     H_    0.289564 0.244190 0.690652 -0.045939
H29   H     H_    0.165110 0.218832 0.607048 -0.023084
H30   H     H_    0.213569 0.086868 0.639523 -0.008364
H31   H     H_    0.003557 0.129865 0.658737 0.061484
H32   H     H_    0.472943 0.664540 0.302339 0.077904
H33   H     H_    0.606693 0.602241 0.841581 0.098735
H34   H     H_    0.353711 0.369201 0.811938 0.079072
H35   H     H_    0.827533 0.632639 0.188664 0.070802
H36   H     H_    0.593853 0.392952 0.157589 0.082373
H37   H     H_    0.341256 0.476922 0.642658 0.057576
H38   H     H_    0.845722 0.525987 0.358857 0.064316
H39   H     H_    0.218031 0.451230 0.905821 0.059837
H40   H     H_    0.079763 0.385526 0.975485 0.106588
H41   H     H_    0.160474 0.412785 0.105856 0.088794
H42   H     H_    0.651701 0.725713 0.324087 -0.058322
H43   H     H_    0.393536 0.493514 0.155388 0.129621
H44   H     H_    0.969812 0.551752 0.095817 0.076498
H45   H     H_    0.104867 0.617052 0.024997 0.085669
H46   H     H_    0.030083 0.581863 0.892667 0.093620
H47   H     H_    0.801454 0.494642 0.842804 0.124258
H48   H     H_    0.148245 0.086860 0.362377 0.077158
H49   H     H_    0.072035 0.898598 0.612207 0.162706
H50   H     H_    0.422152 0.307861 0.486574 0.059882
H51   H     H_    0.781249 0.682028 0.501396 0.073967
H52   H     H_    0.728768 0.032664 0.475091 0.095832
H53   H     H_    0.349689 0.768423 0.241021 0.153786
H54   H     H_    0.451753 0.964957 0.533896 0.129433
H55   H     H_    0.532248 0.824883 0.260442 0.113941
H56   H     H_    0.761850 0.705988 0.647106 -0.066851
H57   H     H_    0.556827 0.734004 0.621612 0.042659
O1    O     O_2   0.405910 0.437000 0.315050 -0.469379
O2    O     O_3   0.071223 0.739444 0.691390 -0.617700
O3    O     O_3   0.439113 0.795937 0.380690 -0.604050
O4    O     O_2   0.783780 0.563030 0.685000 -0.465180
O5    O     O_3   0.539430 0.554980 0.594880 -0.500103
O6    O     O_3   0.078810 0.397510 0.612040 -0.455362
O7    O     O_3   0.580002 0.706303 0.718688 -0.605041
O8    O     O_3   0.165590 0.389880 0.444220 -0.489710
O9    O     O_3   0.681380 0.348790 0.567580 -0.480884
O10   O     O_2   0.845773 0.188838 0.488163 -0.477741
O11   O     O_3   0.750322 0.205507 0.620305 -0.594239
O12   O     O_3   0.650250 0.445090 0.405140 -0.499596
O13   O     O_3   0.024090 0.610190 0.555810 -0.505307
O14   O     O_2   0.949630 0.279650 0.426400 -0.451485
O15   O     O_3   0.113266 0.249274 0.299874 -0.636738
O16   O     O_2   0.983535 0.478212 0.749760 -0.504589
O17   O     O_3   0.049402 0.302492 0.707816 -0.584329
O18   O     O_3   0.110870 0.602570 0.387980 -0.480535
O19   O     O_2   0.206259 0.538027 0.249739 -0.507267
O20   O     O_3   0.610724 0.293771 0.280478 -0.628765
O21   O     O_3   0.111442 0.712109 0.301747 -0.595624
O22   O     O_2   0.240060 0.720390 0.573650 -0.426021
O23   O     O_3   0.508300 0.651290 0.432440 -0.494968
O24   O     O_2   0.347963 0.811050 0.513453 -0.454900
P1    P     P_3+3 0.586140 0.411610 0.321630 0.977247
P2    P     P_3+3 0.070040 0.709050 0.593050 1.025952
P3    P     P_3+3 0.494190 0.767941 0.458584 0.962951
P4    P     P_3+3 0.603540 0.588460 0.678390 1.003132
P5    P     P_3+3 0.697215 0.231934 0.541703 0.965383
P6    P     P_3+3 0.072886 0.607229 0.300318 0.930233
P7    P     P_3+3 0.125814 0.277952 0.397609 0.950637
P8    P     P_3+3 0.109111 0.400535 0.702538 0.944530
S1    S     S_3+6 0.469131 0.909449 0.736018 0.024292
O25   O     O_2   0.335079 0.854730 0.737342 -0.213759
O26   O     O_2   0.477720 0.983783 0.812366 -0.186297
O27   O     O_3   0.427214 0.954354 0.670638 -0.509538
H58   H     H_    0.505866 0.999157 0.679778 0.330246
C57   C     C_2   0.200183 0.768256 0.842013 0.997638
O28   O     O_2   0.333401 0.758246 0.868622 -0.563570
O29   O     O_R   0.123476 0.855411 0.858686 -0.630762
H59   H     H_    0.012738 0.856157 0.834780 0.294002
S2    S     S_3+6 0.154458 0.150957 0.771978 -0.010906
O30   O     O_2   0.102025 0.067536 0.777550 -0.171497
O31   O     O_2   0.330128 0.156821 0.793399 -0.277960
O32   O     O_3   0.040882 0.241573 0.832377 -0.506474
H60   H     H_    0.103058 0.293029 0.839516 0.331096

loop_
_geom_bond_atom_site_label_1
_geom_bond_atom_site_label_2
_ccdc_geom_bond_type
C46   H52   S    
C53   C54   S    
S2    O30   D    
O15   P7    S    
C6    H25   S    
O4    P4    D    
C34   O7    S    
S1    O27   S    
C33   H44   S    
C1    H21   S    
C5    C6    S    
C43   C44   S    
C42   C43   S    
C25   H41   S    
C24   C25   A    
C31   C37   A    
C26   C27   A    
C1    H11   S    
C35   C36   A    
C22   C24   A    
C6    H27   S    
C3    C4    S    
O24   P3    D    
C53   O20   S    
C56   H13   S    
C4    H20   S    
C14   C15   A    
O10   P5    D    
C54   H7    S    
C23   H22   S    
C53   H4    S    
Ba2   O14   S    
C21   H38   S    
C2    H1    S    
C34   C45   S    
Ba1   Ba2   S    
C40   C44   S    
C3    H16   S    
C12   H32   S    
C36   H46   S    
C45   H2    S    
C26   H43   S    
C38   C41   S    
C50   H49   S    
C17   P1    S    
C12   O3    S    
C53   H5    S    
C48   C50   A    
O27   H58   S    
C54   H6    S    
O16   P8    D    
Ba1   O1    S    
C57   O29   S    
C7    C8    S    
O21   P6    S    
C38   H50   S    
C18   C32   S    
Ba2   O12   S    
C34   H56   S    
S2    O31   D    
C16   C20   A    
Ba2   P4    S    
O5    P4    S    
O7    P4    S    
C55   H9    S    
Ba1   O18   S    
C48   C49   A    
O20   P1    S    
C9    C18   A    
O29   H59   S    
C20   C29   S    
C28   C32   A    
C22   H39   S    
C30   C33   A    
S1    O25   D    
C8    H31   S    
O23   P3    S    
C35   H45   S    
Ba2   O5    S    
C17   C21   A    
C16   C17   A    
C4    H19   S    
C43   C46   S    
C47   C49   S    
Ba2   O8    S    
C10   C19   A    
Ba1   O5    S    
C3    H17   S    
C15   P6    S    
Ba1   O8    S    
C27   C28   A    
C56   C57   S    
C23   H55   S    
C7    H28   S    
Ba2   O6    S    
C29   C30   A    
O8    P7    S    
C38   C42   D    
C42   P5    S    
C8    H30   S    
O6    P8    S    
C31   C32   A    
C14   H35   S    
C15   C21   A    
C4    H18   S    
C40   H48   S    
C8    S2    S    
C39   C51   A    
O14   P7    D    
Ba1   P1    S    
C24   H40   S    
C47   H54   S    
Ba1   O13   S    
C3    O15   S    
C5    H23   S    
S2    O32   S    
C11   C13   A    
C11   H34   S    
C16   H36   S    
O18   P6    S    
O12   P1    S    
C55   H10   S    
C1    C2    S    
C2    H14   S    
Ba1   O22   S    
C50   C51   A    
C33   C35   A    
C55   O2    S    
O13   P2    S    
C7    O17   S    
C37   H47   S    
O19   P6    D    
O22   P2    D    
C45   S1    S    
C46   C47   D    
C14   C20   A    
C11   C18   A    
C52   P3    S    
C6    H26   S    
O17   P8    S    
C56   H12   S    
Ba1   O12   S    
S1    O26   D    
O3    P3    S    
C45   H3    S    
C9    C10   A    
C12   H42   S    
Ba2   O9    S    
C19   H37   S    
C10   P4    S    
C2    O21   S    
C49   C52   A    
O32   H60   S    
C27   C29   A    
C41   P7    S    
C30   C31   A    
C13   P8    S    
C55   C56   S    
C36   C37   A    
C54   H8    S    
Ba2   O4    S    
O11   P5    S    
C51   P2    S    
C12   C23   S    
C5    O11   S    
C1    H15   S    
C22   C28   A    
C39   C52   A    
Ba1   P2    S    
C23   H53   S    
C9    H33   S    
C13   C19   A    
C5    H24   S    
C40   C41   D    
C25   C26   A    
O2    P2    S    
O9    P5    S    
C39   H51   S    
C57   O28   D    
C34   H57   S    
C7    H29   S    
Ba1   O23   S    
O1    P1    D    
Ba2   O13   S    
