data_mof_unit_20397.cif
_audit_creation_date              2012-12-11T15:34:33-0500
_audit_creation_method            fapswitch 2.2
_symmetry_space_group_name_H-M    P1
_symmetry_Int_Tables_number       1
_space_group_crystal_system       triclinic
_cell_length_a                    15.055672
_cell_length_b                    15.072942
_cell_length_c                    34.917789
_cell_angle_alpha                 90.477076
_cell_angle_beta                  90.037714
_cell_angle_gamma                 60.05772
_cell_volume                      6866.08617638

loop_
_atom_site_label
_atom_site_type_symbol
_atom_type_description
_atom_site_fract_x
_atom_site_fract_y
_atom_site_fract_z
_atom_type_partial_charge
C1    C     C_R   0.302576 0.608180 0.555787 0.542751
C2    C     C_R   0.212870 0.720381 0.388229 0.235247
C3    C     C_R   0.754174 0.139833 0.267135 -0.101549
C4    C     C_R   0.759786 0.133278 0.227312 -0.090934
C5    C     C_R   0.672306 0.193434 0.205092 0.038512
C6    C     C_R   0.725151 0.222106 0.349234 -0.117878
C7    C     C_R   0.708766 0.243047 0.388356 -0.118242
C8    C     C_R   0.553348 0.232665 0.384509 -0.124569
C9    C     C_R   0.745560 0.583552 0.646395 -0.128155
C10   C     C_R   0.569527 0.212297 0.345418 -0.115301
C11   C     C_R   0.653196 0.211071 0.327286 0.030659
C12   C     C_R   0.620218 0.253059 0.405965 0.023002
C13   C     C_R   0.192381 0.722052 0.349218 -0.080898
C14   C     C_R   0.086779 0.706759 0.093287 0.024165
C15   C     C_R   0.107843 0.612051 0.108288 -0.124987
C16   C     C_R   0.146882 0.584638 0.145154 -0.121260
C17   C     C_R   0.165020 0.651681 0.167529 0.033545
C18   C     C_R   0.151366 0.742657 0.151400 -0.116175
C19   C     C_R   0.112883 0.769821 0.114520 -0.123959
C20   C     C_R   0.251902 0.660540 0.227081 -0.119119
C21   C     C_3   0.134108 0.498101 0.653454 -0.283188
C22   C     C_3   0.037924 0.520806 0.631052 -0.433114
C23   C     C_3   0.804311 0.507536 0.912276 -0.276079
C24   C     C_R   0.202517 0.634762 0.330675 -0.012974
C25   C     C_3   0.749345 0.445939 0.907322 -0.450528
C26   C     C_R   0.574131 0.730804 0.648175 -0.123809
C27   C     C_R   0.246514 0.628677 0.408937 0.030339
C28   C     C_R   0.736003 0.025321 0.943261 0.540311
C29   C     C_R   0.744958 0.722569 0.945244 0.533708
C30   C     C_R   0.037481 0.734492 0.948063 0.541771
C31   C     C_R   0.723099 0.038586 0.052871 0.547109
C32   C     C_R   0.733575 0.734555 0.054788 0.545613
C33   C     C_R   0.666220 0.664756 0.666944 0.034305
C34   C     C_R   0.027866 0.744577 0.057766 0.547940
C35   C     C_R   0.558374 0.710371 0.610515 -0.134405
C36   C     C_R   0.682855 0.683189 0.785986 0.343751
C37   C     C_R   0.675681 0.673861 0.708548 0.343836
C38   C     C_R   0.742844 0.600538 0.849897 -0.098562
C39   C     C_R   0.752403 0.606553 0.889827 0.013011
C40   C     C_R   0.651053 0.792452 0.885212 -0.144260
C41   C     C_R   0.638185 0.784676 0.846283 -0.134474
C42   C     C_R   0.687607 0.689240 0.827966 0.017934
C43   C     C_R   0.611161 0.588515 0.555080 0.542897
C44   C     C_R   0.257951 0.659769 0.266829 -0.115953
C45   C     C_R   0.712593 0.704871 0.907207 0.026973
C46   C     C_R   0.723515 0.071434 0.905169 0.020995
C47   C     C_R   0.634468 0.098063 0.883947 -0.129882
C48   C     C_R   0.631643 0.117085 0.844918 -0.123122
C49   C     C_R   0.717307 0.110800 0.826469 0.030939
C50   C     C_R   0.803252 0.092537 0.848101 -0.123164
C51   C     C_R   0.806482 0.072726 0.887223 -0.128872
C52   C     C_R   0.748918 0.181194 0.766799 -0.114936
C53   C     C_R   0.742562 0.192488 0.727108 -0.111631
C54   C     C_R   0.706429 0.139510 0.704494 0.026117
C55   C     C_R   0.198139 0.631658 0.288813 0.028247
C56   C     C_R   0.590537 0.300126 0.553477 0.545612
C57   C     C_R   0.680810 0.071919 0.722144 -0.115506
C58   C     C_R   0.686465 0.061256 0.761791 -0.114079
C59   C     C_R   0.718373 0.117525 0.784452 0.024558
C60   C     C_R   0.593933 0.177537 0.647340 -0.118322
C61   C     C_R   0.565917 0.215824 0.610425 -0.124511
C62   C     C_R   0.724582 0.218880 0.603872 -0.122858
C63   C     C_R   0.752716 0.180282 0.640780 -0.119177
C64   C     C_R   0.685987 0.162707 0.663331 0.031759
C65   C     C_R   0.629216 0.240486 0.588896 0.021909
C66   C     C_R   0.135395 0.600225 0.270678 -0.107274
C67   C     C_R   0.088075 0.699660 0.910315 0.020623
C68   C     C_R   0.299680 0.610550 0.446072 0.567218
C69   C     C_R   0.110457 0.764685 0.888863 -0.124858
C70   C     C_R   0.131061 0.747520 0.849781 -0.121368
C71   C     C_R   0.131272 0.664259 0.831505 0.030070
C72   C     C_R   0.118162 0.593957 0.853387 -0.117445
C73   C     C_R   0.096248 0.611738 0.892533 -0.125614
C74   C     C_R   0.208062 0.564007 0.771216 -0.112427
C75   C     C_R   0.216802 0.559004 0.731327 -0.118157
C76   C     C_R   0.153171 0.644927 0.709083 0.023095
C77   C     C_R   0.128452 0.602016 0.230904 -0.106639
C78   C     C_R   0.080558 0.735770 0.727261 -0.113185
C79   C     C_R   0.072836 0.741237 0.767097 -0.108073
C80   C     C_R   0.607951 0.589834 0.445320 0.539881
C81   C     C_R   0.137434 0.655842 0.789379 0.030980
C82   C     C_R   0.199477 0.714279 0.653862 -0.132973
C83   C     C_R   0.235151 0.706943 0.616595 -0.129745
C84   C     C_R   0.212002 0.561339 0.604798 -0.109029
C85   C     C_R   0.173030 0.569564 0.642079 0.026796
C86   C     C_R   0.172133 0.643840 0.667531 0.035501
C87   C     C_R   0.245746 0.627902 0.592215 0.007155
C88   C     C_R   0.185147 0.634157 0.208825 0.028878
C89   C     C_R   0.692830 0.719649 0.091060 0.020428
C90   C     C_R   0.601859 0.799424 0.107050 -0.118791
C91   C     C_R   0.575104 0.793645 0.144855 -0.071972
C92   C     C_R   0.587892 0.302796 0.443796 0.544336
C93   C     C_R   0.639379 0.708562 0.167184 0.059251
C94   C     C_R   0.725712 0.625610 0.150328 -0.117130
C95   C     C_R   0.752151 0.630932 0.112570 -0.125149
C96   C     C_R   0.620109 0.622658 0.224067 -0.165539
C97   C     C_R   0.619218 0.611233 0.263540 -0.133136
C98   C     C_R   0.619347 0.684780 0.288338 -0.015116
C99   C     C_R   0.224019 0.548272 0.351931 -0.138882
C100  C     C_R   0.616529 0.771927 0.273227 -0.076204
C101  C     C_R   0.618982 0.783260 0.233598 0.247873
C102  C     C_R   0.621914 0.707396 0.208666 0.032215
C103  C     C_R   0.553605 0.742330 0.354787 -0.111297
C104  C     C_R   0.634765 0.623980 0.591060 0.023497
C105  C     C_R   0.552239 0.719966 0.393441 -0.111869
C106  C     C_R   0.701430 0.552241 0.383245 -0.124493
C107  C     C_R   0.701814 0.574132 0.344609 -0.117163
C108  C     C_R   0.625995 0.667923 0.329918 0.027496
C109  C     C_R   0.624105 0.623320 0.407717 0.018332
C110  C     C_R   0.245668 0.545268 0.390748 -0.165294
C111  C     C_R   0.699746 0.100282 0.088177 0.022026
C112  C     C_R   0.774079 0.119165 0.104533 -0.126091
C113  C     C_R   0.761962 0.156626 0.141906 -0.124738
C114  C     C_R   0.675435 0.175701 0.163429 0.035650
C115  C     C_R   0.597087 0.165345 0.145917 -0.094751
C116  C     C_R   0.730150 0.563566 0.608739 -0.130407
C117  C     C_R   0.609007 0.128197 0.108536 -0.115263
C118  C     C_R   0.579953 0.262489 0.223327 -0.110208
C119  C     C_R   0.574255 0.268603 0.263131 -0.108455
C120  C     C_R   0.660867 0.206008 0.285285 0.031405
Cl1   Cl    Cl    0.628188 0.888345 0.216774 -0.635706
Cl2   Cl    Cl    0.198694 0.834033 0.408780 -0.600198
Cr1   Cr    Cr6+3 0.421670 0.426920 0.499620 1.012148
Cr2   Cr    Cr6+3 0.427030 0.651190 0.500980 1.059768
Cr3   Cr    Cr6+3 0.651280 0.421870 0.499380 1.017713
Cr4   Cr    Cr6+3 0.910810 0.908010 0.001130 1.009585
Cr5   Cr    Cr6+3 0.682800 0.909890 0.998370 1.011227
Cr6   Cr    Cr6+3 0.908370 0.682300 0.002180 1.006745
H1    H     H_    0.791102 0.497202 0.594291 0.130351
H2    H     H_    0.491992 0.231590 0.599676 0.129102
H3    H     H_    0.870000 0.087767 0.834360 0.102043
H4    H     H_    0.484323 0.758633 0.597525 0.127099
H5    H     H_    0.775429 0.236286 0.587809 0.128097
H6    H     H_    0.105193 0.832896 0.901622 0.127212
H7    H     H_    0.079290 0.560273 0.908245 0.125117
H8    H     H_    0.275084 0.489026 0.717812 0.110173
H9    H     H_    0.258768 0.497532 0.787934 0.106569
H10   H     H_    0.142844 0.801629 0.833459 0.107732
H11   H     H_    0.031633 0.803099 0.710608 0.112153
H12   H     H_    0.876229 0.052317 0.902806 0.123370
H13   H     H_    0.016907 0.812486 0.780596 0.112823
H14   H     H_    0.198520 0.772048 0.672818 0.114222
H15   H     H_    0.260430 0.759492 0.607730 0.133793
H16   H     H_    0.118459 0.528978 0.839771 0.108700
H17   H     H_    0.218325 0.501055 0.585892 0.122577
H18   H     H_    0.554180 0.868474 0.091081 0.124741
H19   H     H_    0.822337 0.567934 0.101040 0.127442
H20   H     H_    0.759255 0.516416 0.325853 0.110668
H21   H     H_    0.619969 0.544086 0.274793 0.122774
H22   H     H_    0.622521 0.563636 0.205435 0.113625
H23   H     H_    0.824952 0.167716 0.652205 0.104473
H24   H     H_    0.506783 0.857321 0.157195 0.142107
H25   H     H_    0.617281 0.828687 0.292264 0.144522
H26   H     H_    0.817983 0.532528 0.659951 0.124743
H27   H     H_    0.494771 0.815314 0.343891 0.122269
H28   H     H_    0.491720 0.776176 0.411641 0.150570
H29   H     H_    0.775843 0.558875 0.167054 0.107293
H30   H     H_    0.757687 0.477045 0.393294 0.130652
H31   H     H_    0.844315 0.099467 0.089325 0.123190
H32   H     H_    0.550188 0.114888 0.096621 0.130430
H33   H     H_    0.514359 0.201712 0.329010 0.116878
H34   H     H_    0.761424 0.246262 0.714336 0.112553
H35   H     H_    0.502060 0.322034 0.276664 0.108934
H36   H     H_    0.511850 0.310457 0.206802 0.102283
H37   H     H_    0.511850 0.794535 0.663262 0.130457
H38   H     H_    0.822462 0.165967 0.154623 0.099409
H39   H     H_    0.821745 0.090946 0.283769 0.114598
H40   H     H_    0.831484 0.078009 0.213971 0.113838
H41   H     H_    0.790422 0.221077 0.335738 0.107304
H42   H     H_    0.761782 0.258157 0.404180 0.131570
H43   H     H_    0.529843 0.178891 0.161955 0.123801
H44   H     H_    0.484791 0.239187 0.397297 0.130515
H45   H     H_    0.773702 0.225229 0.783818 0.107996
H46   H     H_    0.089670 0.561315 0.092297 0.122902
H47   H     H_    0.097906 0.843058 0.103607 0.127739
H48   H     H_    0.171769 0.790598 0.332977 0.144212
H49   H     H_    0.778524 0.526249 0.835876 0.128744
H50   H     H_    0.308751 0.681846 0.280490 0.116070
H51   H     H_    0.297487 0.684083 0.210651 0.105525
H52   H     H_    0.158654 0.513183 0.156785 0.101425
H53   H     H_    0.089110 0.577961 0.287329 0.112890
H54   H     H_    0.075101 0.582921 0.217580 0.112955
H55   H     H_    0.230899 0.480587 0.338020 0.116723
H56   H     H_    0.563717 0.133290 0.828818 0.105773
H57   H     H_    0.269163 0.474370 0.405747 0.138902
H58   H     H_    0.163809 0.796262 0.168139 0.105798
H59   H     H_    0.617520 0.868750 0.897488 0.139699
H60   H     H_    0.593990 0.854390 0.830205 0.131398
H61   H     H_    0.569055 0.098286 0.896940 0.125261
H62   H     H_    0.976323 0.601062 0.636377 0.167156
H63   H     H_    0.054385 0.508798 0.599862 0.148344
H64   H     H_    0.010293 0.468587 0.640507 0.134252
H65   H     H_    0.195020 0.417605 0.647986 0.134092
H66   H     H_    0.114170 0.504795 0.684272 0.158752
H67   H     H_    0.654416 0.028901 0.705347 0.114664
H68   H     H_    0.667112 0.493687 0.915215 0.161729
H69   H     H_    0.755681 0.418021 0.877386 0.149524
H70   H     H_    0.784899 0.378210 0.926309 0.138021
H71   H     H_    0.885155 0.460541 0.902537 0.142650
H72   H     H_    0.804637 0.521264 0.943415 0.173833
H73   H     H_    0.664805 0.009826 0.774859 0.118147
H74   H     H_    0.540474 0.165585 0.664164 0.104555
N1    N     N_R   0.751352 0.597758 0.766628 -0.239525
N2    N     N_R   0.747710 0.593174 0.728646 -0.237726
N3    N     N_R   0.607490 0.759454 0.727904 -0.242215
N4    N     N_R   0.611451 0.764229 0.765864 -0.240555
O1    O     O_R   0.502070 0.323090 0.541280 -0.517903
O2    O     O_R   0.831550 0.656950 0.958960 -0.525321
O3    O     O_R   0.998590 0.685540 0.963930 -0.501092
O4    O     O_R   0.338340 0.520690 0.539540 -0.504622
O5    O     O_R   0.008220 0.831200 0.045060 -0.520209
O6    O     O_R   0.813270 0.997930 0.038810 -0.502008
O7    O     O_R   0.657500 0.016560 0.039940 -0.518859
O8    O     O_R   0.685680 0.820940 0.038120 -0.499729
O9    O     O_R   0.822130 0.666070 0.043610 -0.522019
O10   O     O_R   0.989860 0.694000 0.042400 -0.501369
O11   O     O_3   0.833990 0.833400 0.000560 -0.232223
O12   O     O_R   0.520720 0.641670 0.461580 -0.493863
O13   O     O_R   0.324760 0.674070 0.543580 -0.512200
O14   O     O_R   0.522400 0.640310 0.540110 -0.504235
O15   O     O_R   0.675940 0.500630 0.542210 -0.519660
O16   O     O_R   0.641790 0.337020 0.538150 -0.500583
O17   O     O_R   0.500260 0.324550 0.456580 -0.520047
O18   O     O_R   0.336660 0.522040 0.461020 -0.519528
O19   O     O_R   0.322940 0.675540 0.458880 -0.439783
O20   O     O_R   0.674120 0.502090 0.457500 -0.520734
O21   O     O_R   0.640110 0.338380 0.459630 -0.502094
O22   O     O_3   0.499990 0.499990 0.499990 -0.245734
O23   O     O_R   0.017640 0.822070 0.960410 -0.522047
O24   O     O_R   0.822000 0.989470 0.960340 -0.503619
O25   O     O_R   0.666920 0.007430 0.955290 -0.524250
O26   O     O_R   0.694410 0.812480 0.959650 -0.505082

loop_
_geom_bond_atom_site_label_1
_geom_bond_atom_site_label_2
_ccdc_geom_bond_type
C100  H25   S    
C1    C87   S    
C13   H48   S    
C83   C87   A    
N1    N2    A    
Cr2   O14   S    
C110  H57   S    
C47   H61   S    
C93   C94   A    
C112  H31   S    
C96   C102  A    
C5    C114  S    
C24   C99   A    
C41   C42   A    
C36   C42   S    
C43   O14   A    
C84   C87   A    
C82   H14   S    
C78   H11   S    
C30   O3    A    
C97   C98   A    
C57   C58   A    
C3    H39   S    
C26   H37   S    
C40   H59   S    
C79   H13   S    
C85   C86   A    
C24   C55   S    
C35   H4    S    
C28   C46   S    
C69   H6    S    
C29   O2    A    
C57   H67   S    
C62   H5    S    
C43   O15   A    
C76   C78   A    
C38   C42   A    
Cr4   O5    S    
C80   O12   A    
C91   H24   S    
C53   H34   S    
C106  C107  A    
C56   C65   S    
C17   C88   S    
Cr1   O4    S    
C23   H71   S    
C98   C108  S    
C18   C19   A    
C2    C13   A    
C43   C104  S    
C100  C101  A    
C52   C59   A    
C25   H70   S    
C19   H47   S    
C20   C44   A    
C104  C116  A    
C32   O9    A    
C84   H17   S    
C31   O6    A    
C111  C112  A    
C58   H73   S    
C16   C17   A    
C115  C117  A    
C80   C109  S    
C107  C108  A    
C2    C27   A    
C27   C68   S    
C36   N1    A    
C21   H66   S    
C22   H62   S    
Cr3   O22   S    
C99   H55   S    
C30   C67   S    
C15   H46   S    
Cr4   O11   S    
C39   C45   A    
C69   C70   A    
C32   O8    A    
C51   H12   S    
Cr4   O6    S    
Cr2   O13   S    
C8    H44   S    
C106  C109  A    
C38   H49   S    
C21   C22   S    
C118  C119  A    
C117  H32   S    
C9    C33   A    
C68   O18   A    
Cr3   O16   S    
C11   C120  S    
C112  C113  A    
Cr2   O22   S    
C53   C54   A    
C77   H54   S    
C20   H51   S    
Cr2   O12   S    
C2    Cl2   S    
C7    C12   A    
C74   H9    S    
C21   C85   S    
C74   C75   A    
C116  H1    S    
C101  C102  A    
Cr2   O19   S    
Cr4   O23   S    
C95   H19   S    
C84   C85   A    
C27   C110  A    
C72   C73   A    
C1    O13   A    
C35   C104  A    
C10   C11   A    
C119  H35   S    
C6    C11   A    
C92   O21   A    
C75   H8    S    
Cr5   O7    S    
Cr1   O22   S    
C50   C51   A    
C58   C59   A    
C82   C86   A    
C99   C110  A    
Cr1   O17   S    
C23   H72   S    
C18   H58   S    
C101  Cl1   S    
C4    H40   S    
C41   H60   S    
C29   C45   S    
C60   C61   A    
C67   C69   A    
C89   C95   A    
C75   C76   A    
Cr3   O20   S    
C62   C63   A    
C73   H7    S    
Cr6   O3    S    
C91   C93   A    
C26   C33   A    
C47   C48   A    
Cr5   O11   S    
C8    C12   A    
C96   H22   S    
C96   C97   A    
C83   H15   S    
Cr5   O25   S    
C17   C18   A    
Cr1   O1    S    
C34   O5    A    
C103  C105  A    
C36   N4    A    
C28   O25   A    
C63   H23   S    
C70   C71   A    
C25   H68   S    
C61   H2    S    
Cr6   O10   S    
C67   C73   A    
N3    N4    A    
C60   H74   S    
C40   C41   A    
C66   H53   S    
C9    H26   S    
C70   H10   S    
C10   H33   S    
C98   C100  A    
C82   C83   A    
C32   C89   S    
C115  H43   S    
C74   C81   A    
C44   H50   S    
C3    C4    A    
C77   C88   A    
C76   C86   S    
C113  H38   S    
C55   C66   A    
C52   C53   A    
C30   O23   A    
C48   H56   S    
C113  C114  A    
C103  H27   S    
C3    C120  A    
C72   H16   S    
C66   C77   A    
C105  C109  A    
C46   C47   A    
C48   C49   A    
C97   H21   S    
C62   C65   A    
Cr4   O24   S    
C1    O4    A    
C68   O19   A    
C9    C116  A    
C37   N3    A    
C14   C19   A    
C12   C92   S    
C92   O17   A    
C29   O26   A    
C4    C5    A    
C93   C102  S    
C14   C34   S    
C119  C120  A    
Cr5   O8    S    
C114  C115  A    
C6    C7    A    
C31   O7    A    
Cr3   O15   S    
C94   H29   S    
Cr1   O18   S    
C79   C81   A    
C49   C59   S    
C60   C64   A    
C5    C118  A    
C111  C117  A    
C21   H65   S    
C22   H63   S    
C71   C72   A    
C90   H18   S    
C106  H30   S    
C56   O16   A    
C107  H20   S    
C78   C79   A    
C44   C55   A    
C90   C91   A    
C38   C39   A    
C56   O1    A    
C54   C64   S    
C23   C39   S    
C15   C16   A    
C20   C88   A    
Cr5   O26   S    
C37   N2    A    
C28   O24   A    
C23   C25   S    
C46   C51   A    
C94   C95   A    
C118  H36   S    
C33   C37   S    
Cr6   O11   S    
C25   H69   S    
C50   H3    S    
Cr6   O9    S    
C63   C64   A    
C61   C65   A    
C26   C35   A    
C105  H28   S    
C40   C45   A    
C13   C24   A    
C8    C10   A    
C49   C50   A    
C7    H42   S    
C31   C111  S    
C14   C15   A    
C103  C108  A    
C34   O10   A    
Cr6   O2    S    
C80   O20   A    
C89   C90   A    
Cr3   O21   S    
C22   H64   S    
C52   H45   S    
C54   C57   A    
C16   H52   S    
C71   C81   S    
C6    H41   S    
