data_mof_unit_16276.cif
_audit_creation_date              2013-03-05T15:51:18-0500
_audit_creation_method            fapswitch 2.2
_symmetry_space_group_name_H-M    P1
_symmetry_Int_Tables_number       1
_space_group_crystal_system       triclinic
_cell_length_a                    12.089576
_cell_length_b                    12.86598
_cell_length_c                    15.697585
_cell_angle_alpha                 91.391706
_cell_angle_beta                  87.181903
_cell_angle_gamma                 93.553648
_cell_volume                      2433.47443922

loop_
_atom_site_label
_atom_site_type_symbol
_atom_site_description
_atom_site_fract_x
_atom_site_fract_y
_atom_site_fract_z
_atom_type_partial_charge
O1    O     O_R   0.421700 0.658830 0.504150 -0.600718
O2    O     O_R   0.578300 0.341170 0.495850 -0.591919
O3    O     O_R   0.609310 0.646410 0.494170 -0.607406
O4    O     O_R   0.390690 0.353590 0.505830 -0.606457
C1    C     C_R   0.522111 0.700185 0.498128 0.898231
C2    C     C_R   0.478088 0.299747 0.501947 0.888982
O5    O     O_R   0.406210 0.506220 0.628210 -0.586339
O6    O     O_R   0.593790 0.493780 0.371790 -0.595780
O7    O     O_R   0.593830 0.493800 0.618230 -0.567125
O8    O     O_R   0.406170 0.506200 0.381770 -0.587676
C3    C     C_R   0.500947 0.500104 0.661826 0.913655
C4    C     C_R   0.499058 0.499692 0.338146 0.909647
Zn1   Zn    Zn3+2 0.374730 0.508290 0.506660 1.035415
Zn2   Zn    Zn3+2 0.625270 0.491710 0.493340 1.040077
C5    C     C_3   0.502798 0.597239 0.029767 -0.335251
C6    C     C_3   0.497984 0.397248 0.969875 -0.320631
C7    C     C_3   0.591922 0.548032 0.970991 0.594271
C8    C     C_3   0.408757 0.446393 0.028621 0.589756
H1    H     H_    0.505597 0.677847 0.056696 0.161218
H2    H     H_    0.494148 0.316314 0.943532 0.165285
H3    H     H_    0.663698 0.412938 0.047554 0.177644
H4    H     H_    0.337761 0.582264 0.951717 0.177982
C9    C     C_1   0.502831 0.498992 0.750646 -0.087500
C10   C     C_1   0.497123 0.498793 0.249238 -0.100773
C11   C     C_3   0.410721 0.544877 0.974696 -0.300450
C12   C     C_3   0.589998 0.449598 0.024995 -0.289830
C13   C     C_3   0.501686 0.496737 0.916840 0.053970
C14   C     C_3   0.498930 0.497689 0.082889 0.054933
C15   C     C_1   0.503228 0.497846 0.825940 0.044468
C16   C     C_1   0.496997 0.498023 0.173867 0.029383
C17   C     C_R   0.465257 0.188104 0.502583 -0.067662
C18   C     C_R   0.535874 0.811653 0.497269 -0.045254
C19   C     C_R   0.646072 0.970993 0.520563 -0.198096
C20   C     C_R   0.356089 0.028596 0.478112 -0.206797
C21   C     C_R   0.638086 0.863332 0.514315 -0.179817
C22   C     C_R   0.363705 0.136095 0.484825 -0.160412
C23   C     C_R   0.443072 0.866860 0.483023 -0.221155
C24   C     C_R   0.558443 0.133050 0.516599 -0.207646
C25   C     C_R   0.449986 0.973663 0.489815 0.171693
C26   C     C_R   0.551982 0.026129 0.509361 0.172252
H5    H     H_    0.636726 0.173267 0.531948 0.185337
H6    H     H_    0.364549 0.826811 0.467980 0.166248
H7    H     H_    0.291475 0.178277 0.474194 0.226100
H8    H     H_    0.710662 0.820873 0.524598 0.185752
H9    H     H_    0.724867 0.010845 0.534833 0.155370
H10   H     H_    0.277813 0.988598 0.462849 0.154166
N1    N     N_R   0.207800 0.519340 0.515560 -0.240059
N2    N     N_R   0.792200 0.480660 0.484440 -0.236727
C27   C     C_R   0.953973 0.431571 0.400917 0.422039
C28   C     C_R   0.048820 0.600961 0.580693 0.409072
C29   C     C_R   0.838219 0.428214 0.416155 0.267255
C30   C     C_R   0.163652 0.587022 0.574698 0.270753
C31   C     C_R   0.858418 0.534327 0.541439 0.345719
C32   C     C_R   0.139760 0.461581 0.462321 0.349282
C33   C     C_R   0.976435 0.538261 0.529288 -0.293300
C34   C     C_R   0.023954 0.477022 0.463433 -0.288213
O9    O     O_3   0.687933 0.599337 0.933219 -0.608049
C35   C     C_3   0.755387 0.646370 0.996308 0.083491
H11   H     H_    0.841799 0.624339 0.981613 0.179604
H12   H     H_    0.732784 0.620406 0.062637 0.116281
C36   C     C_3   0.752669 0.764874 0.992405 -0.327179
H13   H     H_    0.779457 0.790563 0.927088 0.253658
H14   H     H_    0.666576 0.788061 0.006359 0.217518
C37   C     C_3   0.828761 0.819592 0.056419 -0.938825
H15   H     H_    0.803543 0.795145 0.122304 0.265962
H16   H     H_    0.823216 0.905193 0.052907 0.278829
H17   H     H_    0.916168 0.800872 0.041551 0.270261
O10   O     O_3   0.313235 0.392878 0.065144 -0.628293
C38   C     C_3   0.242464 0.354160 0.000879 0.085752
H18   H     H_    0.221249 0.270371 0.012875 0.176883
H19   H     H_    0.280276 0.358570 0.934600 0.125059
C39   C     C_3   0.135603 0.412127 0.006419 -0.371335
H20   H     H_    0.093878 0.401105 0.070462 0.236943
H21   H     H_    0.155959 0.496641 0.997546 0.223127
C40   C     C_3   0.056085 0.372638 0.938653 -0.865500
H22   H     H_    0.094954 0.385168 0.873814 0.279965
H23   H     H_    0.979292 0.415882 0.945099 0.272318
H24   H     H_    0.033383 0.288341 0.946716 0.260045
N3    N     N_R   0.180673 0.372251 0.417711 0.249505
O11   O     O_R   0.241383 0.382946 0.347561 -0.381680
O12   O     O_R   0.134507 0.280757 0.435240 -0.390020
N4    N     N_R   0.808703 0.574696 0.618945 0.256200
O13   O     O_R   0.749717 0.655679 0.618472 -0.419968
O14   O     O_R   0.828182 0.533990 0.691374 -0.331867
N5    N     N_R   0.232131 0.637041 0.637155 0.260525
O15   O     O_R   0.223411 0.603918 0.714979 -0.364587
O16   O     O_R   0.279776 0.728691 0.622930 -0.419689
N6    N     N_R   0.769233 0.363326 0.362711 0.266744
O17   O     O_R   0.741737 0.268420 0.385600 -0.368854
O18   O     O_R   0.758031 0.388078 0.283935 -0.410930
O19   O     O_3   0.996002 0.390757 0.324147 -0.555229
C41   C     C_3   0.044947 0.472204 0.272444 0.161512
H25   H     H_    0.105872 0.437406 0.226642 0.205817
H26   H     H_    0.092779 0.533451 0.309130 0.117061
C42   C     C_3   0.958547 0.522522 0.221151 -0.386607
H27   H     H_    0.920017 0.463222 0.177289 0.262404
H28   H     H_    0.892908 0.553265 0.265074 0.233852
C43   C     C_3   0.011140 0.612813 0.168994 -0.984858
H29   H     H_    0.042649 0.676582 0.212017 0.274686
H30   H     H_    0.947958 0.643317 0.128918 0.270641
H31   H     H_    0.080818 0.586790 0.126787 0.269821
O20   O     O_3   0.010222 0.674914 0.638757 -0.559611
C44   C     C_3   0.976708 0.762565 0.595504 0.137689
H32   H     H_    0.910623 0.797563 0.636429 0.207388
H33   H     H_    0.939864 0.742502 0.532985 0.105453
C45   C     C_3   0.072463 0.845128 0.582843 -0.377924
H34   H     H_    0.111882 0.861968 0.644562 0.279638
H35   H     H_    0.135275 0.815648 0.535757 0.223821
C46   C     C_3   0.031388 0.945928 0.549950 -0.929093
H36   H     H_    0.995241 0.931810 0.486688 0.268927
H37   H     H_    0.101655 0.005316 0.543286 0.281277
H38   H     H_    0.967567 0.977037 0.595373 0.268476

loop_
_geom_bond_atom_site_label_1
_geom_bond_atom_site_label_2
_geom_bond_distance
_ccdc_geom_bond_type
H3    C12   1.110394 S    
C13   C15   1.426520 S    
C19   H9    1.084147 S    
C42   H27   1.111358 S    
O7    Zn2   1.978401 S    
O9    C35   1.414605 S    
C42   C43   1.525636 S    
N5    O15   1.300851 A    
C5    H1    1.109573 S    
O1    C1    1.294887 A    
C7    C12   1.539368 S    
C9    C15   1.182633 T    
C30   N5    1.429641 S    
C38   H18   1.110957 S    
C46   H37   1.109557 S    
C5    C11   1.553622 S    
C45   H34   1.111352 S    
C8    O10   1.411338 S    
O4    Zn1   2.011234 S    
C36   H14   1.110496 S    
C23   H6    1.085329 S    
C38   H19   1.116941 S    
N2    C29   1.366231 A    
O10   C38   1.416162 S    
C27   C29   1.406248 A    
H4    C11   1.109869 S    
C28   C30   1.409081 A    
C20   H10   1.083370 S    
C36   H13   1.111729 S    
O6    C4    1.291725 A    
C1    C18   1.433803 S    
C35   C36   1.529838 S    
N5    O16   1.299241 A    
C2    C17   1.435378 S    
O2    C2    1.293067 A    
C8    C11   1.539170 S    
C27   O19   1.388640 S    
C39   C40   1.525665 S    
C31   C33   1.428072 A    
C6    C12   1.553460 S    
N2    C31   1.374810 A    
C32   C34   1.425408 A    
C19   C26   1.397792 A    
C20   C25   1.395769 A    
C7    C13   1.524099 S    
C18   C21   1.400943 A    
C8    C14   1.524621 S    
C24   H5    1.084970 S    
C39   H21   1.110459 S    
C46   H38   1.110969 S    
O19   C41   1.422732 S    
N3    O12   1.300813 A    
Zn2   N2    2.029628 S    
C35   H11   1.111192 S    
N4    O13   1.298930 A    
C41   C42   1.533065 S    
C31   N4    1.430861 S    
C37   H16   1.110382 S    
C36   C37   1.525732 S    
O5    C3    1.291920 A    
C40   H22   1.110989 S    
C37   H17   1.110720 S    
O7    C3    1.291855 A    
C6    H2    1.110153 S    
C33   C34   1.406287 A    
C41   H26   1.114092 S    
C44   H33   1.115620 S    
C18   C23   1.394435 A    
C21   H8    1.082572 S    
C40   H23   1.110754 S    
O3    Zn2   2.011234 S    
O8    C4    1.292394 A    
N1    C32   1.374392 A    
O4    C2    1.297067 A    
N6    O18   1.299946 A    
C28   O20   1.387410 S    
N4    O14   1.301142 A    
O1    Zn1   1.985078 S    
C43   H31   1.109049 S    
C25   C26   1.412183 A    
C38   C39   1.529066 S    
Zn1   N1    2.029628 S    
C32   N3    1.432930 S    
C5    C7    1.539961 S    
O6    Zn2   1.965021 S    
C12   C14   1.542611 S    
C39   H20   1.110605 S    
O3    C1    1.294516 A    
O8    Zn1   1.978404 S    
C29   N6    1.429985 S    
C42   H28   1.110596 S    
N1    C30   1.369149 A    
C11   C13   1.541663 S    
C27   C34   1.418877 A    
C4    C10   1.396743 S    
C43   H30   1.108896 S    
C28   C33   1.420573 A    
C17   C24   1.396481 A    
C37   H15   1.111050 S    
C14   C16   1.427090 S    
C23   C25   1.373355 A    
C46   H36   1.110942 S    
C24   C26   1.375271 A    
C5    C14   1.542287 S    
C45   H35   1.110719 S    
C6    C13   1.540952 S    
C3    C9    1.396001 S    
C41   H25   1.110443 S    
C19   C21   1.383973 A    
C44   C45   1.530754 S    
C20   C22   1.382241 A    
O20   C44   1.420489 S    
O2    Zn2   1.985077 S    
C40   H24   1.110842 S    
C10   C16   1.183022 T    
N3    O11   1.298309 A    
O5    Zn1   1.965018 S    
N6    O17   1.299928 A    
C6    C8    1.540209 S    
C43   H29   1.110850 S    
C44   H32   1.110781 S    
C17   C22   1.398394 A    
C22   H7    1.078147 S    
C35   H12   1.117123 S    
C7    O9    1.411013 S    
C45   C46   1.527310 S    
