data_mof_unit_57991.cif
_audit_creation_date              2012-12-10T17:54:17-0500
_audit_creation_method            fapswitch 2.2
_symmetry_space_group_name_H-M    P1
_symmetry_Int_Tables_number       1
_space_group_crystal_system       triclinic
_cell_length_a                    27.084033
_cell_length_b                    10.646904
_cell_length_c                    9.939504
_cell_angle_alpha                 91.247123
_cell_angle_beta                  92.240275
_cell_angle_gamma                 91.854873
_cell_volume                      2861.71382156

loop_
_atom_site_label
_atom_site_type_symbol
_atom_type_description
_atom_site_fract_x
_atom_site_fract_y
_atom_site_fract_z
_atom_type_partial_charge
C1    C     C_R   0.503566 0.259349 0.498270 1.004205
C2    C     C_R   0.965696 0.500410 0.253480 -0.016973
C3    C     C_R   0.976353 0.714194 0.349381 0.041714
C4    C     C_R   0.405692 0.497837 0.497515 0.905884
C5    C     C_R   0.945285 0.610832 0.305565 0.076188
C6    C     C_R   0.933961 0.408791 0.188810 -0.307023
C7    C     C_R   0.882700 0.419698 0.187469 0.560333
C8    C     C_R   0.862381 0.517343 0.263870 -0.125483
C9    C     C_R   0.893753 0.614215 0.321237 -0.153081
C10   C     C_R   0.873966 0.711339 0.399388 -0.058473
C11   C     C_R   0.825181 0.693830 0.441587 0.546799
C12   C     C_R   0.276861 0.423355 0.367799 -0.198169
C13   C     C_R   0.811795 0.519386 0.288594 0.552250
C14   C     C_R   0.729184 0.452492 0.459590 -0.123067
C15   C     C_R   0.679715 0.426541 0.484457 0.098328
C16   C     C_R   0.492587 0.737853 0.501701 0.942960
C17   C     C_R   0.665517 0.651005 0.489913 0.070123
C18   C     C_R   0.713798 0.674659 0.451685 -0.097775
C19   C     C_R   0.746065 0.575803 0.435044 0.186501
C20   C     C_R   0.016878 0.483177 0.273855 0.084652
C21   C     C_R   0.048201 0.587972 0.312609 0.080406
C22   C     C_R   0.028169 0.706698 0.337037 0.019637
C23   C     C_R   0.250646 0.518910 0.430009 0.220730
C24   C     C_R   0.037182 0.363050 0.266711 -0.211125
C25   C     C_R   0.111963 0.799683 0.361363 0.236629
C26   C     C_R   0.954818 0.818249 0.411236 -0.247067
C27   C     C_R   0.904694 0.816931 0.438795 0.235340
C28   C     C_R   0.594310 0.502034 0.501889 0.955316
C29   C     C_R   0.060769 0.811923 0.354959 -0.252608
C30   C     C_R   0.547468 0.110348 0.724476 0.577977
C31   C     C_R   0.548501 0.046520 0.848379 -0.415839
C32   C     C_R   0.517391 0.940912 0.867339 0.515741
C33   C     C_R   0.487469 0.894552 0.758854 0.193300
C34   C     C_R   0.099559 0.572687 0.332990 -0.091618
C35   C     C_R   0.494146 0.940741 0.628098 -0.158408
C36   C     C_R   0.516549 0.059542 0.615445 -0.026516
C37   C     C_R   0.506082 0.123367 0.493840 -0.189241
C38   C     C_R   0.486787 0.056178 0.377195 0.097725
C39   C     C_R   0.473403 0.930541 0.386331 0.457532
C40   C     C_R   0.167241 0.434971 0.376397 0.535462
C41   C     C_R   0.482028 0.870503 0.508378 -0.234416
C42   C     C_R   0.418149 0.401421 0.128223 -0.129000
C43   C     C_R   0.372575 0.391900 0.059145 -0.207548
C44   C     C_R   0.370516 0.404461 0.920729 0.147658
C45   C     C_R   0.118046 0.450779 0.335035 -0.009713
C46   C     C_R   0.415189 0.401950 0.854110 0.191581
C47   C     C_R   0.458962 0.451565 0.923008 0.102194
C48   C     C_R   0.459484 0.452231 0.066813 0.125472
C49   C     C_R   0.539443 0.544168 0.076521 -0.069856
C50   C     C_R   0.539282 0.545166 0.933677 -0.108521
C51   C     C_R   0.183011 0.656619 0.373715 0.540101
C52   C     C_R   0.275298 0.597000 0.528948 -0.054776
C53   C     C_R   0.325978 0.588249 0.554175 -0.296544
C54   C     C_R   0.326329 0.404922 0.405343 0.465048
C55   C     C_3   0.330550 0.191506 0.407802 -0.216784
C56   C     C_R   0.086690 0.346864 0.301110 -0.117906
C57   C     C_3   0.600983 0.272934 0.816084 -0.196592
C58   C     C_3   0.558056 0.868343 0.058788 -0.176306
C59   C     C_3   0.406014 0.831995 0.281906 -0.136057
C60   C     C_3   0.851160 0.340902 0.987293 -0.182059
C61   C     C_R   0.132022 0.678233 0.356065 -0.085598
C62   C     C_R   0.351871 0.494981 0.488916 -0.105429
C63   C     C_R   0.647584 0.526111 0.502340 -0.160434
H1    H     H_    0.255688 0.668088 0.582769 0.187464
H2    H     H_    0.571296 0.582695 0.884497 0.142405
H3    H     H_    0.100328 0.252323 0.300732 0.203293
H4    H     H_    0.753763 0.374979 0.449183 0.193604
H5    H     H_    0.948253 0.328181 0.137211 0.165817
H6    H     H_    0.014724 0.278911 0.244678 0.155960
H7    H     H_    0.345013 0.655811 0.622039 0.198382
H8    H     H_    0.294064 0.166393 0.357629 0.200888
H9    H     H_    0.327229 0.198194 0.519107 0.201977
H10   H     H_    0.355723 0.114068 0.386765 0.183615
H11   H     H_    0.630468 0.214574 0.860454 0.167709
H12   H     H_    0.976829 0.899057 0.447646 0.166302
H13   H     H_    0.572983 0.296602 0.890723 0.155049
H14   H     H_    0.619258 0.362362 0.786968 0.193743
H15   H     H_    0.573447 0.956852 0.107051 0.176934
H16   H     H_    0.584937 0.826217 0.990337 0.122392
H17   H     H_    0.552164 0.802451 0.141821 0.212645
H18   H     H_    0.399433 0.770166 0.368631 0.112089
H19   H     H_    0.392931 0.779098 0.189204 0.209648
H20   H     H_    0.383781 0.917621 0.289726 0.145859
H21   H     H_    0.825019 0.269003 0.940114 0.208147
H22   H     H_    0.887890 0.327156 0.943894 0.139516
H23   H     H_    0.725548 0.770136 0.430840 0.203538
H24   H     H_    0.837214 0.434915 0.961015 0.162215
H25   H     H_    0.047116 0.905849 0.361921 0.163451
H26   H     H_    0.571319 0.081728 0.932858 0.163804
H27   H     H_    0.259211 0.363111 0.289796 0.185371
H28   H     H_    0.571751 0.580355 0.133858 0.141382
H29   H     H_    0.421725 0.359596 0.224193 0.260423
H30   H     H_    0.339585 0.364626 0.110402 0.217113
I1    I     I_    0.152890 0.973250 0.393514 -0.228201
I2    I     I_    0.620794 0.809131 0.513647 -0.346888
I3    I     I_    0.880095 0.985476 0.530743 -0.252057
I4    I     I_    0.479770 0.127321 0.177223 -0.266128
I5    I     I_    0.424234 0.780673 0.803950 -0.279083
I6    I     I_    0.300520 0.374954 0.819266 -0.307492
I7    I     I_    0.416414 0.220935 0.760781 -0.312439
I8    I     I_    0.655357 0.235478 0.468940 -0.255271
N1    N     N_R   0.199275 0.537042 0.392687 -0.341249
N2    N     N_R   0.795080 0.598478 0.386258 -0.347468
N3    N     N_R   0.499540 0.498800 0.142780 -0.099863
N4    N     N_R   0.499520 0.498720 0.857170 -0.100595
O1    O     O_R   0.500000 0.316780 0.614690 -0.571672
O2    O     O_R   0.571250 0.499990 0.614680 -0.606494
O3    O     O_R   0.571240 0.499970 0.385350 -0.611469
O4    O     O_2   0.182466 0.318353 0.403182 -0.541927
O5    O     O_3   0.350893 0.303033 0.355693 -0.662832
O6    O     O_3   0.578899 0.213292 0.699503 -0.587116
O7    O     O_3   0.511914 0.887214 0.992435 -0.537077
O8    O     O_3   0.456629 0.864035 0.271036 -0.545146
O9    O     O_3   0.853000 0.324395 0.127756 -0.556480
O10   O     O_2   0.779565 0.441419 0.218172 -0.502500
O11   O     O_2   0.216271 0.753046 0.369961 -0.530678
O12   O     O_2   0.808947 0.765952 0.542517 -0.520253
O13   O     O_R   0.500000 0.316750 0.385360 -0.615108
O14   O     O_R   0.428760 0.500030 0.614650 -0.607299
O15   O     O_R   0.428750 0.500010 0.385320 -0.639620
O16   O     O_R   0.500000 0.683250 0.614640 -0.605700
O17   O     O_R   0.500000 0.683220 0.385310 -0.564880
Zn1   Zn    Zn3+2 0.500000 0.500020 0.653130 0.998948
Zn2   Zn    Zn3+2 0.500000 0.499980 0.346870 0.995521

loop_
_geom_bond_atom_site_label_1
_geom_bond_atom_site_label_2
_ccdc_geom_bond_type
C10   C27   A    
C8    C13   A    
C22   C29   A    
C57   O6    S    
C60   O9    S    
C35   C36   A    
C51   C61   A    
C59   H19   S    
O2    Zn1   S    
C43   C44   A    
C49   N3    A    
C7    C8    A    
C39   C41   A    
C31   C32   A    
C51   N1    A    
C12   C23   A    
C54   O5    S    
C26   C27   A    
C18   H23   S    
C58   O7    S    
C7    O9    S    
C12   H27   S    
C36   C37   A    
O3    Zn2   S    
C18   C19   A    
C30   C31   A    
C44   I6    S    
C23   N1    S    
C28   O2    A    
C48   N3    A    
C4    C62   S    
N4    Zn1   S    
C33   I5    S    
C16   O17   A    
C29   H25   S    
C33   C35   A    
C19   N2    S    
C20   C24   A    
C45   C56   A    
C8    C9    A    
C31   H26   S    
O1    Zn1   S    
C50   N4    A    
C14   H4    S    
C4    O14   A    
C17   I2    S    
C13   N2    A    
C9    C10   A    
C55   H9    S    
C58   H17   S    
C1    O1    A    
C6    H5    S    
O13   Zn2   S    
C25   I1    S    
C21   C22   A    
C27   I3    S    
C2    C6    A    
C49   H28   S    
C38   I4    S    
C53   H7    S    
C60   H24   S    
C44   C46   A    
C24   H6    S    
C26   H12   S    
C25   C29   A    
C40   C45   A    
C2    C20   A    
C57   H14   S    
C52   H1    S    
C42   C48   A    
C21   C34   A    
C54   C62   A    
C39   O8    S    
C34   C61   A    
C57   H11   S    
C16   O16   A    
C5    C9    A    
C37   C38   A    
C53   C62   A    
C47   C48   A    
C59   O8    S    
C17   C18   A    
C40   O4    S    
C34   C45   A    
C25   C61   A    
C15   I8    S    
C13   O10   S    
C58   H16   S    
C55   O5    S    
C2    C5    A    
C42   C43   A    
O17   Zn2   S    
C11   O12   S    
C52   C53   A    
C57   H13   S    
C46   I7    S    
C46   C47   A    
C32   O7    S    
C14   C19   A    
C3    C26   A    
C59   H18   S    
C59   H20   S    
C3    C5    A    
C60   H22   S    
C6    C7    A    
N3    Zn2   S    
O14   Zn1   S    
C24   C56   A    
C51   O11   S    
C30   C36   A    
C30   O6    S    
C32   C33   A    
C17   C63   A    
C60   H21   S    
C23   C52   A    
C38   C39   A    
C28   O3    A    
C56   H3    S    
C43   H30   S    
C42   H29   S    
C1    O13   A    
C35   C41   A    
C50   H2    S    
C12   C54   A    
O16   Zn1   S    
C10   C11   A    
C58   H15   S    
C40   N1    A    
C55   H10   S    
C28   C63   S    
C20   C21   A    
C49   C50   A    
C15   C63   A    
C14   C15   A    
C4    O15   A    
C3    C22   A    
C11   N2    A    
C47   N4    A    
C16   C41   S    
C55   H8    S    
O15   Zn2   S    
C1    C37   S    
