data_mof_unit_29505.cif
_audit_creation_date              2012-10-26T20:46:39-0400
_audit_creation_method            fapswitch 2.2
_symmetry_space_group_name_H-M    P1
_symmetry_Int_Tables_number       1
_space_group_crystal_system       triclinic
_cell_length_a                    15.101546
_cell_length_b                    13.937434
_cell_length_c                    11.003923
_cell_angle_alpha                 90.550251
_cell_angle_beta                  91.973108
_cell_angle_gamma                 90.134978
_cell_volume                      2314.58219763

loop_
_atom_site_label
_atom_site_type_symbol
_atom_type_description
_atom_site_fract_x
_atom_site_fract_y
_atom_site_fract_z
_atom_type_partial_charge
C1    C     C_R   0.329854 0.500012 0.500274 0.561358
C2    C     C_R   0.420777 0.891784 0.481992 0.171072
C3    C     C_R   0.578207 0.892820 0.523358 0.170256
C4    C     C_R   0.425380 0.791348 0.464871 0.363774
C5    C     C_R   0.574271 0.792126 0.536966 0.359214
C6    C     C_R   0.499338 0.946288 0.503435 -0.067957
C7    C     C_R   0.497944 0.499265 0.264908 0.539673
C8    C     C_R   0.499892 0.499846 0.734866 0.550876
C9    C     C_2   0.482928 0.418333 0.929740 0.228843
C10   C     C_2   0.491493 0.416118 0.064889 0.230004
C11   C     C_2   0.505122 0.497820 0.867464 -0.135754
C12   C     C_R   0.670001 0.500306 0.501645 0.575493
C13   C     C_2   0.488470 0.497873 0.132131 -0.137321
C14   C     C_R   0.097227 0.579865 0.562232 -0.122290
C15   C     C_R   0.904232 0.575447 0.444795 -0.121089
C16   C     C_R   0.189570 0.576939 0.564041 0.223322
C17   C     C_R   0.811960 0.572347 0.438619 0.219868
C18   C     C_R   0.232906 0.500862 0.504164 0.017369
C19   C     C_R   0.766835 0.501795 0.504338 0.026666
C20   C     C_R   0.182365 0.426756 0.447395 0.214873
C21   C     C_R   0.814792 0.435369 0.576328 0.211976
C22   C     C_R   0.090285 0.427810 0.453974 -0.121872
C23   C     C_R   0.047951 0.504915 0.508638 -0.064841
C24   C     C_R   0.907520 0.435592 0.574058 -0.131916
C25   C     C_3   0.498573 0.264181 0.853844 0.015723
C26   C     C_3   0.444852 0.176321 0.813010 -0.382182
C27   C     C_3   0.432874 0.275618 0.134345 0.007750
C28   C     C_3   0.456768 0.170448 0.152783 -0.391570
C29   C     C_3   0.346365 0.753236 0.291862 0.021581
C30   C     C_3   0.278582 0.682176 0.238504 -0.363296
C31   C     C_3   0.654042 0.755121 0.708783 0.019676
C32   C     C_3   0.721517 0.684119 0.760486 -0.363402
C33   C     C_3   0.257639 0.622001 0.742648 0.007735
C34   C     C_R   0.951687 0.506036 0.510075 -0.060991
C35   C     C_3   0.313552 0.699694 0.806138 -0.368674
C36   C     C_3   0.748966 0.606009 0.253650 0.002391
C37   C     C_3   0.694782 0.679576 0.182176 -0.369910
C38   C     C_3   0.211695 0.362087 0.261309 -0.023746
C39   C     C_3   0.202713 0.263358 0.201871 -0.389838
C40   C     C_3   0.800640 0.375453 0.769149 -0.020540
C41   C     C_3   0.729029 0.338784 0.850588 -0.380902
C42   C     C_3   0.305441 0.941787 0.592251 -0.000390
C43   C     C_3   0.218575 0.996713 0.586628 -0.367475
C44   C     C_3   0.695873 0.938921 0.415905 0.003391
C45   C     C_R   0.565224 0.110365 0.567106 -0.138372
C46   C     C_3   0.784478 0.991000 0.423554 -0.365406
C47   C     C_R   0.432661 0.108552 0.440428 -0.145819
C48   C     C_R   0.566660 0.210757 0.559248 0.017521
C49   C     C_R   0.432131 0.209065 0.444739 0.021641
C50   C     C_R   0.499112 0.055840 0.503713 0.045015
Cu1   Cu    Cu3+1 0.500000 0.596430 0.500000 1.018343
Cu2   Cu    Cu3+1 0.500000 0.403570 0.500000 0.989552
H1    H     H_    0.533298 0.560714 0.912994 0.029587
H2    H     H_    0.508622 0.163729 0.226051 0.180207
H3    H     H_    0.396962 0.129279 0.176568 0.077753
H4    H     H_    0.482961 0.138374 0.068982 0.129989
H5    H     H_    0.411158 0.738043 0.249946 0.109731
H6    H     H_    0.324789 0.827009 0.267124 0.143603
H7    H     H_    0.272005 0.691266 0.138452 0.072580
H8    H     H_    0.300156 0.607566 0.257788 0.146160
H9    H     H_    0.213092 0.694541 0.278792 0.162790
H10   H     H_    0.589313 0.740290 0.750927 0.109145
H11   H     H_    0.676247 0.828931 0.734671 0.145678
H12   H     H_    0.473886 0.566251 0.089807 0.033716
H13   H     H_    0.786674 0.695287 0.718860 0.162605
H14   H     H_    0.729346 0.694483 0.860458 0.072206
H15   H     H_    0.698796 0.609457 0.741521 0.155148
H16   H     H_    0.064084 0.639213 0.605721 0.133391
H17   H     H_    0.938830 0.630175 0.395498 0.132104
H18   H     H_    0.296565 0.554152 0.744561 0.134598
H19   H     H_    0.196194 0.611932 0.794342 0.110991
H20   H     H_    0.274550 0.766798 0.813596 0.126979
H21   H     H_    0.334124 0.675949 0.898931 0.081132
H22   H     H_    0.373736 0.714151 0.753935 0.173884
H23   H     H_    0.538197 0.246257 0.936795 0.161792
H24   H     H_    0.710103 0.537939 0.254536 0.127631
H25   H     H_    0.811953 0.593404 0.206204 0.112056
H26   H     H_    0.733182 0.747205 0.174778 0.134349
H27   H     H_    0.678403 0.651284 0.089384 0.080542
H28   H     H_    0.632220 0.695055 0.228704 0.174483
H29   H     H_    0.270962 0.398998 0.226901 0.120597
H30   H     H_    0.152240 0.404579 0.231906 0.112749
H31   H     H_    0.139349 0.229649 0.227275 0.151699
H32   H     H_    0.203205 0.270068 0.101422 0.094290
H33   H     H_    0.258146 0.216400 0.232507 0.141190
H34   H     H_    0.546975 0.280043 0.784158 0.147112
H35   H     H_    0.817096 0.450434 0.798906 0.113216
H36   H     H_    0.860067 0.329332 0.782476 0.131525
H37   H     H_    0.710602 0.263999 0.824537 0.136652
H38   H     H_    0.753544 0.340078 0.946894 0.103101
H39   H     H_    0.669896 0.385583 0.841741 0.148874
H40   H     H_    0.051654 0.369562 0.412986 0.132720
H41   H     H_    0.945461 0.381942 0.623607 0.118372
H42   H     H_    0.615065 0.077437 0.625386 0.157710
H43   H     H_    0.381695 0.074181 0.384578 0.160562
H44   H     H_    0.619750 0.250528 0.604928 0.157008
H45   H     H_    0.489135 0.113299 0.804819 0.079527
H46   H     H_    0.378030 0.247267 0.401153 0.157000
H47   H     H_    0.352409 0.981313 0.655260 0.113010
H48   H     H_    0.292602 0.869117 0.628993 0.173942
H49   H     H_    0.169598 0.958586 0.525871 0.167855
H50   H     H_    0.191680 0.002556 0.679059 0.089887
H51   H     H_    0.229656 0.070010 0.551257 0.161752
H52   H     H_    0.651298 0.977978 0.350481 0.116656
H53   H     H_    0.707118 0.864726 0.381108 0.175173
H54   H     H_    0.830970 0.953114 0.486966 0.166893
H55   H     H_    0.813397 0.993002 0.332184 0.090597
H56   H     H_    0.393798 0.159981 0.880025 0.139474
H57   H     H_    0.775193 0.065706 0.456763 0.160194
H58   H     H_    0.411104 0.189747 0.723575 0.183189
H59   H     H_    0.384672 0.280065 0.056037 0.158798
H60   H     H_    0.398874 0.302435 0.214979 0.148873
N1    N     N_R   0.500000 0.258690 0.500000 -0.226812
N2    N     N_R   0.500000 0.741330 0.500000 -0.281587
O1    O     O_R   0.371460 0.581430 0.500010 -0.416572
O2    O     O_3   0.511360 0.329253 0.119881 -0.544727
O3    O     O_3   0.351228 0.743571 0.419568 -0.465271
O4    O     O_3   0.648627 0.744969 0.580881 -0.471785
O5    O     O_3   0.236732 0.650265 0.622113 -0.518870
O6    O     O_3   0.766351 0.641518 0.372692 -0.524101
O7    O     O_3   0.222570 0.351233 0.388753 -0.556979
O8    O     O_3   0.769662 0.370227 0.646351 -0.559010
O9    O     O_3   0.338464 0.934568 0.474125 -0.568229
O10   O     O_3   0.660100 0.936975 0.532662 -0.570247
O11   O     O_R   0.628540 0.581430 0.499990 -0.416046
O12   O     O_R   0.371470 0.418560 0.500010 -0.485914
O13   O     O_R   0.628530 0.418560 0.499990 -0.486602
O14   O     O_R   0.500000 0.581410 0.321940 -0.525796
O15   O     O_R   0.500000 0.581410 0.678060 -0.526144
O16   O     O_R   0.500010 0.418540 0.321940 -0.461928
O17   O     O_R   0.499990 0.418540 0.678060 -0.470133
O18   O     O_3   0.440122 0.342337 0.869254 -0.547682

loop_
_geom_bond_atom_site_label_1
_geom_bond_atom_site_label_2
_ccdc_geom_bond_type
C41   H37   S    
C35   H22   S    
C5    N2    A    
C49   N1    A    
C3    C6    A    
C44   H52   S    
C47   C49   A    
C12   O13   A    
C44   H53   S    
C37   H27   S    
C1    C18   S    
Cu1   O14   S    
C40   H35   S    
C4    N2    A    
C36   C37   S    
C19   C21   A    
C39   H32   S    
C36   H25   S    
C38   C39   S    
C9    O18   S    
C47   H43   S    
C21   O8    S    
C7    O16   A    
C36   H24   S    
C17   O6    S    
C17   C19   A    
C49   H46   S    
C28   H3    S    
C30   H8    S    
C7    O14   A    
C9    C10   S    
C26   H58   S    
C15   C34   A    
C11   H1    S    
C27   O2    S    
C41   H38   S    
C27   H59   S    
C38   H30   S    
C31   H10   S    
C2    C6    A    
C45   H42   S    
Cu2   O13   S    
C44   C46   S    
C42   O9    S    
C47   C50   A    
C43   H51   S    
Cu1   O15   S    
C15   H17   S    
C37   H28   S    
Cu1   N2    S    
Cu1   Cu2   S    
Cu1   O11   S    
C31   H11   S    
C1    O12   A    
C16   O5    S    
C26   H56   S    
Cu2   O12   S    
C12   O11   A    
C25   C26   S    
Cu2   N1    S    
C29   O3    S    
C44   O10   S    
C24   C34   A    
C25   H23   S    
C14   C23   A    
C2    C4    A    
C43   H49   S    
C31   O4    S    
C29   C30   S    
C42   H48   S    
C31   C32   S    
C23   C34   S    
C30   H7    S    
C8    O17   A    
C21   C24   A    
C6    C50   S    
C9    C11   D    
C20   O7    S    
C33   H18   S    
C32   H15   S    
C40   C41   S    
C41   H39   S    
C29   H5    S    
C27   H60   S    
C33   O5    S    
C38   H29   S    
C14   C16   A    
C4    O3    S    
C46   H57   S    
C42   C43   S    
C39   H33   S    
C27   C28   S    
C10   O2    S    
C3    O10   S    
C32   H14   S    
C45   C48   A    
C15   C17   A    
C35   H21   S    
C46   H55   S    
C28   H2    S    
C48   H44   S    
Cu2   O17   S    
C20   C22   A    
C3    C5    A    
C10   C13   D    
C35   H20   S    
C40   O8    S    
C37   H26   S    
C5    O4    S    
Cu2   O16   S    
C40   H36   S    
C43   H50   S    
C39   H31   S    
C24   H41   S    
C13   H12   S    
C45   C50   A    
C28   H4    S    
C8    C11   S    
C46   H54   S    
C12   C19   S    
C25   H34   S    
C33   C35   S    
C18   C20   A    
C14   H16   S    
C36   O6    S    
Cu1   O1    S    
C38   O7    S    
C33   H19   S    
C26   H45   S    
C7    C13   S    
C29   H6    S    
C16   C18   A    
C30   H9    S    
C8    O15   A    
C22   H40   S    
C22   C23   A    
C32   H13   S    
C1    O1    A    
C42   H47   S    
C25   O18   S    
C2    O9    S    
C48   N1    A    
