data_mof_unit_20729.cif
_audit_creation_date              2012-12-10T17:02:02-0500
_audit_creation_method            fapswitch 2.2
_symmetry_space_group_name_H-M    P1
_symmetry_Int_Tables_number       1
_space_group_crystal_system       triclinic
_cell_length_a                    10.825092
_cell_length_b                    11.053831
_cell_length_c                    9.82251
_cell_angle_alpha                 110.87381
_cell_angle_beta                  98.34556
_cell_angle_gamma                 91.071155
_cell_volume                      1083.42265717

loop_
_atom_site_label
_atom_site_type_symbol
_atom_type_description
_atom_site_fract_x
_atom_site_fract_y
_atom_site_fract_z
_atom_type_partial_charge
C1    C     C_R   0.491024 0.254254 0.440891 0.871457
C2    C     C_R   0.082723 0.609479 0.619199 0.082772
C3    C     C_R   0.128475 0.510501 0.504016 -0.153676
C4    C     C_R   0.044140 0.421741 0.384630 -0.020637
C5    C     C_R   0.916817 0.426467 0.385489 -0.253127
C6    C     C_R   0.870765 0.517453 0.501815 -0.121671
C7    C     C_2   0.486512 0.115249 0.407723 -0.371154
C8    C     C_2   0.499808 0.069489 0.516889 -0.154602
C9    C     C_2   0.512610 0.884771 0.592476 -0.360380
C10   C     C_2   0.496165 0.930529 0.483340 -0.149564
C11   C     C_2   0.510562 0.510425 0.081327 -0.079839
C12   C     C_R   0.262538 0.503571 0.501790 0.788426
C13   C     C_2   0.488873 0.490144 0.918819 -0.071605
C14   C     C_R   0.508738 0.745755 0.559147 0.843522
C15   C     C_R   0.737298 0.507108 0.500760 0.799850
C16   C     C_R   0.163114 0.708159 0.733124 -0.174439
C17   C     C_R   0.115690 0.802608 0.845394 -0.146968
C18   C     C_R   0.987426 0.807139 0.842386 -0.134414
C19   C     C_R   0.905866 0.715263 0.728158 -0.176847
C20   C     C_R   0.951931 0.613151 0.617420 0.099814
Cu1   Cu    Cu3+1 0.521920 0.521810 0.644910 0.927101
Cu2   Cu    Cu3+1 0.478080 0.478190 0.355090 0.949919
H1    H     H_    0.415161 0.418935 0.846019 0.160264
H2    H     H_    0.583669 0.582295 0.154300 0.160442
H3    H     H_    0.624954 0.620785 0.934059 0.190284
H4    H     H_    0.376220 0.377914 0.065616 0.204318
H5    H     H_    0.262972 0.716758 0.736989 0.162496
H6    H     H_    0.950937 0.883486 0.927465 0.141474
H7    H     H_    0.807016 0.727478 0.726815 0.149916
H8    H     H_    0.852848 0.355499 0.296030 0.161304
H9    H     H_    0.480193 0.865311 0.368331 0.179708
H10   H     H_    0.513849 0.134690 0.631864 0.180297
H11   H     H_    0.528861 0.950287 0.707291 0.147033
N1    N     N_2   0.445130 0.445430 0.137370 -0.282559
N2    N     N_2   0.554930 0.554500 0.862630 -0.288452
O1    O     O_R   0.511700 0.332330 0.577400 -0.575411
O2    O     O_R   0.474680 0.295500 0.332650 -0.569045
O3    O     O_R   0.338160 0.518420 0.622400 -0.591693
O4    O     O_R   0.301140 0.481590 0.377650 -0.554224
O5    O     O_R   0.525320 0.704500 0.667350 -0.593195
O6    O     O_R   0.488300 0.667670 0.422600 -0.577263
O7    O     O_R   0.698860 0.518410 0.622350 -0.577892
O8    O     O_R   0.661840 0.481580 0.377600 -0.580569
C21   C     C_R   0.085410 0.323699 0.254970 0.136326
C22   C     C_R   0.156012 0.222714 0.270358 -0.113243
C23   C     C_R   0.201703 0.136636 0.148843 -0.118423
C24   C     C_R   0.176674 0.150383 0.011566 -0.141362
C25   C     C_R   0.103995 0.248736 0.994837 -0.157520
C26   C     C_R   0.058188 0.335065 0.115952 -0.126067
H12   H     H_    0.177655 0.212494 0.376725 0.103358
H13   H     H_    0.257586 0.060118 0.161545 0.114624
H14   H     H_    0.213784 0.085173 0.918069 0.125172
H15   H     H_    0.084427 0.259049 0.888443 0.134477
H16   H     H_    0.003992 0.412564 0.102356 0.130230
H17   H     H_    0.472661 0.049691 0.293005 0.142688
H18   H     H_    0.179202 0.873928 0.933570 0.128572

loop_
_geom_bond_atom_site_label_1
_geom_bond_atom_site_label_2
_ccdc_geom_bond_type
C21   C26   A    
C9    C14   S    
C18   H6    S    
C24   H14   S    
Cu1   N2    S    
C7    H17   S    
C2    C16   A    
C9    C10   D    
C15   O7    A    
C19   C20   A    
C1    O2    A    
C12   O4    A    
C17   C18   A    
C15   O8    A    
C7    C8    D    
Cu1   O1    S    
Cu1   Cu2   S    
C9    H11   S    
C11   C13   S    
C17   H18   S    
C5    C6    A    
Cu1   O5    S    
C4    C21   S    
C22   H12   S    
H3    N2    S    
C14   O6    A    
Cu2   O4    S    
C23   H13   S    
C16   H5    S    
C25   C26   A    
C13   N2    D    
C2    C3    A    
C12   O3    A    
C25   H15   S    
Cu2   N1    S    
Cu2   O6    S    
C14   O5    A    
C3    C4    A    
C8    H10   S    
C24   C25   A    
C22   C23   A    
C11   H2    S    
C6    C20   A    
C21   C22   A    
C13   H1    S    
C8    C10   S    
C18   C19   A    
C5    H8    S    
C23   C24   A    
C4    C5    A    
C3    C12   S    
C26   H16   S    
C6    C15   S    
C1    C7    S    
Cu2   O2    S    
C2    C20   A    
C10   H9    S    
H4    N1    S    
C11   N1    D    
Cu1   O3    S    
Cu1   O7    S    
C1    O1    A    
C16   C17   A    
Cu2   O8    S    
C19   H7    S    
