data_mof_unit_56922.cif
_audit_creation_date              2012-12-11T17:47:34-0500
_audit_creation_method            fapswitch 2.2
_symmetry_space_group_name_H-M    P1
_symmetry_Int_Tables_number       1
_space_group_crystal_system       triclinic
_cell_length_a                    14.903346
_cell_length_b                    14.956213
_cell_length_c                    14.959971
_cell_angle_alpha                 109.927588
_cell_angle_beta                  108.793194
_cell_angle_gamma                 108.980251
_cell_volume                      2589.04108613

loop_
_atom_site_label
_atom_site_type_symbol
_atom_type_description
_atom_site_fract_x
_atom_site_fract_y
_atom_site_fract_z
_atom_type_partial_charge
C1    C     C_R   0.908322 0.194924 0.993649 -0.154582
C2    C     C_R   0.024978 0.749321 0.935481 -0.106888
C3    C     C_R   0.297757 0.867654 0.298570 0.056711
C4    C     C_R   0.677607 0.214369 0.672853 0.052733
C5    C     C_R   0.324522 0.498015 0.048511 0.016283
C6    C     C_R   0.693609 0.497655 0.059205 0.068778
C7    C     C_R   0.045765 0.496272 0.322931 0.056402
C8    C     C_R   0.073850 0.502304 0.702257 0.072961
C9    C     C_R   0.943796 0.866416 0.841173 -0.224689
C10   C     C_R   0.832420 0.959695 0.915906 -0.222952
C11   C     C_R   0.127984 0.082420 0.733188 -0.137968
C12   C     C_R   0.818289 0.924851 0.188254 -0.168816
C13   C     C_R   0.040233 0.017408 0.738404 -0.206874
C14   C     C_R   0.861423 0.930096 0.119013 -0.209465
C15   C     C_R   0.724797 0.265707 0.245301 0.605783
C16   C     C_R   0.355779 0.847630 0.896413 0.652847
C17   C     C_R   0.829827 0.337233 0.332928 -0.290024
C18   C     C_R   0.315135 0.744984 0.807946 -0.334838
C19   C     C_R   0.913097 0.310900 0.339855 0.056101
C20   C     C_R   0.225385 0.707055 0.708800 0.055328
C21   C     C_R   0.888863 0.208479 0.263403 -0.257947
C22   C     C_R   0.182064 0.775421 0.696713 -0.167422
C23   C     C_R   0.295040 0.803914 0.204633 -0.151226
C24   C     C_R   0.685331 0.241971 0.775268 -0.133387
C25   C     C_R   0.784753 0.139065 0.173382 -0.142865
C26   C     C_R   0.225645 0.878950 0.783624 -0.232042
C27   C     C_R   0.703793 0.168881 0.163152 -0.218804
C28   C     C_R   0.311846 0.915017 0.883688 -0.239122
C29   C     C_R   0.054047 0.398902 0.524532 -0.238447
C30   C     C_R   0.164785 0.584371 0.520045 -0.246453
C31   C     C_R   0.108540 0.500192 0.619458 0.048641
C32   C     C_R   0.082856 0.489441 0.422629 0.055748
C33   C     C_R   0.171242 0.594629 0.618466 0.075603
C34   C     C_R   0.025442 0.395015 0.425478 0.065069
C35   C     C_R   0.054222 0.023629 0.837973 0.115197
C36   C     C_R   0.796487 0.858202 0.006213 0.111675
C37   C     C_R   0.246984 0.147247 0.922080 -0.143283
C38   C     C_R   0.645236 0.778571 0.033300 0.001208
C39   C     C_R   0.092003 0.980802 0.388005 -0.128098
C40   C     C_R   0.784948 0.984725 0.511523 -0.106265
C41   C     C_R   0.195144 0.023675 0.397698 -0.137601
C42   C     C_R   0.699241 0.002595 0.513460 -0.129819
C43   C     C_R   0.280823 0.026588 0.475895 0.115339
C44   C     C_R   0.672924 0.067732 0.472885 0.080572
C45   C     C_R   0.223873 0.407299 0.973665 -0.150150
C46   C     C_R   0.785774 0.589647 0.092085 -0.163819
C47   C     C_R   0.263589 0.991493 0.547872 -0.181153
C48   C     C_R   0.731220 0.112312 0.427579 -0.148591
C49   C     C_R   0.159443 0.945846 0.535566 -0.132009
C50   C     C_R   0.819386 0.097220 0.429504 -0.131660
C51   C     C_R   0.073530 0.940073 0.455411 -0.128424
C52   C     C_R   0.846349 0.033648 0.471449 -0.129796
C53   C     C_R   0.479926 0.133436 0.562737 -0.238268
C54   C     C_R   0.482995 0.008897 0.378273 -0.169989
C55   C     C_R   0.578856 0.145684 0.567374 0.077796
C56   C     C_R   0.384903 0.980072 0.380236 0.055238
C57   C     C_R   0.579821 0.082920 0.472640 0.028209
C58   C     C_R   0.382191 0.048497 0.470849 0.024365
C59   C     C_R   0.231728 0.145291 0.824062 -0.123462
C60   C     C_R   0.710126 0.849847 0.145583 0.000686
C61   C     C_R   0.838017 0.876049 0.933821 0.034148
C62   C     C_R   0.960688 0.966071 0.848856 0.019115
C63   C     C_R   0.158359 0.087668 0.929518 -0.140338
C64   C     C_R   0.688097 0.782150 0.963469 -0.173251
C65   C     C_R   0.901364 0.832664 0.902248 0.058184
C66   C     C_R   0.907207 0.016616 0.891924 0.050908
C67   C     C_R   0.060373 0.589675 0.314396 -0.123591
C68   C     C_R   0.011541 0.410987 0.704201 -0.140432
C69   C     C_3   0.495418 0.392596 0.029091 -0.125595
C70   C     C_3   0.531610 0.598556 0.109903 -0.202441
C71   C     C_3   0.432670 0.434565 0.966640 -0.186378
C72   C     C_3   0.595108 0.556895 0.173026 -0.104296
C73   C     C_3   0.425794 0.496676 0.067463 0.137118
C74   C     C_3   0.600665 0.495044 0.071473 0.180574
C75   C     C_3   0.486837 0.454255 0.130293 -0.038296
C76   C     C_3   0.538311 0.536136 0.008744 -0.151172
C77   C     C_R   0.314260 0.590294 0.066502 -0.065831
C78   C     C_R   0.697007 0.407733 0.999906 -0.122214
C79   C     C_R   0.978478 0.407786 0.219317 -0.112948
C80   C     C_R   0.095350 0.591561 0.792110 -0.122876
C81   C     C_R   0.207662 0.802501 0.299763 -0.139546
C82   C     C_R   0.781678 0.252894 0.687379 -0.109236
C83   C     C_R   0.998599 0.197681 0.901662 -0.133130
C84   C     C_R   0.929613 0.745755 0.024231 -0.139858
C85   C     C_R   0.939731 0.132517 0.930372 0.066695
C86   C     C_R   0.945894 0.774292 0.949090 0.053364
H1    H     H_    0.849042 0.166499 0.018016 0.102985
H2    H     H_    0.059831 0.760641 0.884839 0.100206
H3    H     H_    0.115469 0.084657 0.658965 0.136623
H4    H     H_    0.867553 0.981505 0.274507 0.115396
H5    H     H_    0.326804 0.195977 0.992847 0.165552
H6    H     H_    0.560000 0.724191 0.999450 0.154157
H7    H     H_    0.624831 0.117135 0.091454 0.227149
H8    H     H_    0.343491 0.994835 0.951111 0.204671
H9    H     H_    0.847673 0.414608 0.394584 0.173867
H10   H     H_    0.348700 0.692560 0.817950 0.166883
H11   H     H_    0.952100 0.186488 0.269091 0.136735
H12   H     H_    0.112646 0.747289 0.620657 0.128752
H13   H     H_    0.767652 0.063706 0.109931 0.193542
H14   H     H_    0.190891 0.930078 0.773695 0.180579
H15   H     H_    0.009314 0.324439 0.522131 0.124406
H16   H     H_    0.211222 0.656283 0.518728 0.133571
H17   H     H_    0.960905 0.967182 0.667184 0.116359
H18   H     H_    0.944439 0.991641 0.152615 0.122607
H19   H     H_    0.462621 0.420529 0.179480 0.145897
H20   H     H_    0.559601 0.562955 0.954426 0.113981
H21   H     H_    0.340989 0.830837 0.167282 0.174698
H22   H     H_    0.619895 0.224297 0.794406 0.096024
H23   H     H_    0.170472 0.092001 0.006588 0.128285
H24   H     H_    0.635985 0.729156 0.876366 0.120428
H25   H     H_    0.992699 0.903419 0.445236 0.103000
H26   H     H_    0.914205 0.021700 0.472035 0.100008
H27   H     H_    0.025978 0.975709 0.325598 0.111376
H28   H     H_    0.802966 0.932445 0.540539 0.102217
H29   H     H_    0.206984 0.049330 0.340954 0.117690
H30   H     H_    0.652748 0.965142 0.545703 0.114435
H31   H     H_    0.328521 0.991718 0.607600 0.125223
H32   H     H_    0.710452 0.161033 0.394123 0.156209
H33   H     H_    0.144885 0.913350 0.586972 0.125589
H34   H     H_    0.866810 0.134417 0.398337 0.130087
H35   H     H_    0.478388 0.183847 0.633588 0.126946
H36   H     H_    0.487921 0.959768 0.309764 0.138675
H37   H     H_    0.983692 0.828835 0.805894 0.129801
H38   H     H_    0.783552 0.991651 0.940178 0.134443
H39   H     H_    0.365081 0.385663 0.881433 0.124794
H40   H     H_    0.664541 0.607078 0.257260 0.135885
H41   H     H_    0.483748 0.308773 0.994900 0.145072
H42   H     H_    0.544250 0.682537 0.144764 0.131093
H43   H     H_    0.204586 0.323032 0.938604 0.130993
H44   H     H_    0.811780 0.672716 0.148898 0.106416
H45   H     H_    0.108793 0.673550 0.379219 0.097220
H46   H     H_    0.992461 0.327925 0.657184 0.099735
H47   H     H_    0.377452 0.674167 0.119776 0.139317
H48   H     H_    0.642898 0.323714 0.971903 0.103446
H49   H     H_    0.960461 0.325222 0.193387 0.126015
H50   H     H_    0.147494 0.676122 0.824621 0.119902
H51   H     H_    0.176937 0.824243 0.354551 0.133309
H52   H     H_    0.808129 0.255041 0.629030 0.125267
H53   H     H_    0.015531 0.173204 0.835701 0.125889
H54   H     H_    0.872820 0.748427 0.052730 0.125862
H55   H     H_    0.299913 0.192364 0.818298 0.112647
H56   H     H_    0.676254 0.849865 0.199514 0.118396
N1    N     N_R   0.947560 0.293820 0.002910 -0.043133
N2    N     N_R   0.052440 0.706180 0.997090 -0.041413
N3    N     N_R   0.208960 0.706170 0.152110 -0.045872
N4    N     N_R   0.791040 0.293830 0.847890 -0.040501
N5    N     N_R   0.154330 0.443160 0.946140 -0.044281
N6    N     N_R   0.845670 0.556840 0.053860 -0.040380
N7    N     N_R   0.002190 0.556820 0.208880 -0.040276
N8    N     N_R   0.997810 0.443180 0.791120 -0.044977
N9    N     N_R   0.210550 0.556810 0.002910 -0.039480
N10   N     N_R   0.789450 0.443190 0.997090 -0.041476
N11   N     N_R   0.945970 0.443180 0.152110 -0.042250
N12   N     N_R   0.054030 0.556820 0.847890 -0.044900
N13   N     N_R   0.151530 0.706170 0.208880 -0.044494
N14   N     N_R   0.848470 0.293830 0.791120 -0.046326
N15   N     N_R   0.004980 0.293810 0.946140 -0.043917
N16   N     N_R   0.995020 0.706190 0.053860 -0.042625
Ni1   Ni    Ni4+2 0.869690 0.369690 0.000000 0.220553
Ni2   Ni    Ni4+2 0.130310 0.630310 0.000000 0.247484
Ni3   Ni    Ni4+2 0.001390 0.369680 0.869810 0.211812
Ni4   Ni    Ni4+2 0.998610 0.630320 0.130190 0.219128
S1    S     S_3+6 0.620351 0.297573 0.239865 -0.083582
O1    O     O_2   0.662485 0.416454 0.274920 -0.341222
O2    O     O_2   0.525373 0.229455 0.126427 -0.349483
O3    O     O_3   0.580707 0.271815 0.325738 -0.536494
H57   H     H_    0.519694 0.287519 0.316515 0.370695
S2    S     S_3+6 0.460080 0.890236 0.023140 -0.125645
O4    O     O_2   0.437473 0.797669 0.046306 -0.393634
O5    O     O_2   0.563179 0.921987 0.016886 -0.362195
O6    O     O_3   0.471178 0.996880 0.122264 -0.534233
H58   H     H_    0.537160 0.020598 0.188524 0.372055

loop_
_geom_bond_atom_site_label_1
_geom_bond_atom_site_label_2
_ccdc_geom_bond_type
C16   C28   A    
C39   C51   A    
O6    H58   S    
C1    H1    S    
C22   H12   S    
C67   N7    A    
C2    N2    A    
C3    C23   A    
S1    O1    D    
C77   N9    A    
C66   C85   S    
C83   H53   S    
C78   N10   A    
C65   C86   S    
C39   C41   A    
C81   H51   S    
C23   N3    A    
C10   C66   A    
C42   C44   A    
C50   H34   S    
C12   H4    S    
C19   C21   A    
C84   C86   A    
C13   C35   A    
C10   H38   S    
C14   C36   A    
C71   C76   S    
C4    C24   A    
C6    C78   A    
C52   H26   S    
C38   H6    S    
C18   H10   S    
C7    C67   A    
C28   H8    S    
C2    C86   A    
C69   C71   S    
N7    N11   A    
C22   C26   A    
C43   C58   S    
C60   H56   S    
C76   H20   S    
C14   H18   S    
C25   H13   S    
S2    O6    S    
C40   H28   S    
C46   N6    A    
C39   H27   S    
C3    C81   A    
C50   C52   A    
C31   C33   A    
C2    H2    S    
C24   H22   S    
C13   H17   S    
N1    N15   A    
C82   N14   A    
S2    O5    D    
C54   H36   S    
N10   Ni1   S    
C41   C43   A    
C77   H47   S    
C41   H29   S    
C72   C75   S    
C11   C59   A    
C37   C63   A    
C6    C74   S    
C38   C64   A    
C53   C55   A    
N13   Ni4   S    
C1    C85   A    
C15   C27   A    
C54   C56   A    
C62   C66   A    
C9    C62   A    
S1    O3    S    
C72   C74   S    
N5    Ni3   S    
C71   C73   S    
N3    Ni2   S    
C84   N16   A    
C48   H32   S    
N4    Ni1   S    
C49   C51   A    
C40   C52   A    
C5    C45   A    
C29   C34   A    
C72   H40   S    
C68   H46   S    
N11   Ni1   S    
N5    N9    A    
N12   Ni2   S    
C1    N1    A    
C79   N11   A    
C21   H11   S    
C3    C56   S    
C11   H3    S    
C64   H24   S    
C83   N15   A    
C44   C57   S    
C69   H41   S    
C23   H21   S    
C30   H16   S    
C70   C73   S    
C29   H15   S    
C69   C74   S    
C16   C18   A    
N1    Ni1   S    
C78   H48   S    
C59   H55   S    
C37   C59   A    
C74   C76   S    
C38   C60   A    
C20   C33   S    
C9    H37   S    
C12   C60   A    
C42   H30   S    
S2    O4    D    
C83   C85   A    
C12   C14   A    
N14   Ni3   S    
C75   H19   S    
C55   C57   A    
C4    C55   S    
C70   C76   S    
O3    H57   S    
C27   H7    S    
C10   C61   A    
N2    Ni2   S    
C73   C75   S    
C5    C77   A    
C36   C61   S    
N15   Ni3   S    
C7    C79   A    
C70   H42   S    
C15   C17   A    
N8    Ni3   S    
C21   C25   A    
C51   H25   S    
C7    C32   S    
C6    C46   A    
C30   C33   A    
S1    O2    D    
C45   N5    A    
C8    C31   S    
C67   H45   S    
C17   H9    S    
N6    N10   A    
C20   C22   A    
C40   C42   A    
C19   C34   S    
C80   H50   S    
C46   H44   S    
C70   C72   S    
C53   C58   A    
C80   N12   A    
C47   C49   A    
C79   H49   S    
C26   C28   A    
C81   N13   A    
N6    Ni4   S    
N9    Ni2   S    
C8    C68   A    
C29   C31   A    
C24   N4    A    
C30   C32   A    
C11   C13   A    
C49   H33   S    
C43   C47   A    
C16   S2    S    
C45   H43   S    
C48   C50   A    
C17   C19   A    
C56   C58   A    
C69   C75   S    
C35   C62   S    
C18   C20   A    
C5    C73   S    
C9    C65   A    
C68   N8    A    
N16   Ni4   S    
C53   H35   S    
N3    N13   A    
C61   C65   A    
C47   H31   S    
C4    C82   A    
C84   H54   S    
C82   H52   S    
N8    N12   A    
C26   H14   S    
C8    C80   A    
C71   H39   S    
C35   C63   A    
N7    Ni4   S    
N4    N14   A    
C36   C64   A    
N2    N16   A    
C54   C57   A    
C15   S1    S    
C44   C48   A    
C37   H5    S    
C32   C34   A    
C63   H23   S    
C25   C27   A    
