data_mof_unit_65116.cif
_audit_creation_date              2012-12-10T17:19:45-0500
_audit_creation_method            fapswitch 2.2
_symmetry_space_group_name_H-M    P1
_symmetry_Int_Tables_number       1
_space_group_crystal_system       triclinic
_cell_length_a                    21.711304
_cell_length_b                    21.711304
_cell_length_c                    23.54685
_cell_angle_alpha                 90.000023
_cell_angle_beta                  90.000023
_cell_angle_gamma                 89.999962
_cell_volume                      11099.5311392

loop_
_atom_site_label
_atom_site_type_symbol
_atom_type_description
_atom_site_fract_x
_atom_site_fract_y
_atom_site_fract_z
_atom_type_partial_charge
C1    C     C_R   0.379947 1.000000 0.500000 0.866161
C2    C     C_R   1.000000 0.379947 0.500000 0.866161
C3    C     C_R   0.620053 1.000000 0.500000 0.866160
C4    C     C_R   1.000000 0.620053 0.500000 0.866160
C5    C     C_R   0.879947 0.500000 1.000000 0.866161
C6    C     C_R   0.500000 0.879947 0.000000 0.866161
C7    C     C_R   0.120053 0.500000 0.000000 0.866160
C8    C     C_R   0.500000 0.120053 0.000000 0.866160
C9    C     C_R   0.281703 0.959009 0.463472 0.081668
C10   C     C_R   0.040990 0.281704 0.463472 0.081668
C11   C     C_R   0.718296 0.040989 0.463471 0.081668
C12   C     C_R   0.959009 0.718296 0.463472 0.081668
C13   C     C_R   0.718296 0.959010 0.536528 0.081668
C14   C     C_R   0.959010 0.281704 0.536528 0.081667
C15   C     C_R   0.281704 0.040991 0.536528 0.081668
C16   C     C_R   0.040991 0.718296 0.536528 0.081668
C17   C     C_R   0.781704 0.459009 0.963472 0.081668
C18   C     C_R   0.540990 0.781704 0.963472 0.081668
C19   C     C_R   0.218296 0.540990 0.963471 0.081668
C20   C     C_R   0.459009 0.218296 0.963472 0.081668
C21   C     C_R   0.218296 0.459010 0.036528 0.081668
C22   C     C_R   0.459010 0.781704 0.036528 0.081667
C23   C     C_R   0.781704 0.540991 0.036528 0.081668
C24   C     C_R   0.540991 0.218296 0.036527 0.081668
C25   C     C_R   0.186008 0.000000 0.500000 -0.180557
C26   C     C_R   0.000000 0.186008 0.500000 -0.180559
C27   C     C_R   0.813992 1.000000 0.500000 -0.180559
C28   C     C_R   1.000000 0.813992 0.500000 -0.180558
C29   C     C_R   0.686008 0.500000 0.000000 -0.180557
C30   C     C_R   0.500000 0.686008 0.000000 -0.180559
C31   C     C_R   0.313992 0.500000 1.000000 -0.180559
C32   C     C_R   0.500000 0.313992 1.000000 -0.180558
C33   C     C_R   0.313595 1.000000 0.500000 -0.190951
C34   C     C_R   0.000000 0.313595 0.500000 -0.190949
C35   C     C_R   0.686404 1.000000 0.500000 -0.190949
C36   C     C_R   1.000000 0.686405 0.500000 -0.190951
C37   C     C_R   0.813595 0.500000 1.000000 -0.190951
C38   C     C_R   0.500000 0.813595 0.000000 -0.190949
C39   C     C_R   0.186405 0.500000 1.000000 -0.190949
C40   C     C_R   0.500000 0.186405 0.000000 -0.190951
C41   C     C_R   1.000000 0.120110 0.500000 0.857102
C42   C     C_R   0.879890 1.000000 0.500000 0.857102
C43   C     C_R   1.000000 0.879890 0.500000 0.857103
C44   C     C_R   0.120110 0.000000 0.500000 0.857103
C45   C     C_R   0.500000 0.620110 0.000000 0.857102
C46   C     C_R   0.379890 0.500000 0.000000 0.857102
C47   C     C_R   0.500000 0.379890 1.000000 0.857103
C48   C     C_R   0.620110 0.500000 0.000000 0.857103
C49   C     C_R   0.500000 1.000000 0.390695 0.884758
C50   C     C_R   0.000000 0.500000 0.390695 0.884758
C51   C     C_R   0.500000 1.000000 0.609305 0.884758
C52   C     C_R   0.000000 0.500000 0.609305 0.884757
C53   C     C_R   0.000000 0.500000 0.890695 0.884758
C54   C     C_R   0.500000 1.000000 0.890695 0.884758
C55   C     C_R   0.000000 0.500000 0.109305 0.884758
C56   C     C_R   0.500000 0.000000 0.109305 0.884757
C57   C     C_1   0.500000 1.000000 0.330448 -0.182339
C58   C     C_1   1.000000 0.500000 0.330448 -0.182339
C59   C     C_1   0.500000 1.000000 0.669552 -0.182339
C60   C     C_1   0.000000 0.500000 0.669552 -0.182339
C61   C     C_1   0.000000 0.500000 0.830448 -0.182339
C62   C     C_1   0.500000 1.000000 0.830448 -0.182339
C63   C     C_1   1.000000 0.500000 0.169552 -0.182339
C64   C     C_1   0.500000 1.000000 0.169552 -0.182339
C65   C     C_1   0.500000 1.000000 0.279654 0.013727
C66   C     C_1   1.000000 0.500000 0.279654 0.013727
C67   C     C_1   0.500000 1.000000 0.720346 0.013727
C68   C     C_1   1.000000 0.500000 0.720346 0.013727
C69   C     C_1   0.000000 0.500000 0.779654 0.013727
C70   C     C_1   0.500000 0.000000 0.779654 0.013727
C71   C     C_1   1.000000 0.500000 0.220346 0.013727
C72   C     C_1   0.500000 1.000000 0.220346 0.013727
C73   C     C_R   0.312016 0.921597 0.422671 -0.157419
C74   C     C_R   0.078401 0.312016 0.422670 -0.157420
C75   C     C_R   0.687983 0.078401 0.422669 -0.157420
C76   C     C_R   0.921597 0.687984 0.422671 -0.157420
C77   C     C_R   0.687984 0.921599 0.577330 -0.157420
C78   C     C_R   0.921599 0.312016 0.577330 -0.157420
C79   C     C_R   0.312016 0.078403 0.577329 -0.157420
C80   C     C_R   0.078403 0.687984 0.577329 -0.157419
C81   C     C_R   0.812016 0.421597 0.922671 -0.157419
C82   C     C_R   0.578401 0.812016 0.922670 -0.157420
C83   C     C_R   0.187983 0.578401 0.922670 -0.157420
C84   C     C_R   0.421597 0.187984 0.922671 -0.157419
C85   C     C_R   0.187984 0.421599 0.077330 -0.157420
C86   C     C_R   0.421599 0.812016 0.077330 -0.157420
C87   C     C_R   0.812016 0.578403 0.077329 -0.157419
C88   C     C_R   0.578403 0.187984 0.077329 -0.157419
C89   C     C_R   0.280241 0.876077 0.392958 -0.181442
C90   C     C_R   0.123919 0.280241 0.392955 -0.181442
C91   C     C_R   0.719758 0.123919 0.392954 -0.181442
C92   C     C_R   0.876078 0.719759 0.392957 -0.181443
C93   C     C_R   0.719759 0.876081 0.607045 -0.181442
C94   C     C_R   0.876081 0.280241 0.607045 -0.181442
C95   C     C_R   0.280241 0.123922 0.607043 -0.181443
C96   C     C_R   0.123923 0.719759 0.607042 -0.181442
C97   C     C_R   0.780241 0.376077 0.892958 -0.181442
C98   C     C_R   0.623919 0.780241 0.892955 -0.181442
C99   C     C_R   0.219758 0.623919 0.892954 -0.181442
C100  C     C_R   0.376078 0.219759 0.892957 -0.181443
C101  C     C_R   0.219759 0.376081 0.107045 -0.181442
C102  C     C_R   0.376081 0.780241 0.107045 -0.181442
C103  C     C_R   0.780241 0.623922 0.107042 -0.181443
C104  C     C_R   0.623923 0.219759 0.107042 -0.181442
C105  C     C_R   0.217688 0.867143 0.402723 0.062859
C106  C     C_R   0.132853 0.217688 0.402719 0.062859
C107  C     C_R   0.782312 0.132853 0.402719 0.062859
C108  C     C_R   0.867144 0.782312 0.402722 0.062860
C109  C     C_R   0.782312 0.867147 0.597281 0.062859
C110  C     C_R   0.867147 0.217688 0.597281 0.062859
C111  C     C_R   0.217688 0.132856 0.597278 0.062860
C112  C     C_R   0.132857 0.782312 0.597277 0.062859
C113  C     C_R   0.717688 0.367143 0.902723 0.062859
C114  C     C_R   0.632853 0.717688 0.902719 0.062859
C115  C     C_R   0.282312 0.632853 0.902719 0.062859
C116  C     C_R   0.367144 0.282312 0.902722 0.062860
C117  C     C_R   0.282312 0.367146 0.097281 0.062859
C118  C     C_R   0.367147 0.717688 0.097281 0.062859
C119  C     C_R   0.717688 0.632856 0.097278 0.062860
C120  C     C_R   0.632857 0.282312 0.097277 0.062859
C121  C     C_R   0.186305 0.906463 0.439575 -0.194011
C122  C     C_R   0.093534 0.186305 0.439572 -0.194012
C123  C     C_R   0.813695 0.093534 0.439572 -0.194012
C124  C     C_R   0.906464 0.813695 0.439574 -0.194012
C125  C     C_R   0.813695 0.906465 0.560428 -0.194012
C126  C     C_R   0.906466 0.186305 0.560428 -0.194012
C127  C     C_R   0.186305 0.093536 0.560426 -0.194012
C128  C     C_R   0.093536 0.813695 0.560425 -0.194011
C129  C     C_R   0.686305 0.406463 0.939575 -0.194011
C130  C     C_R   0.593534 0.686305 0.939572 -0.194012
C131  C     C_R   0.313695 0.593534 0.939572 -0.194012
C132  C     C_R   0.406464 0.313695 0.939574 -0.194012
C133  C     C_R   0.313695 0.406465 0.060428 -0.194012
C134  C     C_R   0.406466 0.686305 0.060428 -0.194012
C135  C     C_R   0.686305 0.593536 0.060426 -0.194012
C136  C     C_R   0.593536 0.313695 0.060425 -0.194011
C137  C     C_R   0.217487 0.955043 0.467885 0.059238
C138  C     C_R   0.044956 0.217487 0.467884 0.059238
C139  C     C_R   0.782513 0.044956 0.467883 0.059238
C140  C     C_R   0.955043 0.782513 0.467884 0.059238
C141  C     C_R   0.782513 0.955044 0.532116 0.059238
C142  C     C_R   0.955044 0.217487 0.532116 0.059238
C143  C     C_R   0.217487 0.044957 0.532115 0.059238
C144  C     C_R   0.044957 0.782513 0.532115 0.059238
C145  C     C_R   0.717487 0.455043 0.967885 0.059238
C146  C     C_R   0.544956 0.717487 0.967884 0.059238
C147  C     C_R   0.282513 0.544956 0.967884 0.059238
C148  C     C_R   0.455043 0.282513 0.967885 0.059238
C149  C     C_R   0.282513 0.455044 0.032116 0.059239
C150  C     C_R   0.455044 0.717487 0.032116 0.059238
C151  C     C_R   0.717487 0.544957 0.032115 0.059238
C152  C     C_R   0.544957 0.282513 0.032115 0.059238
H1    H     H_    0.360229 0.927148 0.412623 0.160615
H2    H     H_    0.072850 0.360229 0.412622 0.160614
H3    H     H_    0.639770 0.072850 0.412622 0.160614
H4    H     H_    0.927148 0.639771 0.412623 0.160615
H5    H     H_    0.639770 0.927150 0.587377 0.160614
H6    H     H_    0.927150 0.360230 0.587378 0.160614
H7    H     H_    0.360229 0.072852 0.587376 0.160615
H8    H     H_    0.072852 0.639771 0.587377 0.160614
H9    H     H_    0.860229 0.427148 0.912623 0.160615
H10   H     H_    0.572850 0.860230 0.912622 0.160614
H11   H     H_    0.139770 0.572850 0.912622 0.160614
H12   H     H_    0.427148 0.139771 0.912623 0.160615
H13   H     H_    0.139770 0.427150 0.087377 0.160614
H14   H     H_    0.427150 0.860230 0.087378 0.160614
H15   H     H_    0.860229 0.572852 0.087376 0.160615
H16   H     H_    0.572852 0.139771 0.087377 0.160614
H17   H     H_    0.137633 0.898272 0.445960 0.147504
H18   H     H_    0.101726 0.137633 0.445958 0.147507
H19   H     H_    0.862366 0.101726 0.445958 0.147507
H20   H     H_    0.898272 0.862367 0.445960 0.147505
H21   H     H_    0.862367 0.898273 0.554042 0.147507
H22   H     H_    0.898274 0.137634 0.554042 0.147507
H23   H     H_    0.137633 0.101727 0.554040 0.147505
H24   H     H_    0.101728 0.862367 0.554039 0.147504
H25   H     H_    0.637633 0.398272 0.945960 0.147504
H26   H     H_    0.601726 0.637633 0.945958 0.147507
H27   H     H_    0.362366 0.601726 0.945957 0.147507
H28   H     H_    0.398272 0.362367 0.945959 0.147505
H29   H     H_    0.362367 0.398274 0.054042 0.147507
H30   H     H_    0.398274 0.637634 0.054042 0.147507
H31   H     H_    0.637633 0.601727 0.054040 0.147505
H32   H     H_    0.601728 0.362367 0.054039 0.147504
O1    O     O_R   0.408370 0.051730 0.500010 -0.619887
O2    O     O_R   0.948270 0.408370 0.500010 -0.619887
O3    O     O_R   0.591630 0.948270 0.500010 -0.619887
O4    O     O_R   0.051730 0.591630 0.500010 -0.619887
O5    O     O_R   0.591630 0.051730 0.499990 -0.619887
O6    O     O_R   0.051730 0.408370 0.499990 -0.619887
O7    O     O_R   0.408370 0.948270 0.499990 -0.619887
O8    O     O_R   0.948270 0.591630 0.499990 -0.619887
O9    O     O_R   0.908370 0.551730 0.000010 -0.619887
O10   O     O_R   0.448270 0.908370 0.000010 -0.619887
O11   O     O_R   0.091630 0.448270 0.000010 -0.619887
O12   O     O_R   0.551730 0.091630 0.000010 -0.619887
O13   O     O_R   0.091630 0.551730 0.999990 -0.619887
O14   O     O_R   0.551730 0.908370 0.999990 -0.619887
O15   O     O_R   0.908370 0.448270 0.999990 -0.619887
O16   O     O_R   0.448270 0.091630 0.999990 -0.619887
O17   O     O_R   0.499980 0.051730 0.417240 -0.615730
O18   O     O_R   0.948270 0.499980 0.417240 -0.615730
O19   O     O_R   0.500020 0.948270 0.417240 -0.615730
O20   O     O_R   0.051730 0.500020 0.417240 -0.615730
O21   O     O_R   0.500020 0.051730 0.582760 -0.615730
O22   O     O_R   0.051730 0.499980 0.582760 -0.615730
O23   O     O_R   0.499980 0.948270 0.582760 -0.615729
O24   O     O_R   0.948270 0.500020 0.582760 -0.615730
O25   O     O_R   0.999980 0.551730 0.917240 -0.615729
O26   O     O_R   0.448270 0.999980 0.917240 -0.615730
O27   O     O_R   0.000020 0.448270 0.917240 -0.615730
O28   O     O_R   0.551730 0.000020 0.917240 -0.615730
O29   O     O_R   0.000020 0.551730 0.082760 -0.615730
O30   O     O_R   0.551730 0.999980 0.082760 -0.615730
O31   O     O_R   0.999980 0.448270 0.082760 -0.615729
O32   O     O_R   0.448270 0.000020 0.082760 -0.615730
O33   O     O_R   0.999980 0.091600 0.546760 -0.622147
O34   O     O_R   0.908400 0.999980 0.546760 -0.622146
O35   O     O_R   0.000020 0.908400 0.546760 -0.622145
O36   O     O_R   0.091600 0.000020 0.546760 -0.622147
O37   O     O_R   0.000020 0.091600 0.453240 -0.622147
O38   O     O_R   0.091600 0.999980 0.453240 -0.622146
O39   O     O_R   0.999980 0.908400 0.453240 -0.622146
O40   O     O_R   0.908400 0.000020 0.453240 -0.622146
O41   O     O_R   0.499980 0.591600 0.046760 -0.622147
O42   O     O_R   0.408400 0.499980 0.046760 -0.622146
O43   O     O_R   0.500020 0.408400 0.046760 -0.622145
O44   O     O_R   0.591600 0.500020 0.046760 -0.622147
O45   O     O_R   0.500020 0.591600 0.953240 -0.622146
O46   O     O_R   0.591600 0.499980 0.953240 -0.622146
O47   O     O_R   0.499980 0.408400 0.953240 -0.622146
O48   O     O_R   0.408400 0.500020 0.953240 -0.622146
Zn1   Zn    Zn3+2 0.500000 0.069080 0.500000 0.972807
Zn2   Zn    Zn3+2 0.930920 0.500000 0.500000 0.972807
Zn3   Zn    Zn3+2 0.500000 0.930920 0.500000 0.972807
Zn4   Zn    Zn3+2 0.069080 0.500000 0.500000 0.972807
Zn5   Zn    Zn3+2 0.000000 0.569080 0.000000 0.972807
Zn6   Zn    Zn3+2 0.430920 0.000000 0.000000 0.972807
Zn7   Zn    Zn3+2 0.000000 0.430920 0.000000 0.972807
Zn8   Zn    Zn3+2 0.569080 0.000000 0.000000 0.972807
Zn9   Zn    Zn3+2 1.000000 0.000000 0.562420 0.969787
Zn10  Zn    Zn3+2 1.000000 1.000000 0.437580 0.969787
Zn11  Zn    Zn3+2 0.500000 0.500000 0.062420 0.969787
Zn12  Zn    Zn3+2 0.500000 0.500000 0.937580 0.969787
H33   H     H_    0.304758 0.152669 0.637118 0.146412
H34   H     H_    0.847335 0.304759 0.637121 0.146412
H35   H     H_    0.695242 0.847334 0.637121 0.146412
H36   H     H_    0.152670 0.695242 0.637117 0.146412
H37   H     H_    0.695241 0.152665 0.362878 0.146412
H38   H     H_    0.152665 0.304758 0.362879 0.146412
H39   H     H_    0.304758 0.847330 0.362882 0.146412
H40   H     H_    0.847331 0.695242 0.362882 0.146412
H41   H     H_    0.804758 0.652669 0.137118 0.146412
H42   H     H_    0.347335 0.804759 0.137121 0.146412
H43   H     H_    0.195242 0.347334 0.137121 0.146412
H44   H     H_    0.652670 0.195242 0.137117 0.146412
H45   H     H_    0.195241 0.652665 0.862878 0.146412
H46   H     H_    0.652665 0.804758 0.862879 0.146412
H47   H     H_    0.804758 0.347330 0.862882 0.146412
H48   H     H_    0.347331 0.195242 0.862882 0.146412
C153  C     C_1   0.185192 0.818415 0.374008 0.155318
N1    N     N_1   0.159015 0.779257 0.351002 -0.185780
C154  C     C_1   0.181579 0.185192 0.374003 0.155319
N2    N     N_1   0.220735 0.159015 0.350994 -0.185781
C155  C     C_1   0.814807 0.181579 0.374002 0.155319
N3    N     N_1   0.840984 0.220735 0.350994 -0.185781
C156  C     C_1   0.818417 0.814808 0.374007 0.155319
N4    N     N_1   0.779260 0.840985 0.350999 -0.185780
C157  C     C_1   0.814808 0.818420 0.625997 0.155319
N5    N     N_1   0.840985 0.779265 0.649006 -0.185781
C158  C     C_1   0.818420 0.185193 0.625998 0.155319
N6    N     N_1   0.779265 0.159016 0.649006 -0.185781
C159  C     C_1   0.185192 0.181583 0.625993 0.155319
N7    N     N_1   0.159015 0.220740 0.649001 -0.185780
C160  C     C_1   0.181585 0.814808 0.625992 0.155318
N8    N     N_1   0.220742 0.840985 0.648998 -0.185780
C161  C     C_1   0.685192 0.318415 0.874008 0.155318
N9    N     N_1   0.659015 0.279257 0.851002 -0.185780
C162  C     C_1   0.681579 0.685192 0.874003 0.155319
N10   N     N_1   0.720735 0.659015 0.850994 -0.185781
C163  C     C_1   0.314807 0.681579 0.874002 0.155319
N11   N     N_1   0.340984 0.720735 0.850994 -0.185780
C164  C     C_1   0.318416 0.314808 0.874007 0.155319
N12   N     N_1   0.279260 0.340985 0.850999 -0.185781
C165  C     C_1   0.314808 0.318420 0.125997 0.155319
N13   N     N_1   0.340985 0.279265 0.149006 -0.185781
C166  C     C_1   0.318420 0.685193 0.125998 0.155319
N14   N     N_1   0.279265 0.659016 0.149006 -0.185781
C167  C     C_1   0.685192 0.681583 0.125993 0.155319
N15   N     N_1   0.659015 0.720740 0.149001 -0.185781
C168  C     C_1   0.681585 0.314808 0.125992 0.155318
N16   N     N_1   0.720742 0.340985 0.148998 -0.185779

loop_
_geom_bond_atom_site_label_1
_geom_bond_atom_site_label_2
_ccdc_geom_bond_type
C88   C104  A    
O1    Zn1   S    
C100  H48   S    
C93   H35   S    
C77   C93   A    
C5    C37   S    
C130  C146  A    
C2    O6    A    
C114  C130  A    
C118  C134  A    
C4    O8    A    
C30   C45   S    
C121  H17   S    
C168  N16   T    
C44   O36   A    
C112  C160  S    
C135  H31   S    
C125  H21   S    
C56   O32   A    
C14   C142  A    
O38   Zn10  S    
O23   Zn3   S    
C154  N2    T    
C5    O15   A    
C49   O19   A    
C115  C131  A    
C115  C163  S    
O19   Zn3   S    
C90   H38   S    
C74   H2    S    
C113  C161  S    
C16   C36   A    
C113  C129  A    
C4    O4    A    
C52   O22   A    
O26   Zn6   S    
O11   Zn7   S    
C101  H43   S    
C42   O40   A    
O25   Zn5   S    
C13   C35   A    
O29   Zn5   S    
C3    O5    A    
C79   H7    S    
C110  C158  S    
C31   C149  A    
C51   O23   A    
C80   H8    S    
C29   C151  A    
C99   H45   S    
O39   Zn10  S    
O7    Zn3   S    
C158  N6    T    
C134  C150  A    
C53   O25   A    
C123  C139  A    
C14   C78   A    
C49   C57   S    
C62   C70   T    
C27   C141  A    
O22   Zn4   S    
C95   C111  A    
O34   Zn9   S    
C121  C137  A    
O21   Zn1   S    
C11   C139  A    
O3    Zn3   S    
C22   C150  A    
C109  C157  S    
C28   C140  A    
C24   C152  A    
C59   C67   T    
C20   C148  A    
C9    C137  A    
C11   C35   A    
C92   C108  A    
C15   C79   A    
C160  N8    T    
C112  C128  A    
C125  C141  A    
C68   C69   S    
C88   H16   S    
C31   C46   S    
C55   C63   S    
C107  C155  S    
C26   C41   S    
C162  N10   T    
C12   C140  A    
C131  C147  A    
C28   C144  A    
C107  C123  A    
C12   C36   A    
C42   O34   A    
C52   C60   S    
C155  N3    T    
C129  C145  A    
C32   C152  A    
C84   H12   S    
C75   C91   A    
O12   Zn8   S    
C58   C66   T    
C111  C159  S    
C31   C147  A    
C10   C138  A    
C98   H46   S    
C22   C86   A    
C50   O18   A    
C117  C133  A    
O42   Zn11  S    
C122  H18   S    
C23   C87   A    
C157  N5    T    
C55   O31   A    
C9    C33   A    
C82   C98   A    
C136  H32   S    
C102  C118  A    
C25   C143  A    
C96   H36   S    
C9    C73   A    
C108  C124  A    
C19   C83   A    
C25   C44   S    
C87   H15   S    
C136  C152  A    
C78   H6    S    
C32   C148  A    
C30   C146  A    
C51   C59   S    
C13   C77   A    
O37   Zn10  S    
C92   H40   S    
C127  H23   S    
C49   O17   A    
C128  H24   S    
C46   O48   A    
C52   O24   A    
C29   C48   S    
C1    C33   S    
C50   C58   S    
C91   C107  A    
C133  C149  A    
C4    C36   S    
C122  C138  A    
C44   O38   A    
C6    O14   A    
O45   Zn12  S    
C131  H27   S    
C7    O11   A    
C127  C143  A    
C82   H10   S    
C130  H26   S    
C163  N11   T    
C23   C37   A    
C129  H25   S    
C94   C110  A    
C21   C85   A    
C27   C139  A    
C25   C137  A    
O35   Zn9   S    
C3    O3    A    
C134  H30   S    
C16   C80   A    
O33   Zn9   S    
C84   C100  A    
C80   C96   A    
C7    O13   A    
C108  C156  S    
O30   Zn8   S    
C2    O2    A    
C79   C95   A    
C165  N13   T    
C120  C168  S    
O18   Zn2   S    
C47   O43   A    
C94   H34   S    
O17   Zn1   S    
C66   C71   S    
C116  C132  A    
C20   C40   A    
C3    C35   S    
C53   O27   A    
C117  C165  S    
C100  C116  A    
C106  C122  A    
C6    C38   S    
C167  N15   T    
C46   O42   A    
C105  C121  A    
C21   C149  A    
C10   C34   A    
C45   O41   A    
O10   Zn6   S    
C128  C144  A    
O9    Zn5   S    
C118  C166  S    
O28   Zn8   S    
O14   Zn8   S    
C114  C162  S    
C110  C126  A    
C15   C143  A    
C1    O7    A    
C47   O47   A    
C109  C125  A    
C76   C92   A    
C73   H1    S    
C164  N12   T    
C13   C141  A    
C20   C84   A    
C166  N14   T    
C111  C127  A    
C17   C145  A    
C103  H41   S    
C32   C47   S    
C87   C103  A    
C8    O16   A    
O31   Zn7   S    
C17   C37   A    
C19   C39   A    
C53   C61   S    
C86   C102  A    
O24   Zn2   S    
C12   C76   A    
C6    O10   A    
C85   C101  A    
C97   H47   S    
C5    O9    A    
C78   C94   A    
C91   H37   S    
C104  C120  A    
C61   C69   T    
C135  C151  A    
C83   H11   S    
C24   C40   A    
C17   C81   A    
C89   H39   S    
C30   C150  A    
C16   C144  A    
O48   Zn12  S    
C132  C148  A    
C81   H9    S    
C21   C39   A    
C24   C88   A    
C103  C119  A    
C124  C140  A    
C26   C138  A    
C57   C65   T    
C18   C146  A    
O4    Zn4   S    
C14   C34   A    
C55   O29   A    
O13   Zn5   S    
C156  N4    T    
C51   O21   A    
O8    Zn2   S    
C133  H29   S    
O40   Zn10  S    
C1    O1    A    
C50   O20   A    
O41   Zn11  S    
C65   C72   S    
C54   C62   S    
O36   Zn9   S    
C28   C43   S    
C102  H42   S    
C56   O30   A    
C104  H44   S    
C161  N9    T    
C132  H28   S    
C67   C70   S    
C101  C117  A    
O5    Zn1   S    
C119  C167  S    
C19   C147  A    
O47   Zn12  S    
C18   C38   A    
C85   H13   S    
C73   C89   A    
O20   Zn4   S    
C11   C75   A    
C95   H33   S    
O43   Zn11  S    
C43   O39   A    
C10   C74   A    
C27   C42   S    
C2    C34   S    
C56   C64   S    
C153  N1    T    
O44   Zn11  S    
C81   C97   A    
O32   Zn6   S    
C48   O44   A    
C74   C90   A    
C99   C115  A    
C54   O28   A    
C106  C154  S    
C18   C82   A    
C76   H4    S    
C126  H22   S    
C8    O12   A    
O27   Zn7   S    
C124  H20   S    
C64   C72   T    
C45   O45   A    
C126  C142  A    
O16   Zn6   S    
C119  C135  A    
O46   Zn12  S    
C90   C106  A    
C23   C151  A    
C75   H3    S    
C54   O26   A    
O6    Zn4   S    
C86   H14   S    
C60   C68   T    
C105  C153  S    
C89   C105  A    
O15   Zn7   S    
C7    C39   S    
O2    Zn2   S    
C77   H5    S    
C116  C164  S    
C83   C99   A    
C8    C40   S    
C98   C114  A    
C120  C136  A    
C26   C142  A    
C43   O35   A    
C97   C113  A    
C63   C71   T    
C15   C33   A    
C41   O37   A    
C96   C112  A    
C48   O46   A    
C29   C145  A    
C93   C109  A    
C41   O33   A    
C123  H19   S    
C22   C38   A    
C159  N7    T    
