data_mof_unit_5555.cif
_audit_creation_date              2013-03-05T16:05:14-0500
_audit_creation_method            fapswitch 2.2
_symmetry_space_group_name_H-M    P1
_symmetry_Int_Tables_number       1
_space_group_crystal_system       triclinic
_cell_length_a                    11.542832
_cell_length_b                    14.986889
_cell_length_c                    15.467357
_cell_angle_alpha                 82.37266
_cell_angle_beta                  89.653827
_cell_angle_gamma                 104.180182
_cell_volume                      2569.16397945

loop_
_atom_site_label
_atom_site_type_symbol
_atom_site_description
_atom_site_fract_x
_atom_site_fract_y
_atom_site_fract_z
_atom_type_partial_charge
O1    O     O_R   0.466720 0.383110 0.605620 -0.615528
O2    O     O_R   0.533280 0.616890 0.394380 -0.616165
O3    O     O_R   0.509090 0.531900 0.639510 -0.626432
O4    O     O_R   0.490910 0.468100 0.360490 -0.626372
C1    C     C_R   0.481325 0.441873 0.662211 0.899082
C2    C     C_R   0.513542 0.558056 0.337915 0.898513
O5    O     O_R   0.644370 0.425610 0.483050 -0.611237
O6    O     O_R   0.355630 0.574390 0.516950 -0.613644
O7    O     O_R   0.686740 0.574390 0.516930 -0.607197
O8    O     O_R   0.313260 0.425610 0.483070 -0.609273
C3    C     C_R   0.717993 0.500850 0.500165 0.906916
C4    C     C_R   0.282002 0.499139 0.499850 0.903195
Zn1   Zn    Zn3+2 0.471710 0.400660 0.477370 0.954541
Zn2   Zn    Zn3+2 0.528290 0.599340 0.522630 0.953649
C5    C     C_1   0.839054 0.502218 0.500572 -0.174235
C6    C     C_1   0.160940 0.497734 0.499468 -0.172697
C7    C     C_1   0.940987 0.501159 0.500332 0.007739
C8    C     C_1   0.058995 0.498750 0.499719 0.007183
C9    C     C_R   0.452187 0.407417 0.754579 -0.118641
C10   C     C_R   0.505534 0.592875 0.245944 -0.118818
C11   C     C_R   0.352226 0.287790 0.871318 0.476216
C12   C     C_R   0.527183 0.718779 0.126177 0.469333
C13   C     C_R   0.391400 0.315186 0.783474 -0.289315
C14   C     C_R   0.537257 0.687946 0.214661 -0.276632
C15   C     C_R   0.472274 0.472297 0.812686 -0.260522
C16   C     C_R   0.460265 0.528764 0.189646 -0.264790
C17   C     C_R   0.423295 0.449820 0.897548 0.031466
C18   C     C_R   0.449395 0.556889 0.101164 0.032387
C19   C     C_R   0.367040 0.355581 0.928415 0.059401
C20   C     C_R   0.488578 0.652923 0.068437 0.055184
C21   C     C_R   0.434056 0.518796 0.953269 0.108035
C22   C     C_R   0.410654 0.490523 0.043560 0.106585
C23   C     C_R   0.351569 0.396744 0.073120 -0.250167
C24   C     C_R   0.467101 0.614996 0.921641 -0.245438
C25   C     C_R   0.328048 0.330908 0.015947 -0.185112
C26   C     C_R   0.491166 0.680938 0.978567 -0.192190
H1    H     H_    0.282806 0.259914 0.041396 0.193707
H2    H     H_    0.517135 0.753809 0.951580 0.190596
H3    H     H_    0.439697 0.455946 0.215156 0.169966
H4    H     H_    0.526954 0.541088 0.790435 0.168265
H5    H     H_    0.571974 0.738304 0.258198 0.179301
H6    H     H_    0.371769 0.265091 0.737827 0.178184
H7    H     H_    0.319403 0.372994 0.139935 0.145610
H8    H     H_    0.472150 0.641132 0.852857 0.152361
N1    N     N_R   0.566020 0.731700 0.552730 -0.118339
N2    N     N_R   0.433980 0.268300 0.447270 -0.117644
C27   C     C_R   0.687641 0.844782 0.629180 -0.207478
C28   C     C_R   0.313291 0.155907 0.369572 -0.211280
C29   C     C_R   0.648999 0.753616 0.613026 -0.001480
C30   C     C_R   0.351083 0.246743 0.386822 0.003402
C31   C     C_R   0.511807 0.794460 0.511284 0.035271
C32   C     C_R   0.488929 0.205556 0.487820 0.035022
C33   C     C_R   0.539241 0.886336 0.530724 -0.019794
C34   C     C_R   0.462086 0.114042 0.467432 -0.020201
C35   C     C_R   0.637914 0.913303 0.584043 -0.037480
C36   C     C_R   0.363628 0.087312 0.413880 -0.036139
C37   C     C_R   0.476127 0.952428 0.495679 -0.158093
C38   C     C_R   0.525604 0.048017 0.501848 -0.159329
C39   C     C_R   0.638908 0.074685 0.539746 0.374805
C40   C     C_R   0.363131 0.925899 0.457283 0.373312
C41   C     C_R   0.688370 0.007988 0.587571 0.216409
C42   C     C_R   0.313991 0.992725 0.409342 0.215308
H9    H     H_    0.548438 0.227547 0.538559 0.190125
H10   H     H_    0.452602 0.772148 0.460491 0.188799
H11   H     H_    0.310811 0.299685 0.354759 0.131103
H12   H     H_    0.688933 0.700728 0.645605 0.136648
H13   H     H_    0.757366 0.861037 0.675175 0.191427
H14   H     H_    0.243734 0.139958 0.323399 0.187759
O9    O     O_3   0.708005 0.165200 0.524945 -0.596035
C43   C     C_3   0.773338 0.177752 0.444838 0.124960
H15   H     H_    0.712176 0.166801 0.389622 0.132179
H16   H     H_    0.832885 0.129177 0.446731 0.179781
C44   C     C_3   0.851174 0.276512 0.427957 -0.756959
H17   H     H_    0.912274 0.290199 0.482528 0.276678
H18   H     H_    0.905394 0.286396 0.366297 0.200437
H19   H     H_    0.793958 0.326531 0.421932 0.257691
O10   O     O_3   0.293837 0.835448 0.471850 -0.597884
C45   C     C_3   0.227214 0.823180 0.551360 0.124606
H20   H     H_    0.166710 0.871081 0.548171 0.182055
H21   H     H_    0.287338 0.835315 0.607001 0.130397
C46   C     C_3   0.150637 0.724058 0.568774 -0.759686
H22   H     H_    0.208808 0.674785 0.576405 0.257787
H23   H     H_    0.095061 0.714479 0.629739 0.201763
H24   H     H_    0.090884 0.709063 0.513709 0.276476
O11   O     O_3   0.288127 0.197446 0.899364 -0.604977
C47   C     C_3   0.365193 0.137267 0.900495 0.081667
H25   H     H_    0.442894 0.159387 0.941963 0.139816
H26   H     H_    0.398146 0.134661 0.833333 0.150776
C48   C     C_3   0.296535 0.039596 0.938475 -0.776404
H27   H     H_    0.217227 0.016135 0.899336 0.272875
H28   H     H_    0.354827 0.990823 0.937206 0.201019
H29   H     H_    0.266476 0.038647 0.007020 0.257941
O12   O     O_3   0.567194 0.812345 0.094923 -0.611606
C49   C     C_3   0.479228 0.857996 0.115395 0.092786
H30   H     H_    0.459380 0.848511 0.187109 0.159451
H31   H     H_    0.395261 0.831700 0.081578 0.146113
C50   C     C_3   0.524777 0.961586 0.084725 -0.791766
H32   H     H_    0.545198 0.973962 0.013242 0.254384
H33   H     H_    0.455733 0.998198 0.099445 0.211827
H34   H     H_    0.607237 0.990065 0.118849 0.264581
N3    N     N_R   0.797776 0.038342 0.631199 0.216888
O13   O     O_R   0.892786 0.012433 0.610468 -0.389904
O14   O     O_R   0.807917 0.103505 0.680547 -0.340993
N4    N     N_R   0.205541 0.962451 0.364624 0.215400
O15   O     O_R   0.109551 0.987106 0.385262 -0.389547
O16   O     O_R   0.197220 0.898312 0.314313 -0.359720

loop_
_geom_bond_atom_site_label_1
_geom_bond_atom_site_label_2
_geom_bond_distance
_ccdc_geom_bond_type
O12   C49   1.411862 S    
C17   C19   1.418530 A    
C44   H17   1.110950 S    
C9    C13   1.399901 A    
C50   H34   1.110658 S    
N4    O16   1.301175 A    
C46   H22   1.109440 S    
C27   C29   1.386203 A    
O11   C47   1.412130 S    
O5    C3    1.294703 A    
N3    O13   1.301439 A    
C13   H6    1.082967 S    
O1    C1    1.305318 A    
C25   H1    1.083434 S    
C15   H4    1.078931 S    
Zn1   N2    2.041003 S    
C23   C25   1.390142 A    
C45   H21   1.114596 S    
C16   H3    1.077338 S    
N1    C31   1.349228 A    
N2    C32   1.349214 A    
C40   C42   1.400308 A    
O4    Zn1   1.933715 S    
C50   H33   1.110530 S    
C3    C5    1.392564 S    
C4    C6    1.392457 S    
C43   H15   1.114659 S    
C48   H28   1.109971 S    
C24   C26   1.388718 A    
C32   H9    1.077319 S    
C28   C30   1.386230 A    
N3    O14   1.301152 A    
C14   H5    1.083349 S    
C44   H18   1.110444 S    
O2    C2    1.304045 A    
O2    Zn2   1.964742 S    
C27   H13   1.081693 S    
N4    O15   1.301419 A    
C46   H23   1.110389 S    
C32   C34   1.408648 A    
C50   H32   1.110595 S    
Zn2   N1    2.041002 S    
C42   N4    1.437640 S    
C33   C35   1.419507 A    
C11   O11   1.385009 S    
C40   O10   1.383342 S    
C39   C41   1.400257 A    
C29   H12   1.081860 S    
C47   H26   1.112924 S    
C17   C21   1.414835 A    
C23   H7    1.079611 S    
C10   C14   1.399118 A    
C18   C22   1.416063 A    
C24   H8    1.079895 S    
O4    C2    1.307328 A    
C33   C37   1.421781 A    
C45   H20   1.114537 S    
C37   C40   1.424766 A    
C49   C50   1.520937 S    
C38   C39   1.424493 A    
O10   C45   1.413118 S    
C11   C19   1.412890 A    
O8    Zn1   1.958204 S    
C31   C33   1.408565 A    
C41   N3    1.437853 S    
O7    Zn2   1.958205 S    
C21   C22   1.408949 A    
N1    C29   1.353904 A    
O6    C4    1.294762 A    
C43   C44   1.519581 S    
C7    C8    1.371444 S    
C21   C24   1.415806 A    
C49   H30   1.114541 S    
C28   H14   1.081676 S    
C48   H29   1.110751 S    
C49   H31   1.114446 S    
O7    C3    1.296772 A    
O3    Zn2   1.933717 S    
O8    C4    1.296720 A    
C39   O9    1.383477 S    
C11   C13   1.404517 A    
C12   O12   1.383250 S    
C12   C14   1.400180 A    
O1    Zn1   1.964742 S    
C46   H24   1.110665 S    
C27   C35   1.405260 A    
C34   C38   1.421395 A    
C28   C36   1.405182 A    
N2    C30   1.354130 A    
O6    Zn2   1.940424 S    
C12   C20   1.411962 A    
C47   H25   1.115091 S    
C31   H10   1.077184 S    
O3    C1    1.306679 A    
C47   C48   1.521046 S    
C34   C36   1.419351 A    
C5    C7    1.180577 T    
C1    C9    1.460889 S    
C15   C17   1.391521 A    
C2    C10   1.460364 S    
C19   C25   1.396620 A    
C16   C18   1.393311 A    
C20   C26   1.395652 A    
C22   C23   1.416157 A    
C26   H2    1.083465 S    
C45   C46   1.519284 S    
C37   C38   1.422559 A    
C10   C16   1.391428 A    
C35   C41   1.404229 A    
C18   C20   1.420257 A    
C44   H19   1.109752 S    
C36   C42   1.404161 A    
O9    C43   1.413035 S    
C9    C15   1.389620 A    
C30   H11   1.081948 S    
O5    Zn1   1.940424 S    
C6    C8    1.180545 T    
C43   H16   1.114890 S    
C48   H27   1.110698 S    
