data_mof_unit_63717.cif
_audit_creation_date              2013-03-05T16:45:14-0500
_audit_creation_method            fapswitch 2.2
_symmetry_space_group_name_H-M    P1
_symmetry_Int_Tables_number       1
_space_group_crystal_system       triclinic
_cell_length_a                    19.205737
_cell_length_b                    19.188943
_cell_length_c                    19.22117
_cell_angle_alpha                 94.87831
_cell_angle_beta                  90.154533
_cell_angle_gamma                 85.21328
_cell_volume                      7033.38121737

loop_
_atom_site_label
_atom_site_type_symbol
_atom_site_description
_atom_site_fract_x
_atom_site_fract_y
_atom_site_fract_z
_atom_type_partial_charge
Zn1   Zn    Zn3+2 0.558430 0.558420 0.558430 0.974808
Zn2   Zn    Zn3+2 0.437090 0.558800 0.446440 1.026300
Zn3   Zn    Zn3+2 0.446060 0.446060 0.558420 0.964543
Zn4   Zn    Zn3+2 0.558420 0.436720 0.436720 1.044849
O1    O     O_3   0.500000 0.500000 0.500000 -0.493324
O2    O     O_R   0.536460 0.451300 0.340640 -0.622595
O3    O     O_R   0.545320 0.545300 0.655970 -0.647227
O4    O     O_R   0.451560 0.656600 0.467300 -0.618671
O5    O     O_R   0.466660 0.346810 0.536100 -0.654842
O6    O     O_R   0.340900 0.545940 0.467290 -0.648070
O7    O     O_R   0.655960 0.450920 0.450930 -0.634430
O8    O     O_R   0.347180 0.467040 0.545670 -0.643496
O9    O     O_R   0.655970 0.536100 0.536110 -0.647059
O10   O     O_R   0.536480 0.656330 0.545680 -0.650717
O11   O     O_R   0.545300 0.340270 0.450920 -0.591699
O12   O     O_R   0.451550 0.536740 0.347440 -0.603119
O13   O     O_R   0.466670 0.466660 0.655960 -0.646964
C1    C     C_R   0.493391 0.493265 0.310843 0.872307
C2    C     C_R   0.507224 0.507375 0.689268 0.793802
C3    C     C_R   0.492464 0.689941 0.508042 0.813557
C4    C     C_R   0.506956 0.309752 0.491373 0.829489
C5    C     C_R   0.310751 0.508194 0.507829 0.787104
C6    C     C_R   0.689410 0.491857 0.492307 0.801196
C7    C     C_R   0.766168 0.486920 0.491600 -0.006838
C8    C     C_R   0.801623 0.539886 0.527550 -0.215921
C9    C     C_R   0.874256 0.534801 0.529177 -0.164232
C10   C     C_R   0.912978 0.476258 0.494815 0.318155
C11   C     C_R   0.877545 0.423016 0.459761 -0.184247
C12   C     C_R   0.804632 0.428494 0.457464 -0.197789
C13   C     C_R   0.126318 0.459599 0.529658 -0.163310
C14   C     C_R   0.199165 0.456356 0.531154 -0.220266
C15   C     C_R   0.087690 0.519524 0.507760 0.319449
N1    N     N_2   0.987120 0.468798 0.495662 -0.196345
N2    N     N_2   0.013749 0.525875 0.505759 -0.199764
C16   C     C_R   0.234174 0.512354 0.510045 0.003717
H1    H     H_    0.228088 0.409676 0.547483 0.165403
H2    H     H_    0.100303 0.415708 0.545909 0.153741
H3    H     H_    0.906601 0.377452 0.433664 0.152831
H4    H     H_    0.778408 0.386605 0.429969 0.181258
C17   C     C_R   0.195444 0.572343 0.489336 -0.205798
C18   C     C_R   0.122762 0.576111 0.489168 -0.186632
H5    H     H_    0.221369 0.616513 0.473541 0.166159
H6    H     H_    0.899990 0.576268 0.557944 0.153910
H7    H     H_    0.093563 0.622824 0.473255 0.149015
H8    H     H_    0.773224 0.585324 0.554612 0.168919
C19   C     C_R   0.508725 0.511236 0.765904 -0.001319
C20   C     C_R   0.474562 0.462880 0.801400 -0.220681
C21   C     C_R   0.474341 0.466975 0.873989 -0.165094
C22   C     C_R   0.508394 0.519907 0.912578 0.323057
C23   C     C_R   0.542023 0.568322 0.877079 -0.185250
C24   C     C_R   0.542719 0.563876 0.804265 -0.210457
C25   C     C_R   0.483777 0.548272 0.126456 -0.222633
C26   C     C_R   0.485457 0.553661 0.199557 0.278827
C27   C     C_R   0.490809 0.482127 0.088044 0.263262
N3    N     N_2   0.508723 0.527149 0.986667 -0.187000
N4    N     N_2   0.491284 0.474544 0.014043 -0.186099
C28   C     C_R   0.492634 0.491492 0.234551 -0.133380
H9    H     H_    0.478359 0.595822 0.099651 0.192073
H10   H     H_    0.567981 0.609524 0.906050 0.152254
H11   H     H_    0.569082 0.602080 0.778095 0.169564
C29   C     C_R   0.498621 0.425881 0.195929 -0.236490
C30   C     C_R   0.497048 0.421368 0.123359 -0.173245
H12   H     H_    0.503786 0.377888 0.222114 0.203454
H13   H     H_    0.446927 0.429188 0.899648 0.155422
H14   H     H_    0.501709 0.370251 0.094369 0.162760
H15   H     H_    0.447808 0.421842 0.773101 0.169924
C31   C     C_R   0.511243 0.232198 0.489184 -0.132180
C32   C     C_R   0.478826 0.201310 0.543019 -0.261381
C33   C     C_R   0.484231 0.128848 0.545578 -0.168347
C34   C     C_R   0.523019 0.085415 0.494623 0.266698
C35   C     C_R   0.556546 0.115449 0.441699 -0.241171
C36   C     C_R   0.549454 0.188162 0.436890 0.294157
C37   C     C_R   0.542714 0.876040 0.533893 -0.160864
C38   C     C_R   0.546362 0.803049 0.532645 -0.210162
C39   C     C_R   0.480370 0.913745 0.515202 0.315660
N5    N     N_2   0.529059 0.011382 0.495026 -0.176689
N6    N     N_2   0.474657 0.987743 0.515000 -0.191792
C40   C     C_R   0.488262 0.766852 0.511785 0.004088
H16   H     H_    0.594874 0.774857 0.546726 0.163932
H17   H     H_    0.588245 0.903068 0.549628 0.153730
H18   H     H_    0.585688 0.081613 0.402009 0.186513
C41   C     C_R   0.425892 0.804679 0.494188 -0.189784
C42   C     C_R   0.421795 0.877717 0.497013 -0.176401
H19   H     H_    0.380165 0.777797 0.478760 0.164247
H20   H     H_    0.458864 0.106715 0.587839 0.160364
H21   H     H_    0.373347 0.906301 0.483392 0.150259
H22   H     H_    0.449555 0.233254 0.583932 0.187333
N7    N     N_R   0.578737 0.215388 0.377233 0.223236
O14   O     O_R   0.641136 0.191956 0.355539 -0.380505
O15   O     O_R   0.538393 0.251546 0.336506 -0.381672
N8    N     N_R   0.483103 0.622134 0.236759 0.218643
O16   O     O_R   0.525348 0.634388 0.288592 -0.389854
O17   O     O_R   0.446623 0.674838 0.212370 -0.374164

loop_
_geom_bond_atom_site_label_1
_geom_bond_atom_site_label_2
_geom_bond_distance
_ccdc_geom_bond_type
N3    N4    1.247287 D    
C37   C38   1.394692 A    
O5    C4    1.285093 A    
C2    C19   1.468925 S    
C10   N1    1.419377 S    
C5    C16   1.466755 S    
C9    C10   1.410067 A    
O4    C3    1.278690 A    
Zn1   O1    1.940707 S    
C23   H10   1.083105 S    
C11   C12   1.396384 A    
C13   C14   1.395583 A    
C21   H13   1.082649 S    
O8    C5    1.282544 A    
O9    C6    1.277679 A    
C31   C36   1.420899 A    
C29   H12   1.083781 S    
C7    C12   1.404432 A    
Zn3   O8    1.927498 S    
C32   C33   1.390732 A    
C26   N8    1.438826 S    
C6    C7    1.469355 S    
C34   C35   1.395260 A    
Zn2   O12   1.929654 S    
C20   H15   1.083139 S    
C17   H5    1.083277 S    
C4    C31   1.480591 S    
C37   C39   1.408381 A    
C29   C30   1.390606 A    
C36   N7    1.434752 S    
C25   C27   1.409571 A    
C9    H6    1.082802 S    
C23   C24   1.394928 A    
O2    C1    1.274924 A    
C27   N4    1.417418 S    
C31   C32   1.406804 A    
O10   C3    1.280259 A    
C7    C8    1.402749 A    
Zn4   O2    1.931499 S    
N8    O16   1.301475 A    
C26   C28   1.415311 A    
C27   C30   1.394738 A    
C8    C9    1.390686 A    
C22   N3    1.419083 S    
C19   C24   1.403931 A    
O6    C5    1.278858 A    
C13   H2    1.082753 S    
C15   N2    1.415841 S    
Zn3   O5    1.924557 S    
N8    O17   1.301555 A    
C40   C41   1.403784 A    
C1    C28   1.463976 S    
C20   C21   1.390782 A    
C11   H3    1.083031 S    
C15   C18   1.396365 A    
C12   H4    1.083024 S    
N1    N2    1.247232 D    
N5    N6    1.247295 D    
Zn4   O7    1.930797 S    
C39   N6    1.415356 S    
C25   H9    1.082896 S    
C17   C18   1.391750 A    
N7    O15   1.301529 A    
C41   C42   1.393583 A    
O3    C2    1.282643 A    
C38   H16   1.083222 S    
C34   N5    1.416334 S    
C18   H7    1.083198 S    
C14   C16   1.402689 A    
Zn2   O1    1.938062 S    
Zn1   O9    1.927701 S    
Zn2   O6    1.931652 S    
C8    H8    1.083196 S    
C33   H20   1.083005 S    
C25   C26   1.400559 A    
C19   C20   1.403096 A    
C21   C22   1.410561 A    
C30   H14   1.083197 S    
Zn1   O3    1.932661 S    
Zn2   O4    1.928313 S    
Zn4   O1    1.934312 S    
Zn3   O1    1.946370 S    
C28   C29   1.402411 A    
Zn1   O10   1.926967 S    
C41   H19   1.083261 S    
C3    C40   1.466944 S    
Zn4   O11   1.930669 S    
C16   C17   1.403658 A    
C35   C36   1.401443 A    
C13   C15   1.409999 A    
C39   C42   1.397257 A    
O7    C6    1.279646 A    
O13   C2    1.280894 A    
C37   H17   1.082903 S    
Zn3   O13   1.929767 S    
C33   C34   1.403680 A    
O11   C4    1.281537 A    
C42   H21   1.083115 S    
N7    O14   1.301206 A    
O12   C1    1.275879 A    
C22   C23   1.398629 A    
C38   C40   1.402823 A    
C10   C11   1.399063 A    
C32   H22   1.083084 S    
C14   H1    1.083163 S    
C24   H11   1.082987 S    
C35   H18   1.083628 S    
