data_mof_unit_51824.cif
_audit_creation_date              2012-12-10T16:52:40-0500
_audit_creation_method            fapswitch 2.2
_symmetry_space_group_name_H-M    P1
_symmetry_Int_Tables_number       1
_space_group_crystal_system       triclinic
_cell_length_a                    7.823203
_cell_length_b                    8.568161
_cell_length_c                    13.706313
_cell_angle_alpha                 93.01973
_cell_angle_beta                  93.825911
_cell_angle_gamma                 94.120376
_cell_volume                      912.797579092

loop_
_atom_site_label
_atom_site_type_symbol
_atom_type_description
_atom_site_fract_x
_atom_site_fract_y
_atom_site_fract_z
_atom_type_partial_charge
C1    C     C_R   0.045134 0.794696 0.497490 0.967838
C2    C     C_R   0.934972 0.485251 0.317733 0.881851
C3    C     C_R   0.090434 0.498062 0.788998 -0.061540
C4    C     C_R   0.892263 0.433983 0.215948 -0.061684
C5    C     C_R   0.017238 0.585230 0.950445 -0.196977
C6    C     C_R   0.874745 0.215493 0.095830 -0.200709
C7    C     C_R   0.980063 0.572032 0.849908 -0.253340
C8    C     C_R   0.958010 0.297430 0.177892 -0.223739
C9    C     C_R   0.227500 0.418521 0.829494 0.020708
C10   C     C_R   0.750156 0.493984 0.168859 0.018120
C11   C     C_R   0.260860 0.424460 0.932694 0.042793
C12   C     C_R   0.954815 0.205285 0.502320 0.962704
C13   C     C_R   0.647356 0.396699 0.098414 0.054997
C14   C     C_R   0.163209 0.521653 0.991227 0.162013
C15   C     C_R   0.716817 0.261373 0.057519 0.153743
C16   C     C_R   0.403218 0.356999 0.978603 0.070477
C17   C     C_R   0.478248 0.428550 0.067568 0.060761
C18   C     C_R   0.376683 0.519530 0.125822 -0.246578
C19   C     C_R   0.470133 0.219139 0.941532 -0.244590
C20   C     C_R   0.218304 0.561669 0.088768 -0.205444
C21   C     C_R   0.624517 0.171023 0.981294 -0.222868
C22   C     C_2   0.068633 0.958372 0.495994 -0.389166
C23   C     C_2   0.931251 0.041599 0.503553 -0.382271
C24   C     C_R   0.063550 0.506482 0.682643 0.883176
H1    H     H_    0.144347 0.634217 0.134581 0.154669
H2    H     H_    0.801800 0.990168 0.510722 0.178790
H3    H     H_    0.486923 0.374754 0.427529 0.187929
H4    H     H_    0.513065 0.625299 0.572423 0.189899
H5    H     H_    0.663850 0.702986 0.124989 0.192018
H6    H     H_    0.661015 0.677228 0.248144 0.202470
H7    H     H_    0.471658 0.382747 0.787513 0.203385
H8    H     H_    0.313540 0.232254 0.751101 0.177953
H9    H     H_    0.672558 0.064179 0.951648 0.142515
H10   H     H_    0.068681 0.250447 0.214253 0.165505
H11   H     H_    0.871366 0.629244 0.819267 0.163927
H12   H     H_    0.937768 0.653325 0.995585 0.148809
H13   H     H_    0.927423 0.110624 0.066638 0.142216
H14   H     H_    0.415100 0.553434 0.201406 0.163659
H15   H     H_    0.400019 0.142991 0.885340 0.150239
H16   H     H_    0.198077 0.009806 0.488802 0.178955
N1    N     N_2   0.440860 0.456490 0.474790 -0.172185
N2    N     N_2   0.559140 0.543510 0.525210 -0.171402
N3    N     N_3   0.727793 0.658497 0.185655 -0.492458
N4    N     N_3   0.343116 0.352581 0.764053 -0.438090
O1    O     O_R   0.891570 0.738930 0.506190 -0.610881
O2    O     O_R   0.108430 0.261070 0.493810 -0.610798
O3    O     O_R   0.174650 0.711050 0.490030 -0.628013
O4    O     O_R   0.825350 0.288950 0.509970 -0.624667
O5    O     O_R   0.909850 0.521900 0.644940 -0.622718
O6    O     O_R   0.090150 0.478100 0.355060 -0.622635
O7    O     O_R   0.192930 0.494020 0.628780 -0.588934
O8    O     O_R   0.807070 0.505980 0.371220 -0.617034
Zn1   Zn    Zn3+2 0.810990 0.518620 0.510790 0.931551
Zn2   Zn    Zn3+2 0.189010 0.481380 0.489210 0.935050

loop_
_geom_bond_atom_site_label_1
_geom_bond_atom_site_label_2
_ccdc_geom_bond_type
C2    C4    S    
C3    C9    A    
N1    N2    D    
H3    N1    S    
C18   C20   A    
C13   C17   A    
C12   O4    A    
O7    Zn2   S    
C22   H16   S    
O2    Zn2   S    
C24   O7    A    
C17   C18   A    
C18   H14   S    
C6    H13   S    
O1    Zn1   S    
C1    C22   S    
C8    H10   S    
H5    N3    S    
C9    C11   A    
C12   C23   S    
C1    O1    A    
C5    C14   A    
O6    Zn2   S    
C2    O8    A    
O3    Zn2   S    
O5    Zn1   S    
C19   H15   S    
H4    N2    S    
C19   C21   A    
C3    C24   S    
C3    C7    A    
C13   C15   A    
N2    Zn1   S    
H8    N4    S    
O4    Zn1   S    
H6    N3    S    
C11   C14   A    
N1    Zn2   S    
C11   C16   A    
C21   H9    S    
C20   H1    S    
C4    C10   A    
C5    H12   S    
C14   C20   A    
C15   C21   A    
O8    Zn1   S    
C24   O5    A    
C12   O2    A    
H7    N4    S    
C23   H2    S    
C4    C8    A    
C5    C7    A    
C22   C23   D    
C1    O3    A    
C9    N4    S    
C6    C8    A    
C2    O6    A    
C6    C15   A    
C7    H11   S    
C10   N3    S    
C16   C17   A    
C10   C13   A    
C16   C19   A    
