data_mof_unit_45482.cif
_audit_creation_date              2012-10-26T19:04:41-0400
_audit_creation_method            fapswitch 2.2
_symmetry_space_group_name_H-M    P1
_symmetry_Int_Tables_number       1
_space_group_crystal_system       triclinic
_cell_length_a                    9.646065
_cell_length_b                    10.840455
_cell_length_c                    13.557461
_cell_angle_alpha                 95.316872
_cell_angle_beta                  74.512056
_cell_angle_gamma                 90.407803
_cell_volume                      1360.08487644

loop_
_atom_site_label
_atom_site_type_symbol
_atom_type_description
_atom_site_fract_x
_atom_site_fract_y
_atom_site_fract_z
_atom_type_partial_charge
C1    C     C_R   0.503963 0.735839 0.489570 0.556514
C2    C     C_R   0.378263 0.517349 0.814833 -0.054609
C3    C     C_R   0.277676 0.879022 0.427598 -0.107839
C4    C     C_R   0.423403 0.506716 0.700067 0.548793
C5    C     C_R   0.150321 0.943699 0.435113 0.405341
C6    C     C_R   0.118979 0.054634 0.498091 0.417305
C7    C     C_R   0.224133 0.109959 0.540509 0.272920
C8    C     C_R   0.366805 0.059332 0.508659 -0.067612
C9    C     C_R   0.383413 0.933485 0.471444 -0.127029
C10   C     C_R   0.507985 0.868873 0.475816 0.005276
C11   C     C_R   0.631267 0.936133 0.479733 0.383853
C12   C     C_R   0.429993 0.490199 0.979558 -0.062086
C13   C     C_R   0.624647 0.064250 0.492674 -0.067127
C14   C     C_R   0.493208 0.127764 0.508581 -0.060756
C15   C     C_R   0.914091 0.319958 0.361846 0.368036
C16   C     C_R   0.496894 0.262803 0.505660 0.579824
C17   C     C_R   0.015141 0.235707 0.298878 0.495676
C18   C     C_R   0.156562 0.240950 0.300248 0.332292
C19   C     C_R   0.198567 0.329638 0.365430 -0.130716
C20   C     C_R   0.100274 0.414593 0.434120 -0.019363
C21   C     C_R   0.950831 0.412151 0.433997 0.022655
C22   C     C_R   0.905382 0.590413 0.555676 0.424764
C23   C     C_R   0.477759 0.506049 0.873824 -0.050659
C24   C     C_R   0.053162 0.584014 0.560428 0.452522
C25   C     C_R   0.575374 0.491919 0.301222 0.566986
C26   C     C_R   0.781595 0.408073 0.026196 0.437256
C27   C     C_R   0.612165 0.469043 0.189453 -0.050092
C28   C     C_R   0.231838 0.534587 0.866694 -0.106696
C29   C     C_R   0.185012 0.537087 0.974331 0.316640
C30   C     C_R   0.281425 0.504289 0.028426 -0.043650
C31   C     C_3   0.204351 0.178901 0.708237 -0.104974
C32   C     C_3   0.874084 0.797555 0.629136 0.020401
C33   C     C_3   0.902189 0.386146 0.740663 -0.026639
C34   C     C_R   0.535407 0.469291 0.032601 -0.071063
C35   C     C_3   0.997230 0.677490 0.007314 -0.079485
C36   C     C_3   0.636273 0.737411 0.851956 -0.083836
C37   C     C_R   0.680735 0.443841 0.975766 0.009585
C38   C     C_R   0.725144 0.471765 0.873435 0.273281
C39   C     C_R   0.624431 0.527685 0.833951 0.288888
C40   C     C_R   0.504315 0.483625 0.139704 -0.135565
C41   C     C_R   0.748586 0.424471 0.132878 -0.029831
Cu1   Cu    Cu3+1 0.359340 0.500010 0.500010 1.047045
Cu2   Cu    Cu3+1 0.640660 0.499990 0.499990 1.145882
F1    F     F_    0.053413 0.894278 0.387116 -0.529805
F2    F     F_    0.986256 0.107928 0.519135 -0.633064
F3    F     F_    0.785906 0.307453 0.342456 -0.594361
F4    F     F_    0.975058 0.149705 0.232880 -0.510603
F5    F     F_    0.255030 0.160388 0.236757 -0.579100
F6    F     F_    0.102221 0.660776 0.627832 -0.654533
F7    F     F_    0.913247 0.361561 0.972618 -0.585301
F8    F     F_    0.760329 0.878666 0.464976 -0.551903
H1    H     H_    0.830314 0.404311 0.170667 0.212457
H2    H     H_    0.158719 0.254665 0.768802 0.177589
H3    H     H_    0.965232 0.819079 0.564440 0.190384
H4    H     H_    0.907104 0.797313 0.701507 0.153047
H5    H     H_    0.793234 0.873596 0.641839 0.163154
H6    H     H_    0.015465 0.396671 0.696859 0.195874
H7    H     H_    0.834236 0.395108 0.686964 0.124696
H8    H     H_    0.890961 0.292110 0.768253 0.158169
H9    H     H_    0.973121 0.670358 0.931389 0.157575
H10   H     H_    0.076840 0.751424 0.011586 0.136901
H11   H     H_    0.895641 0.705696 0.066088 0.157069
H12   H     H_    0.295786 0.789649 0.383108 0.172721
H13   H     H_    0.658413 0.820939 0.809595 0.130495
H14   H     H_    0.706863 0.739058 0.904936 0.116933
H15   H     H_    0.521199 0.745551 0.896634 0.116550
H16   H     H_    0.723424 0.113520 0.489853 0.234277
H17   H     H_    0.310532 0.327990 0.358088 0.219128
H18   H     H_    0.399065 0.515022 0.185427 0.144334
H19   H     H_    0.153900 0.546901 0.823816 0.198811
H20   H     H_    0.237191 0.493666 0.109059 0.137996
H21   H     H_    0.320515 0.170727 0.704114 0.108561
H22   H     H_    0.147944 0.092287 0.732551 0.126967
N1    N     N_R   0.852480 0.498790 0.499000 -0.251448
N2    N     N_R   0.148360 0.498710 0.498970 -0.239722
O1    O     O_R   0.381190 0.680360 0.500010 -0.486246
O2    O     O_3   0.809201 0.684667 0.608027 -0.472069
O3    O     O_3   0.869608 0.478478 0.824030 -0.526694
O4    O     O_3   0.043221 0.562001 0.028753 -0.521947
O5    O     O_3   0.664899 0.630259 0.780964 -0.491529
O6    O     O_R   0.618760 0.680340 0.500000 -0.394757
O7    O     O_R   0.323240 0.499990 0.650990 -0.462172
O8    O     O_R   0.560820 0.499960 0.650980 -0.459249
O9    O     O_R   0.381240 0.319660 0.500000 -0.480854
O10   O     O_R   0.618810 0.319640 0.499990 -0.458180
O11   O     O_R   0.439180 0.500040 0.349020 -0.562588
O12   O     O_R   0.676760 0.500010 0.349010 -0.436526
O13   O     O_3   0.183031 0.209621 0.614286 -0.543145

loop_
_geom_bond_atom_site_label_1
_geom_bond_atom_site_label_2
_ccdc_geom_bond_type
C33   H7    S    
C6    F2    S    
C34   C37   A    
Cu2   O8    S    
C19   C20   A    
Cu1   O7    S    
C25   O12   A    
C30   H20   S    
C7    C8    A    
C12   C23   A    
Cu1   N2    S    
C37   C38   A    
C34   C40   A    
C28   C29   A    
C26   F7    S    
C5    C6    A    
C36   H15   S    
C33   O3    S    
C31   H22   S    
C1    O6    A    
C16   O9    A    
C18   C19   A    
C32   O2    S    
C8    C9    A    
C33   H6    S    
Cu1   O11   S    
C9    C10   A    
C32   H4    S    
Cu2   N1    S    
C33   H8    S    
C13   C14   A    
C32   H3    S    
C40   H18   S    
Cu2   O10   S    
Cu1   O9    S    
C35   H10   S    
C36   O5    S    
C36   H14   S    
C38   O3    S    
C21   N1    A    
C20   N2    A    
C35   H9    S    
C2    C4    S    
C29   C30   A    
C3    C9    A    
C27   C41   A    
C7    O13   S    
C29   O4    S    
C27   C40   A    
C17   C18   A    
C19   H17   S    
C24   N2    A    
C31   H2    S    
C31   H21   S    
C5    F1    S    
C16   O10   A    
Cu2   O6    S    
C14   C16   S    
Cu1   Cu2   S    
C22   N1    A    
C12   C34   A    
C13   H16   S    
C24   F6    S    
C15   C17   A    
C8    C14   A    
C31   O13   S    
C41   H1    S    
C12   C30   A    
C1    O1    A    
C28   H19   S    
C1    C10   S    
C17   F4    S    
C22   O2    S    
C3    C5    A    
C18   F5    S    
C26   C37   A    
C6    C7    A    
C3    H12   S    
C25   C27   S    
Cu1   O1    S    
Cu2   O12   S    
C39   O5    S    
C11   C13   A    
C38   C39   A    
C4    O8    A    
C23   C39   A    
C35   O4    S    
C25   O11   A    
C35   H11   S    
C22   C24   A    
C11   F8    S    
C10   C11   A    
C15   C21   A    
C4    O7    A    
C20   C21   A    
C2    C23   A    
C2    C28   A    
C15   F3    S    
C36   H13   S    
C32   H5    S    
C26   C41   A    
