data_mof_unit_14641.cif
_audit_creation_date              2012-12-10T17:51:32-0500
_audit_creation_method            fapswitch 2.2
_symmetry_space_group_name_H-M    P1
_symmetry_Int_Tables_number       1
_space_group_crystal_system       triclinic
_cell_length_a                    9.917516
_cell_length_b                    10.630164
_cell_length_c                    16.773513
_cell_angle_alpha                 92.034414
_cell_angle_beta                  85.25828
_cell_angle_gamma                 90.098133
_cell_volume                      1761.18025787

loop_
_atom_site_label
_atom_site_type_symbol
_atom_type_description
_atom_site_fract_x
_atom_site_fract_y
_atom_site_fract_z
_atom_type_partial_charge
C1    C     C_R   0.500413 0.739252 0.498233 0.857815
C2    C     C_R   0.529027 0.507880 0.261462 -0.061068
C3    C     C_R   0.393732 0.860202 0.364430 -0.195592
C4    C     C_R   0.481317 0.507725 0.653024 0.845399
C5    C     C_R   0.336768 0.921147 0.302280 0.283633
C6    C     C_R   0.336204 0.052860 0.303273 -0.227761
C7    C     C_R   0.389099 0.122166 0.365545 -0.231025
C8    C     C_R   0.443484 0.061220 0.429158 0.097188
C9    C     C_R   0.445029 0.929557 0.428827 0.047152
C10   C     C_R   0.502126 0.871122 0.492349 -0.067857
C11   C     C_R   0.562554 0.938830 0.552221 -0.217064
C12   C     C_R   0.343762 0.564772 0.779966 -0.220769
C13   C     C_R   0.562231 0.067330 0.552108 -0.201443
C14   C     C_R   0.500925 0.127696 0.492351 -0.089554
C15   C     C_R   0.846120 0.667273 0.604159 -0.166552
C16   C     C_R   0.500231 0.260459 0.497574 0.871822
C17   C     C_R   0.909321 0.748759 0.656012 -0.207982
C18   C     C_R   0.048808 0.747661 0.656631 -0.191042
C19   C     C_R   0.125928 0.665436 0.605161 -0.156736
C20   C     C_R   0.065348 0.581790 0.551670 0.165688
C21   C     C_R   0.920834 0.582196 0.551415 0.175185
C22   C     C_R   0.935313 0.421901 0.450405 -0.123188
C23   C     C_R   0.592035 0.621677 0.142232 -0.209932
C24   C     C_R   0.078412 0.422023 0.450357 -0.109471
C25   C     C_R   0.518695 0.500197 0.347342 0.861634
C26   C     C_R   0.470834 0.547853 0.737313 -0.031289
C27   C     C_R   0.588587 0.584170 0.772989 -0.214196
C28   C     C_R   0.580126 0.632500 0.850773 -0.207518
C29   C     C_R   0.454329 0.641606 0.894772 0.172271
C30   C     C_R   0.335658 0.611112 0.858877 -0.172894
C31   C     C_3   0.202714 0.743011 0.255352 -0.798185
C32   C     C_3   0.814882 0.671673 0.269168 -0.744338
C33   C     C_3   0.395623 0.870840 0.001299 -0.814160
C34   C     C_R   0.600425 0.607178 0.223920 0.190262
C35   C     C_R   0.454578 0.422475 0.217390 -0.270030
C36   C     C_R   0.450295 0.435376 0.135883 -0.152033
C37   C     C_R   0.516158 0.536420 0.099034 0.148435
C38   C     C_2   0.452214 0.647978 0.981749 0.189927
C39   C     C_2   0.509075 0.549168 0.014096 -0.326643
H1    H     H_    0.392652 0.368893 0.101930 0.138519
H2    H     H_    0.549921 0.470982 0.975899 0.155726
H3    H     H_    0.238325 0.615697 0.893306 0.144253
H4    H     H_    0.687767 0.574118 0.741389 0.164313
H5    H     H_    0.249272 0.906122 0.193569 0.218591
H6    H     H_    0.263867 0.666305 0.277359 0.260640
H7    H     H_    0.118665 0.769354 0.300770 0.246556
H8    H     H_    0.158947 0.706094 0.200337 0.235314
H9    H     H_    0.295532 0.102367 0.255251 0.127122
H10   H     H_    0.607109 0.120098 0.599725 0.153160
H11   H     H_    0.653807 0.788817 0.254237 0.224556
H12   H     H_    0.607330 0.891941 0.600037 0.138836
H13   H     H_    0.860202 0.739609 0.311058 0.238312
H14   H     H_    0.865965 0.681819 0.208213 0.220051
H15   H     H_    0.832228 0.575043 0.289315 0.259635
H16   H     H_    0.232366 0.669972 0.609181 0.202476
H17   H     H_    0.137719 0.358235 0.409816 0.144795
H18   H     H_    0.643982 0.699043 0.112527 0.142945
H19   H     H_    0.251324 0.540026 0.753033 0.161672
H20   H     H_    0.372792 0.737352 0.089618 0.259074
H21   H     H_    0.330960 0.936317 0.040792 0.231690
H22   H     H_    0.365319 0.877827 0.939331 0.252075
H23   H     H_    0.401213 0.758991 0.361026 0.162740
H24   H     H_    0.503024 0.899705 0.003549 0.239387
H25   H     H_    0.672416 0.654142 0.878835 0.138142
H26   H     H_    0.388562 0.223458 0.362634 0.148653
H27   H     H_    0.887158 0.358063 0.409891 0.146282
H28   H     H_    0.738773 0.673347 0.607548 0.196001
H29   H     H_    0.849438 0.812854 0.696135 0.147393
H30   H     H_    0.097754 0.810881 0.697248 0.151162
H31   H     H_    0.398402 0.346936 0.246250 0.141319
N1    N     N_R   0.857140 0.501200 0.500750 -0.119555
N2    N     N_R   0.142740 0.501280 0.500770 -0.120282
N3    N     N_2   0.286242 0.851705 0.236615 -0.324009
N4    N     N_2   0.671731 0.697274 0.268977 -0.309243
N5    N     N_2   0.377433 0.743797 0.028371 -0.302523
O1    O     O_R   0.385310 0.683220 0.500000 -0.639760
O2    O     O_R   0.614640 0.683250 0.500010 -0.622408
O3    O     O_R   0.371780 0.500010 0.615800 -0.632401
O4    O     O_R   0.601110 0.500030 0.615800 -0.636737
O5    O     O_R   0.385360 0.316750 0.499990 -0.611697
O6    O     O_R   0.614690 0.316780 0.500000 -0.610291
O7    O     O_R   0.398890 0.499970 0.384200 -0.635964
O8    O     O_R   0.628220 0.499990 0.384200 -0.594429
Zn1   Zn    Zn3+2 0.346870 0.499980 0.499990 0.928877
Zn2   Zn    Zn3+2 0.653130 0.500020 0.500010 0.940944

loop_
_geom_bond_atom_site_label_1
_geom_bond_atom_site_label_2
_ccdc_geom_bond_type
C2    C35   A    
C1    O2    A    
C22   N1    A    
C35   C36   A    
O5    Zn1   S    
O1    Zn1   S    
C7    C8    A    
C39   H2    S    
C26   C27   A    
C6    H9    S    
C21   N1    A    
C36   C37   A    
H11   N4    S    
C32   N4    S    
C5    C6    A    
C31   N3    S    
C15   C17   A    
C18   C19   A    
C22   H27   S    
N1    Zn2   S    
C33   N5    S    
C32   H13   S    
C19   C20   A    
C35   H31   S    
C8    C9    A    
C31   H7    S    
C29   C38   S    
C9    C10   A    
C12   H19   S    
C2    C34   A    
C18   H30   S    
O2    Zn2   S    
C31   H8    S    
C13   C14   A    
C32   H15   S    
C38   N5    S    
C36   H1    S    
C4    O4    A    
C23   C37   A    
C12   C26   A    
C16   O5    A    
C4    O3    A    
C29   C30   A    
C3    C9    A    
C27   H4    S    
C7    H26   S    
C33   H24   S    
C23   C34   A    
C15   H28   S    
C17   C18   A    
N2    Zn1   S    
C34   N4    S    
C13   H10   S    
C28   H25   S    
O8    Zn2   S    
C33   H21   S    
O7    Zn1   S    
C25   O7    A    
C22   C24   A    
H20   N5    S    
C32   H14   S    
O4    Zn2   S    
C24   N2    A    
C3    H23   S    
C19   H16   S    
C23   H18   S    
C28   C29   A    
C17   H29   S    
C8    C14   A    
C12   C30   A    
C1    O1    A    
C30   H3    S    
C1    C10   S    
C3    C5    A    
C4    C26   S    
C6    C7    A    
C24   H17   S    
C37   C39   S    
C11   C13   A    
C38   C39   D    
C16   O6    A    
C2    C25   S    
C14   C16   S    
C5    N3    S    
H5    N3    S    
C11   H12   S    
C10   C11   A    
O3    Zn1   S    
C15   C21   A    
C20   C21   A    
C33   H22   S    
C31   H6    S    
C27   C28   A    
C25   O8    A    
C20   N2    A    
O6    Zn2   S    
