data_mof_unit_27139.cif
_audit_creation_date              2012-12-10T20:06:28-0500
_audit_creation_method            fapswitch 2.2
_symmetry_space_group_name_H-M    P1
_symmetry_Int_Tables_number       1
_space_group_crystal_system       triclinic
_cell_length_a                    18.732362
_cell_length_b                    18.440055
_cell_length_c                    10.597153
_cell_angle_alpha                 89.955802
_cell_angle_beta                  89.916875
_cell_angle_gamma                 90.507789
_cell_volume                      3660.38116356

loop_
_atom_site_label
_atom_site_type_symbol
_atom_type_description
_atom_site_fract_x
_atom_site_fract_y
_atom_site_fract_z
_atom_type_partial_charge
C1    C     C_R   0.364849 0.499603 0.495204 0.864034
C2    C     C_R   0.290580 0.497968 0.457681 -0.077992
C3    C     C_R   0.962192 0.540176 0.296197 0.377449
C4    C     C_R   0.036795 0.537137 0.282708 0.332744
C5    C     C_R   0.074211 0.483861 0.349070 -0.216827
C6    C     C_R   0.926276 0.482819 0.357888 -0.207319
C7    C     C_R   0.038478 0.424280 0.403788 0.348443
C8    C     C_R   0.963865 0.422043 0.403305 0.302039
C9    C     C_R   0.537587 0.726801 0.410673 -0.007323
C10   C     C_R   0.461823 0.725312 0.589553 -0.010110
C11   C     C_R   0.537689 0.802917 0.409241 -0.251752
C12   C     C_R   0.635104 0.500304 0.499512 0.887269
C13   C     C_R   0.460798 0.801405 0.591889 -0.256882
C14   C     C_R   0.499081 0.841445 0.500889 0.217850
C15   C     C_R   0.497901 0.500006 0.260233 0.863767
C16   C     C_R   0.497771 0.499948 0.739756 0.873374
C17   C     C_R   0.433760 0.961635 0.507205 0.318601
C18   C     C_R   0.563602 0.962925 0.493816 0.329045
C19   C     C_R   0.434350 0.038097 0.514471 0.356505
C20   C     C_R   0.562762 0.039074 0.482871 0.377331
C21   C     C_R   0.498676 0.077524 0.498891 -0.174252
C22   C     C_R   0.498775 0.922945 0.501252 -0.278931
C23   C     C_R   0.851056 0.490840 0.391836 0.146094
C24   C     C_R   0.537493 0.197675 0.592050 0.373178
C25   C     C_R   0.461079 0.197710 0.406702 0.382696
C26   C     C_R   0.538738 0.274196 0.587501 -0.149038
C27   C     C_R   0.460541 0.274303 0.412503 -0.161418
C28   C     C_R   0.499156 0.158883 0.499053 0.013760
C29   C     C_R   0.378447 0.566480 0.131743 -0.184996
C30   C     C_R   0.377949 0.565718 0.868738 -0.196623
C31   C     C_R   0.322665 0.598803 0.066056 -0.140751
C32   C     C_R   0.322290 0.598247 0.934739 -0.140658
C33   C     C_R   0.435584 0.533750 0.934083 0.099193
C34   C     C_R   0.149918 0.494605 0.375521 0.205275
C35   C     C_R   0.435746 0.533975 0.066155 0.089508
C36   C     C_R   0.492830 0.499706 0.128236 -0.098674
C37   C     C_R   0.492668 0.499515 0.871772 -0.093213
C38   C     C_R   0.546516 0.463357 0.064206 -0.233129
C39   C     C_R   0.546472 0.463315 0.935579 -0.227875
C40   C     C_R   0.762069 0.498904 0.556907 -0.274209
C41   C     C_R   0.268806 0.446981 0.367390 -0.219307
C42   C     C_R   0.832936 0.493990 0.520422 -0.214676
C43   C     C_R   0.198882 0.445716 0.325775 -0.249994
C44   C     C_3   0.348090 0.903245 0.389744 0.113622
C45   C     C_R   0.798250 0.494593 0.298065 0.517405
C46   C     C_3   0.307998 0.963886 0.321438 -0.311569
C47   C     C_3   0.276566 0.937308 0.196885 -1.014501
C48   C     C_3   0.649275 0.908667 0.614539 0.100803
C49   C     C_3   0.688190 0.971744 0.680163 -0.308017
C50   C     C_3   0.717405 0.948888 0.808362 -1.001751
C51   C     C_3   0.356868 0.089004 0.652865 0.107795
C52   C     C_3   0.290433 0.136150 0.661918 -0.316663
C53   C     C_3   0.273303 0.155422 0.798409 -0.995093
C54   C     C_3   0.630984 0.094528 0.330600 0.104538
C55   C     C_3   0.697317 0.059434 0.273882 -0.306581
C56   C     C_R   0.171851 0.549014 0.460902 0.556199
C57   C     C_3   0.709074 0.083028 0.137308 -1.006044
C58   C     C_3   0.556303 0.179239 0.805919 0.043989
C59   C     C_3   0.620531 0.212119 0.875142 -0.301394
C60   C     C_3   0.600938 0.234850 0.009131 -1.014961
C61   C     C_3   0.431963 0.183921 0.194177 0.073204
C62   C     C_3   0.362201 0.212315 0.138693 -0.343622
C63   C     C_3   0.304818 0.153060 0.132493 -0.805452
C64   C     C_3   0.781999 0.535804 0.093145 0.119619
C65   C     C_3   0.823788 0.544010 0.969878 -0.304539
C66   C     C_3   0.787807 0.597277 0.880427 -0.996347
C67   C     C_R   0.726666 0.498149 0.336473 -0.344999
C68   C     C_3   0.142557 0.668701 0.503902 0.105533
C69   C     C_3   0.150941 0.700725 0.636290 -0.373670
C70   C     C_3   0.174115 0.780217 0.630701 -0.951591
C71   C     C_3   0.937025 0.662428 0.314789 0.097411
C72   C     C_3   0.894957 0.664684 0.438952 -0.377942
C73   C     C_3   0.902429 0.738376 0.503152 -0.957375
C74   C     C_3   0.067304 0.582262 0.088081 0.094895
C75   C     C_3   0.121256 0.527051 0.038299 -0.406689
C76   C     C_3   0.123008 0.526134 0.894293 -0.896549
C77   C     C_3   0.082948 0.308934 0.406783 0.119109
C78   C     C_R   0.242917 0.549602 0.502800 -0.353551
C79   C     C_3   0.149055 0.268790 0.453231 -0.322379
C80   C     C_3   0.160231 0.198518 0.380143 -0.996051
C81   C     C_3   0.887302 0.324280 0.384728 0.069383
C82   C     C_3   0.824404 0.291587 0.457852 -0.297184
C83   C     C_3   0.776156 0.245986 0.372796 -0.972004
C84   C     C_R   0.709328 0.500576 0.464842 -0.047371
H1    H     H_    0.589322 0.436411 0.114095 0.151299
H2    H     H_    0.345248 0.009627 0.301154 0.254738
H3    H     H_    0.752697 0.280170 0.297373 0.266519
H4    H     H_    0.732121 0.222221 0.430039 0.283374
H5    H     H_    0.806848 0.201262 0.329092 0.264014
H6    H     H_    0.319669 0.918014 0.133463 0.266757
H7    H     H_    0.248375 0.982534 0.149621 0.273390
H8    H     H_    0.237774 0.892437 0.213923 0.269557
H9    H     H_    0.686574 0.862376 0.606725 0.165128
H10   H     H_    0.603669 0.889223 0.673791 0.124139
H11   H     H_    0.733017 0.991058 0.619676 0.245432
H12   H     H_    0.650770 0.017356 0.694896 0.255775
H13   H     H_    0.673202 0.930435 0.870938 0.266287
H14   H     H_    0.744770 0.995781 0.853548 0.274613
H15   H     H_    0.589294 0.436416 0.885474 0.148720
H16   H     H_    0.756419 0.904341 0.797003 0.268758
H17   H     H_    0.402436 0.118856 0.697072 0.113130
H18   H     H_    0.347090 0.037436 0.705250 0.155568
H19   H     H_    0.299302 0.186994 0.607372 0.232192
H20   H     H_    0.244158 0.106601 0.620318 0.227918
H21   H     H_    0.262775 0.105400 0.854102 0.267914
H22   H     H_    0.225035 0.189896 0.801531 0.271753
H23   H     H_    0.318548 0.185948 0.841090 0.267038
H24   H     H_    0.636227 0.154442 0.323555 0.153651
H25   H     H_    0.583427 0.078698 0.272655 0.103111
H26   H     H_    0.567442 0.697492 0.340024 0.132821
H27   H     H_    0.744985 0.074754 0.330559 0.229032
H28   H     H_    0.691030 0.999478 0.277218 0.244370
H29   H     H_    0.662223 0.067827 0.078518 0.270589
H30   H     H_    0.756968 0.055752 0.098693 0.270014
H31   H     H_    0.717836 0.142602 0.132323 0.278735
H32   H     H_    0.539669 0.128782 0.855730 0.146600
H33   H     H_    0.509854 0.216720 0.811663 0.118630
H34   H     H_    0.664064 0.171597 0.879164 0.233298
H35   H     H_    0.640709 0.260373 0.822967 0.213208
H36   H     H_    0.558163 0.276195 0.007227 0.270913
H37   H     H_    0.432132 0.694814 0.659672 0.132662
H38   H     H_    0.648493 0.258706 0.056424 0.270376
H39   H     H_    0.582506 0.187025 0.064380 0.255013
H40   H     H_    0.450191 0.137167 0.136803 0.142379
H41   H     H_    0.474369 0.226319 0.184050 0.084063
H42   H     H_    0.342307 0.257998 0.196873 0.208886
H43   H     H_    0.372687 0.233112 0.041935 0.168251
H44   H     H_    0.323689 0.106720 0.074859 0.242629
H45   H     H_    0.255837 0.175192 0.088599 0.234018
H46   H     H_    0.291202 0.133457 0.228716 0.294503
H47   H     H_    0.569980 0.304886 0.654816 0.155667
H48   H     H_    0.567215 0.831465 0.336372 0.166886
H49   H     H_    0.428899 0.305214 0.346740 0.149152
H50   H     H_    0.375617 0.566511 0.233577 0.153691
H51   H     H_    0.374739 0.565037 0.766900 0.139361
H52   H     H_    0.279298 0.623745 0.117290 0.138849
H53   H     H_    0.278498 0.622562 0.883870 0.132635
H54   H     H_    0.748261 0.499799 0.656146 0.152786
H55   H     H_    0.306061 0.408245 0.328574 0.155992
H56   H     H_    0.873925 0.491909 0.592354 0.180050
H57   H     H_    0.182358 0.405200 0.257676 0.143578
H58   H     H_    0.777571 0.590407 0.137815 0.152760
H59   H     H_    0.430829 0.828742 0.664899 0.168470
H60   H     H_    0.727858 0.514349 0.070363 0.126257
H61   H     H_    0.878714 0.563818 0.990769 0.239493
H62   H     H_    0.827689 0.490324 0.922812 0.217901
H63   H     H_    0.732898 0.578315 0.857379 0.263366
H64   H     H_    0.819103 0.601455 0.791576 0.269602
H65   H     H_    0.785175 0.651901 0.924217 0.270418
H66   H     H_    0.099512 0.698454 0.454693 0.159158
H67   H     H_    0.192094 0.678467 0.447343 0.123269
H68   H     H_    0.099197 0.696349 0.687372 0.230439
H69   H     H_    0.191359 0.669775 0.690090 0.209835
H70   H     H_    0.311566 0.855838 0.400574 0.156525
H71   H     H_    0.226711 0.785601 0.582827 0.268614
H72   H     H_    0.179104 0.801981 0.727985 0.267726
H73   H     H_    0.133955 0.812656 0.578869 0.262380
H74   H     H_    0.684082 0.496865 0.267539 0.123671
H75   H     H_    0.260664 0.588648 0.572450 0.146836
H76   H     H_    0.919317 0.708095 0.254369 0.158242
H77   H     H_    0.994605 0.672123 0.333425 0.173472
H78   H     H_    0.837561 0.653440 0.420062 0.237038
H79   H     H_    0.915569 0.622683 0.504231 0.223924
H80   H     H_    0.959424 0.750219 0.524384 0.263075
H81   H     H_    0.393710 0.884436 0.330800 0.122492
H82   H     H_    0.871919 0.737965 0.593084 0.269198
H83   H     H_    0.880973 0.781768 0.441528 0.264605
H84   H     H_    0.078747 0.635682 0.043547 0.161858
H85   H     H_    0.012128 0.566652 0.058795 0.151656
H86   H     H_    0.175322 0.540906 0.074189 0.240964
H87   H     H_    0.106664 0.471982 0.072904 0.208203
H88   H     H_    0.069619 0.511277 0.856271 0.272368
H89   H     H_    0.162370 0.485606 0.861398 0.272508
H90   H     H_    0.139107 0.580220 0.857292 0.252634
H91   H     H_    0.088196 0.317678 0.302838 0.093724
H92   H     H_    0.264204 0.983986 0.382683 0.246651
H93   H     H_    0.035442 0.274168 0.425338 0.165933
H94   H     H_    0.197075 0.303932 0.441536 0.235490
H95   H     H_    0.142965 0.255997 0.555240 0.230176
H96   H     H_    0.113874 0.161330 0.393612 0.266175
H97   H     H_    0.209034 0.171274 0.414748 0.277438
H98   H     H_    0.167028 0.210185 0.277968 0.268054
H99   H     H_    0.920403 0.279697 0.346500 0.122243
H100  H     H_    0.865888 0.355075 0.302767 0.156409
H101  H     H_    0.844888 0.257002 0.535512 0.226470
H102  H     H_    0.792406 0.335873 0.500118 0.238500
N1    N     N_R   0.500000 0.689440 0.500000 -0.085905
N2    N     N_R   0.500000 0.310560 0.500000 -0.122261
O1    O     O_R   0.398180 0.560840 0.499970 -0.629368
O2    O     O_3   0.628709 0.928021 0.490443 -0.627561
O3    O     O_3   0.370368 0.074369 0.524508 -0.591654
O4    O     O_3   0.626139 0.075859 0.460175 -0.595869
O5    O     O_3   0.576571 0.159998 0.681473 -0.621687
O6    O     O_3   0.420439 0.159412 0.319370 -0.590321
O7    O     O_3   0.818024 0.486382 0.172275 -0.653407
O8    O     O_3   0.121233 0.594894 0.512837 -0.653749
O9    O     O_3   0.923368 0.597480 0.247166 -0.640328
O10   O     O_3   0.074397 0.591312 0.220094 -0.653759
O11   O     O_3   0.076573 0.374602 0.474493 -0.592450
O12   O     O_R   0.601820 0.560840 0.500030 -0.607490
O13   O     O_3   0.929010 0.366926 0.468498 -0.610288
O14   O     O_R   0.398180 0.439210 0.499910 -0.607758
O15   O     O_R   0.601820 0.439210 0.500090 -0.604030
O16   O     O_R   0.500000 0.560830 0.316760 -0.626127
O17   O     O_R   0.500000 0.560830 0.683240 -0.624502
O18   O     O_R   0.500000 0.439200 0.316700 -0.617579
O19   O     O_R   0.500000 0.439200 0.683300 -0.615149
O20   O     O_3   0.368770 0.925360 0.512486 -0.626099
Zn1   Zn    Zn3+2 0.500000 0.581210 0.500000 0.933289
Zn2   Zn    Zn3+2 0.500000 0.418790 0.500000 0.935595

loop_
_geom_bond_atom_site_label_1
_geom_bond_atom_site_label_2
_ccdc_geom_bond_type
C45   O7    S    
C83   H3    S    
C52   H19   S    
C34   C56   A    
C23   C45   A    
C55   H28   S    
C47   H8    S    
C40   C84   A    
C35   C36   A    
C73   H83   S    
C10   H37   S    
C11   H48   S    
C74   H84   S    
C15   O16   A    
C7    C8    A    
C57   H31   S    
C51   H18   S    
C47   H7    S    
C71   H76   S    
C23   C42   A    
C48   H10   S    
C82   H102  S    
C61   H40   S    
C81   O13   S    
C80   H96   S    
C8    O13   S    
C19   C21   A    
C24   C26   A    
C73   H80   S    
C62   H43   S    
C11   C14   A    
C12   O15   A    
C76   H89   S    
C2    C41   A    
C64   O7    S    
C44   O20   S    
C56   C78   A    
C12   C84   S    
C1    C2    S    
C46   C47   S    
C63   H46   S    
C76   H88   S    
O18   Zn2   S    
C74   H85   S    
C30   H51   S    
C33   C35   A    
C56   O8    S    
C26   N2    A    
C53   H22   S    
C18   O2    S    
C74   O10   S    
C68   C69   S    
C40   H54   S    
O16   Zn1   S    
C45   C67   A    
O19   Zn2   S    
O15   Zn2   S    
C71   O9    S    
C17   C22   A    
C80   H98   S    
C66   H64   S    
C63   H44   S    
C16   C37   S    
C27   N2    A    
C16   O19   A    
C40   C42   A    
C83   H4    S    
C4    O10   S    
C59   C60   S    
C77   H91   S    
C13   C14   A    
C58   H32   S    
C41   C43   A    
C61   C62   S    
N2    Zn2   S    
O14   Zn2   S    
C1    O14   A    
C67   C84   A    
C44   C46   S    
C81   C82   S    
C77   C79   S    
C83   H5    S    
C50   H14   S    
C74   C75   S    
C82   H101  S    
C42   H56   S    
C70   H71   S    
C27   H49   S    
N1    Zn1   S    
C68   H66   S    
C66   H65   S    
C16   O17   A    
C48   H9    S    
C62   H42   S    
C31   H52   S    
C13   H59   S    
C6    C8    A    
C64   H60   S    
C29   H50   S    
C58   C59   S    
C58   H33   S    
C33   C37   A    
C51   C52   S    
C54   H25   S    
C25   C28   A    
C60   H39   S    
C75   C76   S    
C62   C63   S    
C2    C78   A    
C9    C11   A    
C53   H23   S    
C39   H15   S    
C31   C32   A    
O17   Zn1   S    
C38   H1    S    
C5    C34   S    
C75   H86   S    
C10   N1    A    
C12   O12   A    
C79   H94   S    
C68   O8    S    
C80   H97   S    
C49   H11   S    
C60   H38   S    
C77   O11   S    
C66   H63   S    
C54   O4    S    
C32   H53   S    
C48   C49   S    
C21   C28   S    
C49   C50   S    
C59   H34   S    
C55   C57   S    
C75   H87   S    
C47   H6    S    
C46   H92   S    
C43   H57   S    
C51   H17   S    
C81   H99   S    
C65   H61   S    
C3    C4    A    
C15   C36   S    
C51   O3    S    
C52   C53   S    
C5    C7    A    
C63   H45   S    
C9    H26   S    
C54   C55   S    
C52   H20   S    
C50   H13   S    
C59   H35   S    
C71   H77   S    
C30   C33   A    
C55   H27   S    
C18   C22   A    
C69   H68   S    
C48   O2    S    
C17   O20   S    
C34   C43   A    
C24   C28   A    
C72   C73   S    
C9    N1    A    
C10   C13   A    
C20   O4    S    
C57   H29   S    
C57   H30   S    
C25   C27   A    
C29   C35   A    
C58   O5    S    
C50   H16   S    
O12   Zn1   S    
C54   H24   S    
C70   H73   S    
C44   H70   S    
C64   C65   S    
C14   C22   S    
C76   H90   S    
C71   C72   S    
C29   C31   A    
C68   H67   S    
O1    Zn1   S    
C30   C32   A    
C38   C39   A    
C64   H58   S    
C24   O5    S    
C6    C23   S    
C36   C38   A    
C3    O9    S    
C72   H79   S    
C60   H36   S    
C67   H74   S    
C18   C20   A    
C44   H81   S    
C65   C66   S    
C49   H12   S    
C7    O11   S    
C69   C70   S    
C73   H82   S    
C77   H93   S    
C41   H55   S    
C15   O18   A    
C69   H69   S    
C26   H47   S    
C79   C80   S    
C17   C19   A    
C53   H21   S    
C78   H75   S    
C4    C5    A    
C79   H95   S    
C20   C21   A    
C37   C39   A    
C82   C83   S    
C3    C6    A    
C72   H78   S    
C70   H72   S    
C61   H41   S    
C81   H100  S    
C65   H62   S    
C61   O6    S    
C25   O6    S    
C19   O3    S    
C46   H2    S    
C1    O1    A    
