data_mof_unit_61421.cif
_audit_creation_date              2012-12-10T17:41:48-0500
_audit_creation_method            fapswitch 2.2
_symmetry_space_group_name_H-M    P1
_symmetry_Int_Tables_number       1
_space_group_crystal_system       triclinic
_cell_length_a                    30.166935
_cell_length_b                    30.166937
_cell_length_c                    47.156547
_cell_angle_alpha                 90.000046
_cell_angle_beta                  90.000044
_cell_angle_gamma                 90.000014
_cell_volume                      42914.5339609

loop_
_atom_site_label
_atom_site_type_symbol
_atom_type_description
_atom_site_fract_x
_atom_site_fract_y
_atom_site_fract_z
_atom_type_partial_charge
C1    C     C_R   0.913353 0.500000 0.500000 0.896259
C2    C     C_R   0.500000 1.000000 0.645807 0.292211
C3    C     C_R   0.466132 0.203186 0.514225 0.120258
C4    C     C_R   0.796814 0.533868 0.485775 0.120258
C5    C     C_R   0.533868 0.203186 0.485775 0.120258
C6    C     C_R   0.203186 0.466132 0.485775 0.120258
C7    C     C_R   0.466132 0.796814 0.485775 0.120259
C8    C     C_R   0.296814 0.966132 0.014225 0.120258
C9    C     C_R   0.033868 0.296814 0.014225 0.120258
C10   C     C_R   0.703186 0.033868 0.014225 0.120259
C11   C     C_R   0.966132 0.703186 0.014225 0.120258
C12   C     C_R   0.296814 0.033868 0.985775 0.120258
C13   C     C_R   0.000000 0.500000 0.354193 0.292207
C14   C     C_R   0.033868 0.703186 0.985775 0.120258
C15   C     C_R   0.703186 0.966132 0.985775 0.120258
C16   C     C_R   0.966132 0.296814 0.985775 0.120259
C17   C     C_R   0.773462 0.500000 0.500000 0.094423
C18   C     C_R   0.500000 0.773462 0.500000 0.094422
C19   C     C_R   0.226538 0.500000 0.500000 0.094422
C20   C     C_R   0.500000 0.226538 0.500000 0.094422
C21   C     C_R   0.273462 0.000000 0.000000 0.094422
C22   C     C_R   1.000000 0.273462 0.000000 0.094422
C23   C     C_R   0.726538 1.000000 1.000000 0.094422
C24   C     C_R   0.500000 0.000000 0.354193 0.292206
C25   C     C_R   0.000000 0.726538 1.000000 0.094422
C26   C     C_R   0.842842 0.466056 0.513855 -0.238995
C27   C     C_R   0.533944 0.842842 0.513855 -0.238994
C28   C     C_R   0.157158 0.533944 0.513855 -0.238996
C29   C     C_R   0.466056 0.157158 0.513855 -0.238994
C30   C     C_R   0.842842 0.533944 0.486145 -0.238995
C31   C     C_R   0.533944 0.157158 0.486145 -0.238994
C32   C     C_R   0.157158 0.466056 0.486145 -0.238994
C33   C     C_R   0.466056 0.842842 0.486145 -0.238995
C34   C     C_R   0.342842 0.966056 0.013855 -0.238994
C35   C     C_R   0.500000 1.000000 0.145807 0.292206
C36   C     C_R   0.033944 0.342842 0.013855 -0.238994
C37   C     C_R   0.657158 0.033944 0.013855 -0.238995
C38   C     C_R   0.966056 0.657158 0.013855 -0.238995
C39   C     C_R   0.342842 0.033944 0.986145 -0.238995
C40   C     C_R   0.033944 0.657158 0.986145 -0.238994
C41   C     C_R   0.657158 0.966056 0.986145 -0.238994
C42   C     C_R   0.966056 0.342842 0.986145 -0.238995
C43   C     C_R   0.000000 0.500000 0.555367 0.873764
C44   C     C_R   0.500000 0.000000 0.555367 0.873765
C45   C     C_R   0.000000 0.500000 0.444633 0.873765
C46   C     C_R   0.000000 0.500000 0.145807 0.292207
C47   C     C_R   0.500000 1.000000 0.444633 0.873765
C48   C     C_R   0.500000 1.000000 0.055367 0.873764
C49   C     C_R   0.000000 0.500000 0.055367 0.873764
C50   C     C_R   0.500000 1.000000 0.944633 0.873764
C51   C     C_R   1.000000 0.500000 0.944633 0.873765
C52   C     C_R   0.865607 0.500000 0.500000 -0.068213
C53   C     C_R   0.500000 0.865607 0.500000 -0.068214
C54   C     C_R   0.134393 0.500000 0.500000 -0.068214
C55   C     C_R   0.500000 0.134393 0.500000 -0.068214
C56   C     C_R   0.365607 1.000000 1.000000 -0.068213
C57   C     C_R   0.500000 1.000000 0.854193 0.292205
C58   C     C_R   1.000000 0.365607 0.000000 -0.068214
C59   C     C_R   0.634393 1.000000 1.000000 -0.068214
C60   C     C_R   0.000000 0.634393 0.000000 -0.068213
C61   C     C_R   0.500000 0.586850 0.500000 0.961105
C62   C     C_R   0.413150 0.500000 0.500000 0.961106
C63   C     C_R   0.500000 0.413150 0.500000 0.961106
C64   C     C_R   0.586850 0.500000 0.500000 0.961105
C65   C     C_R   1.000000 0.086850 0.000000 0.961105
C66   C     C_R   0.913150 0.000000 1.000000 0.961106
C67   C     C_R   0.000000 0.913150 1.000000 0.961106
C68   C     C_R   1.000000 0.500000 0.854193 0.292207
C69   C     C_R   0.086850 0.000000 0.000000 0.961105
C70   C     C_R   0.975575 0.530966 0.809733 0.545743
C71   C     C_R   0.469037 0.975571 0.809732 0.545745
C72   C     C_R   0.024425 0.469034 0.809733 0.545745
C73   C     C_R   0.530963 0.024428 0.809733 0.545743
C74   C     C_R   0.975576 0.469034 0.190267 0.545744
C75   C     C_R   0.469034 0.024425 0.190267 0.545744
C76   C     C_R   0.024425 0.530966 0.190267 0.545744
C77   C     C_R   0.530966 0.975575 0.190267 0.545744
C78   C     C_R   0.475575 0.030966 0.309733 0.545745
C79   C     C_R   0.657401 0.533083 0.484656 0.082903
C80   C     C_R   0.969034 0.475575 0.309733 0.545745
C81   C     C_R   0.524424 0.969034 0.309733 0.545744
C82   C     C_R   0.030966 0.524425 0.309733 0.545744
C83   C     C_R   0.475579 0.969031 0.690267 0.545744
C84   C     C_R   0.969034 0.524425 0.690267 0.545744
C85   C     C_R   0.524421 0.030969 0.690267 0.545745
C86   C     C_R   0.030966 0.475575 0.690267 0.545744
C87   C     C_R   0.028416 0.470720 0.779973 -0.102193
C88   C     C_R   0.529277 0.028419 0.779973 -0.102192
C89   C     C_R   0.971584 0.529280 0.779973 -0.102193
C90   C     C_R   0.466917 0.657401 0.484656 0.082904
C91   C     C_R   0.470723 0.971580 0.779973 -0.102193
C92   C     C_R   0.028416 0.529280 0.220027 -0.102193
C93   C     C_R   0.529280 0.971584 0.220027 -0.102193
C94   C     C_R   0.971584 0.470719 0.220027 -0.102193
C95   C     C_R   0.470720 0.028416 0.220027 -0.102193
C96   C     C_R   0.528415 0.970719 0.279973 -0.102193
C97   C     C_R   0.029280 0.528416 0.279973 -0.102193
C98   C     C_R   0.471584 0.029281 0.279973 -0.102194
C99   C     C_R   0.970720 0.471584 0.279973 -0.102193
C100  C     C_R   0.528412 0.029284 0.720027 -0.102194
C101  C     C_R   0.342598 0.466917 0.484656 0.082904
C102  C     C_R   0.029280 0.471584 0.720027 -0.102193
C103  C     C_R   0.471588 0.970716 0.720027 -0.102193
C104  C     C_R   0.970720 0.528416 0.720027 -0.102193
C105  C     C_R   1.000000 0.500000 0.764966 -0.073680
C106  C     C_R   0.500000 1.000000 0.764966 -0.073680
C107  C     C_R   0.000000 0.500000 0.235034 -0.073680
C108  C     C_R   0.500000 0.000000 0.235034 -0.073680
C109  C     C_R   0.500000 1.000000 0.264966 -0.073680
C110  C     C_R   0.000000 0.500000 0.264966 -0.073680
C111  C     C_R   0.500000 1.000000 0.735034 -0.073680
C112  C     C_R   0.500000 0.913353 0.500000 0.896259
C113  C     C_R   0.533083 0.342598 0.484656 0.082903
C114  C     C_R   1.000000 0.500000 0.735034 -0.073680
C115  C     C_R   0.058553 0.443330 0.764894 0.165840
C116  C     C_R   0.556663 0.058560 0.764894 0.165839
C117  C     C_R   0.941447 0.556670 0.764894 0.165840
C118  C     C_R   0.443337 0.941440 0.764894 0.165839
C119  C     C_R   0.058553 0.556671 0.235106 0.165840
C120  C     C_R   0.556670 0.941446 0.235106 0.165840
C121  C     C_R   0.941447 0.443329 0.235106 0.165839
C122  C     C_R   0.443330 0.058554 0.235106 0.165840
C123  C     C_R   0.558552 0.943329 0.264894 0.165840
C124  C     C_R   0.657401 0.466917 0.515344 0.082903
C125  C     C_R   0.056670 0.558553 0.264894 0.165839
C126  C     C_R   0.441447 0.056671 0.264894 0.165840
C127  C     C_R   0.943330 0.441446 0.264894 0.165840
C128  C     C_R   0.558546 0.056678 0.735106 0.165840
C129  C     C_R   0.056670 0.441447 0.735106 0.165840
C130  C     C_R   0.441454 0.943322 0.735106 0.165840
C131  C     C_R   0.943329 0.558553 0.735106 0.165840
C132  C     C_R   0.007057 0.539574 0.630953 -0.086265
C133  C     C_R   0.460425 0.007054 0.630953 -0.086267
C134  C     C_R   0.992943 0.460426 0.630953 -0.086266
C135  C     C_R   0.466917 0.342599 0.515344 0.082903
C136  C     C_R   0.539575 0.992946 0.630953 -0.086268
C137  C     C_R   0.007057 0.460425 0.369047 -0.086266
C138  C     C_R   0.460425 0.992944 0.369047 -0.086266
C139  C     C_R   0.992943 0.539574 0.369047 -0.086266
C140  C     C_R   0.539574 0.007056 0.369047 -0.086266
C141  C     C_R   0.507057 0.039574 0.130953 -0.086265
C142  C     C_R   0.960426 0.507057 0.130953 -0.086266
C143  C     C_R   0.492943 0.960426 0.130953 -0.086267
C144  C     C_R   0.039575 0.492943 0.130953 -0.086266
C145  C     C_R   0.507060 0.960426 0.869047 -0.086264
C146  C     C_R   0.342598 0.533083 0.515344 0.082903
C147  C     C_R   0.960425 0.492943 0.869047 -0.086265
C148  C     C_R   0.492940 0.039574 0.869047 -0.086265
C149  C     C_R   0.039574 0.507057 0.869047 -0.086267
C150  C     C_R   0.006904 0.539642 0.601444 -0.202199
C151  C     C_R   0.460358 0.006901 0.601444 -0.202199
C152  C     C_R   0.993096 0.460358 0.601444 -0.202200
C153  C     C_R   0.539642 0.993099 0.601444 -0.202199
C154  C     C_R   0.006904 0.460358 0.398556 -0.202199
C155  C     C_R   0.460358 0.993097 0.398556 -0.202199
C156  C     C_R   0.993096 0.539642 0.398556 -0.202199
C157  C     C_R   0.533083 0.657402 0.515344 0.082903
C158  C     C_R   0.539642 0.006903 0.398556 -0.202199
C159  C     C_R   0.506904 0.039642 0.101443 -0.202199
C160  C     C_R   0.960358 0.506904 0.101443 -0.202199
C161  C     C_R   0.493096 0.960358 0.101443 -0.202199
C162  C     C_R   0.039642 0.493096 0.101443 -0.202200
C163  C     C_R   0.506907 0.960359 0.898556 -0.202201
C164  C     C_R   0.960358 0.493096 0.898556 -0.202199
C165  C     C_R   0.493093 0.039641 0.898556 -0.202201
C166  C     C_R   0.039642 0.506904 0.898556 -0.202199
C167  C     C_R   1.000000 0.500000 0.586463 -0.047955
C168  C     C_R   0.157401 0.033083 0.984656 0.082903
C169  C     C_R   0.500000 1.000000 0.586463 -0.047956
C170  C     C_R   0.000000 0.500000 0.413537 -0.047955
C171  C     C_R   0.500000 1.000000 0.413537 -0.047956
C172  C     C_R   0.500000 1.000000 0.086463 -0.047955
C173  C     C_R   1.000000 0.500000 0.086463 -0.047955
C174  C     C_R   0.500000 1.000000 0.913537 -0.047954
C175  C     C_R   1.000000 0.500000 0.913537 -0.047955
C176  C     C_R   0.966917 0.157401 0.984656 0.082904
C177  C     C_R   0.842598 0.966917 0.984656 0.082904
C178  C     C_R   0.033083 0.842598 0.984656 0.082903
C179  C     C_R   0.157402 0.966917 0.015344 0.082903
C180  C     C_R   0.086647 0.500000 0.500000 0.896258
C181  C     C_R   0.966917 0.842599 0.015344 0.082903
C182  C     C_R   0.842599 0.033083 0.015344 0.082903
C183  C     C_R   0.033083 0.157401 0.015344 0.082902
C184  C     C_R   0.634709 0.500000 0.500000 -0.150846
C185  C     C_R   0.500000 0.634709 0.500000 -0.150846
C186  C     C_R   0.365291 0.500000 0.500000 -0.150846
C187  C     C_R   0.500000 0.365291 0.500000 -0.150846
C188  C     C_R   0.134709 0.000000 0.000000 -0.150846
C189  C     C_R   1.000000 0.134709 0.000000 -0.150846
C190  C     C_R   0.865291 1.000000 1.000000 -0.150846
C191  C     C_R   0.500000 0.086647 0.500000 0.896259
C192  C     C_R   1.000000 0.865291 1.000000 -0.150846
C193  C     C_R   0.703836 0.466452 0.514973 0.068284
C194  C     C_R   0.533547 0.703836 0.514973 0.068285
C195  C     C_R   0.296163 0.533548 0.514973 0.068285
C196  C     C_R   0.466452 0.296163 0.514973 0.068285
C197  C     C_R   0.703836 0.533548 0.485027 0.068285
C198  C     C_R   0.533548 0.296163 0.485027 0.068285
C199  C     C_R   0.296163 0.466452 0.485027 0.068285
C200  C     C_R   0.466452 0.703837 0.485027 0.068285
C201  C     C_R   0.203837 0.966452 0.014973 0.068284
C202  C     C_R   0.413353 0.000000 1.000000 0.896259
C203  C     C_R   0.033547 0.203837 0.014973 0.068285
C204  C     C_R   0.796163 0.033548 0.014973 0.068285
C205  C     C_R   0.966452 0.796163 0.014973 0.068285
C206  C     C_R   0.203836 0.033548 0.985027 0.068285
C207  C     C_R   0.033547 0.796163 0.985027 0.068284
C208  C     C_R   0.796163 0.966452 0.985027 0.068285
C209  C     C_R   0.966452 0.203836 0.985027 0.068285
C210  C     C_R   0.726913 0.500000 0.500000 -0.004487
C211  C     C_R   0.500000 0.726913 0.500000 -0.004487
C212  C     C_R   0.273087 0.500000 0.500000 -0.004487
C213  C     C_R   0.000000 0.413353 0.000000 0.896259
C214  C     C_R   0.500000 0.273087 0.500000 -0.004487
C215  C     C_R   0.226913 0.000000 0.000000 -0.004487
C216  C     C_R   1.000000 0.226913 0.000000 -0.004487
C217  C     C_R   0.773087 1.000000 1.000000 -0.004487
C218  C     C_R   0.000000 0.773087 1.000000 -0.004487
C219  C     C_R   0.727972 0.433195 0.529176 -0.143079
C220  C     C_R   0.566805 0.727972 0.529176 -0.143079
C221  C     C_R   0.272028 0.566805 0.529176 -0.143080
C222  C     C_R   0.433195 0.272028 0.529176 -0.143079
C223  C     C_R   0.727972 0.566805 0.470824 -0.143080
C224  C     C_R   0.586647 1.000000 1.000000 0.896258
C225  C     C_R   0.566805 0.272028 0.470824 -0.143079
C226  C     C_R   0.272028 0.433195 0.470824 -0.143080
C227  C     C_R   0.433195 0.727972 0.470824 -0.143080
C228  C     C_R   0.227972 0.933195 0.029176 -0.143079
C229  C     C_R   0.066805 0.227972 0.029176 -0.143080
C230  C     C_R   0.772028 0.066805 0.029176 -0.143080
C231  C     C_R   0.933195 0.772028 0.029176 -0.143079
C232  C     C_R   0.227972 0.066805 0.970824 -0.143080
C233  C     C_R   0.066805 0.772028 0.970824 -0.143079
C234  C     C_R   0.772028 0.933195 0.970824 -0.143080
C235  C     C_R   1.000000 0.586647 0.000000 0.896258
C236  C     C_R   0.933195 0.227972 0.970824 -0.143080
C237  C     C_R   0.773937 0.432957 0.528648 -0.210236
C238  C     C_R   0.567043 0.773938 0.528648 -0.210235
C239  C     C_R   0.226062 0.567043 0.528648 -0.210236
C240  C     C_R   0.432957 0.226062 0.528648 -0.210236
C241  C     C_R   0.773937 0.567043 0.471352 -0.210237
C242  C     C_R   0.567043 0.226063 0.471352 -0.210236
C243  C     C_R   0.226062 0.432957 0.471352 -0.210236
C244  C     C_R   0.432957 0.773937 0.471352 -0.210236
C245  C     C_R   0.273937 0.932957 0.028648 -0.210237
C246  C     C_R   1.000000 0.500000 0.645807 0.292206
C247  C     C_R   0.067043 0.273938 0.028648 -0.210235
C248  C     C_R   0.726063 0.067043 0.028648 -0.210236
C249  C     C_R   0.932957 0.726063 0.028648 -0.210237
C250  C     C_R   0.273937 0.067043 0.971352 -0.210237
C251  C     C_R   0.067043 0.726063 0.971352 -0.210236
C252  C     C_R   0.726062 0.932957 0.971352 -0.210236
C253  C     C_R   0.932957 0.273937 0.971352 -0.210236
C254  C     C_R   0.796814 0.466132 0.514225 0.120258
C255  C     C_R   0.533868 0.796814 0.514225 0.120258
C256  C     C_R   0.203186 0.533868 0.514225 0.120259
H1    H     H_    0.012744 0.570240 0.642325 0.153546
H2    H     H_    0.929760 0.512744 0.142325 0.153546
H3    H     H_    0.487255 0.929760 0.142325 0.153547
H4    H     H_    0.070240 0.487256 0.142325 0.153546
H5    H     H_    0.512750 0.929761 0.857675 0.153548
H6    H     H_    0.929760 0.487256 0.857675 0.153546
H7    H     H_    0.487250 0.070239 0.857675 0.153548
H8    H     H_    0.070240 0.512744 0.857675 0.153546
H9    H     H_    0.012479 0.570615 0.590395 0.169405
H10   H     H_    0.429385 0.012475 0.590395 0.169406
H11   H     H_    0.987521 0.429385 0.590395 0.169406
H12   H     H_    0.429759 0.012739 0.642325 0.153544
H13   H     H_    0.570615 0.987525 0.590395 0.169406
H14   H     H_    0.012480 0.429386 0.409605 0.169405
H15   H     H_    0.429385 0.987521 0.409605 0.169405
H16   H     H_    0.987520 0.570614 0.409605 0.169405
H17   H     H_    0.570614 0.012479 0.409605 0.169405
H18   H     H_    0.512480 0.070614 0.090394 0.169405
H19   H     H_    0.929386 0.512479 0.090394 0.169405
H20   H     H_    0.487520 0.929386 0.090394 0.169405
H21   H     H_    0.070614 0.487520 0.090394 0.169405
H22   H     H_    0.512485 0.929387 0.909605 0.169405
H23   H     H_    0.987256 0.429760 0.642325 0.153546
H24   H     H_    0.929385 0.487521 0.909605 0.169405
H25   H     H_    0.487515 0.070613 0.909605 0.169405
H26   H     H_    0.070614 0.512479 0.909605 0.169406
H27   H     H_    0.712048 0.406809 0.540770 0.186991
H28   H     H_    0.593191 0.712048 0.540770 0.186991
H29   H     H_    0.287952 0.593191 0.540770 0.186992
H30   H     H_    0.406809 0.287952 0.540770 0.186992
H31   H     H_    0.712048 0.593191 0.459230 0.186992
H32   H     H_    0.593191 0.287952 0.459230 0.186991
H33   H     H_    0.287952 0.406809 0.459230 0.186992
H34   H     H_    0.570241 0.987261 0.642325 0.153544
H35   H     H_    0.406809 0.712048 0.459230 0.186992
H36   H     H_    0.212048 0.906809 0.040770 0.186991
H37   H     H_    0.093191 0.212048 0.040770 0.186992
H38   H     H_    0.787952 0.093191 0.040770 0.186992
H39   H     H_    0.906809 0.787952 0.040770 0.186992
H40   H     H_    0.212048 0.093191 0.959230 0.186992
H41   H     H_    0.093191 0.787952 0.959230 0.186991
H42   H     H_    0.787952 0.906809 0.959230 0.186992
H43   H     H_    0.906809 0.212048 0.959230 0.186992
H44   H     H_    0.791623 0.406849 0.539673 0.158528
H45   H     H_    0.012745 0.429760 0.357675 0.153546
H46   H     H_    0.593151 0.791623 0.539673 0.158528
H47   H     H_    0.208377 0.593151 0.539673 0.158528
H48   H     H_    0.406849 0.208377 0.539673 0.158528
H49   H     H_    0.791623 0.593151 0.460327 0.158528
H50   H     H_    0.593151 0.208377 0.460327 0.158528
H51   H     H_    0.208377 0.406849 0.460327 0.158528
H52   H     H_    0.406849 0.791623 0.460327 0.158528
H53   H     H_    0.291623 0.906849 0.039673 0.158528
H54   H     H_    0.093151 0.291623 0.039673 0.158528
H55   H     H_    0.708377 0.093151 0.039673 0.158528
H56   H     H_    0.429759 0.987257 0.357675 0.153546
H57   H     H_    0.906849 0.708377 0.039673 0.158528
H58   H     H_    0.291623 0.093151 0.960327 0.158528
H59   H     H_    0.093151 0.708377 0.960327 0.158528
H60   H     H_    0.708377 0.906849 0.960327 0.158528
H61   H     H_    0.906849 0.291623 0.960327 0.158528
H62   H     H_    0.861004 0.440092 0.524746 0.159439
H63   H     H_    0.559908 0.861004 0.524746 0.159439
H64   H     H_    0.138996 0.559908 0.524746 0.159439
H65   H     H_    0.440092 0.138996 0.524746 0.159439
H66   H     H_    0.861004 0.559908 0.475254 0.159439
H67   H     H_    0.987255 0.570240 0.357675 0.153546
H68   H     H_    0.559908 0.138996 0.475254 0.159439
H69   H     H_    0.138996 0.440092 0.475254 0.159439
H70   H     H_    0.440092 0.861004 0.475254 0.159440
H71   H     H_    0.361004 0.940092 0.024746 0.159439
H72   H     H_    0.059908 0.361004 0.024746 0.159439
H73   H     H_    0.638996 0.059908 0.024746 0.159439
H74   H     H_    0.940092 0.638996 0.024746 0.159439
H75   H     H_    0.361004 0.059908 0.975254 0.159439
H76   H     H_    0.059908 0.638996 0.975254 0.159439
H77   H     H_    0.638996 0.940092 0.975254 0.159439
H78   H     H_    0.570240 0.012743 0.357675 0.153546
H79   H     H_    0.940092 0.361004 0.975254 0.159440
H80   H     H_    0.512745 0.070240 0.142325 0.153546
I1    I     I_    0.113161 0.410189 0.785551 -0.157527
I2    I     I_    0.089810 0.613162 0.285551 -0.157528
I3    I     I_    0.386839 0.089812 0.285551 -0.157528
I4    I     I_    0.910190 0.386838 0.285551 -0.157528
I5    I     I_    0.613150 0.089825 0.714449 -0.157526
I6    I     I_    0.089811 0.386839 0.714449 -0.157528
I7    I     I_    0.386850 0.910175 0.714449 -0.157526
I8    I     I_    0.910189 0.613162 0.714449 -0.157528
I9    I     I_    0.621086 0.583284 0.461730 -0.297552
I10   I     I_    0.416716 0.621086 0.461730 -0.297552
I11   I     I_    0.378914 0.416716 0.461730 -0.297551
I12   I     I_    0.589796 0.113173 0.785551 -0.157529
I13   I     I_    0.583283 0.378914 0.461730 -0.297552
I14   I     I_    0.621086 0.416716 0.538270 -0.297551
I15   I     I_    0.416716 0.378914 0.538270 -0.297551
I16   I     I_    0.378914 0.583284 0.538270 -0.297551
I17   I     I_    0.583283 0.621086 0.538270 -0.297551
I18   I     I_    0.121086 0.083284 0.961730 -0.297552
I19   I     I_    0.916716 0.121086 0.961730 -0.297552
I20   I     I_    0.878914 0.916716 0.961729 -0.297552
I21   I     I_    0.083283 0.878914 0.961730 -0.297552
I22   I     I_    0.121086 0.916716 0.038270 -0.297552
I23   I     I_    0.886838 0.589811 0.785551 -0.157528
I24   I     I_    0.916716 0.878914 0.038270 -0.297551
I25   I     I_    0.878914 0.083284 0.038270 -0.297552
I26   I     I_    0.083284 0.121086 0.038270 -0.297552
I27   I     I_    0.410203 0.886827 0.785551 -0.157529
I28   I     I_    0.113161 0.589811 0.214449 -0.157527
I29   I     I_    0.589809 0.886838 0.214449 -0.157528
I30   I     I_    0.886839 0.410188 0.214449 -0.157527
I31   I     I_    0.410190 0.113162 0.214449 -0.157528
I32   I     I_    0.613160 0.910188 0.285551 -0.157528
N1    N     N_R   1.000000 0.500000 0.823785 -0.361060
N2    N     N_R   0.500000 1.000000 0.823785 -0.361059
N3    N     N_R   0.000000 0.500000 0.176215 -0.361060
N4    N     N_R   0.500000 0.000000 0.176215 -0.361060
N5    N     N_R   0.500000 1.000000 0.323785 -0.361060
N6    N     N_R   0.000000 0.500000 0.323785 -0.361060
N7    N     N_R   0.500000 1.000000 0.676215 -0.361060
N8    N     N_R   1.000000 0.500000 0.676215 -0.361060
O1    O     O_R   0.933960 0.462710 0.499980 -0.620310
O2    O     O_R   0.037290 0.433960 0.999980 -0.620310
O3    O     O_R   0.566040 0.037290 0.999980 -0.620310
O4    O     O_R   0.962710 0.566040 0.999980 -0.620310
O5    O     O_R   0.433960 0.037290 0.000020 -0.620311
O6    O     O_R   0.037290 0.566040 0.000020 -0.620311
O7    O     O_R   0.566040 0.962710 0.000020 -0.620310
O8    O     O_R   0.962710 0.433960 0.000020 -0.620310
O9    O     O_R   0.000060 0.462720 0.541890 -0.621801
O10   O     O_R   0.537280 0.000060 0.541890 -0.621802
O11   O     O_R   0.999940 0.537280 0.541890 -0.621802
O12   O     O_R   0.537290 0.933960 0.499980 -0.620310
O13   O     O_R   0.462720 0.999940 0.541890 -0.621802
O14   O     O_R   0.000060 0.537280 0.458110 -0.621801
O15   O     O_R   0.537280 0.999940 0.458110 -0.621801
O16   O     O_R   0.999940 0.462720 0.458110 -0.621801
O17   O     O_R   0.462720 0.000060 0.458110 -0.621801
O18   O     O_R   0.500060 0.962720 0.041890 -0.621801
O19   O     O_R   0.037280 0.500060 0.041890 -0.621801
O20   O     O_R   0.499940 0.037280 0.041890 -0.621801
O21   O     O_R   0.962720 0.499940 0.041890 -0.621801
O22   O     O_R   0.500060 0.037280 0.958110 -0.621800
O23   O     O_R   0.066040 0.537290 0.499980 -0.620311
O24   O     O_R   0.037280 0.499940 0.958110 -0.621801
O25   O     O_R   0.499940 0.962720 0.958110 -0.621800
O26   O     O_R   0.962720 0.500060 0.958110 -0.621801
O27   O     O_2   0.956889 0.564025 0.824736 -0.510397
O28   O     O_2   0.435981 0.956882 0.824735 -0.510398
O29   O     O_2   0.043111 0.435976 0.824735 -0.510398
O30   O     O_2   0.564019 0.043118 0.824736 -0.510398
O31   O     O_2   0.956890 0.435975 0.175264 -0.510397
O32   O     O_2   0.435976 0.043111 0.175264 -0.510397
O33   O     O_2   0.043111 0.564024 0.175264 -0.510398
O34   O     O_R   0.462710 0.066040 0.499980 -0.620310
O35   O     O_2   0.564024 0.956889 0.175264 -0.510397
O36   O     O_2   0.456890 0.064025 0.324736 -0.510398
O37   O     O_2   0.935976 0.456889 0.324735 -0.510398
O38   O     O_2   0.543110 0.935975 0.324735 -0.510398
O39   O     O_2   0.064024 0.543111 0.324736 -0.510397
O40   O     O_2   0.456896 0.935971 0.675264 -0.510397
O41   O     O_2   0.935975 0.543111 0.675264 -0.510397
O42   O     O_2   0.543104 0.064029 0.675264 -0.510397
O43   O     O_2   0.064024 0.456889 0.675264 -0.510397
O44   O     O_R   0.500030 0.566120 0.523650 -0.592453
O45   O     O_R   0.933960 0.537290 0.500020 -0.620311
O46   O     O_R   0.433880 0.500030 0.523650 -0.592453
O47   O     O_R   0.499970 0.433880 0.523650 -0.592453
O48   O     O_R   0.566120 0.499970 0.523650 -0.592453
O49   O     O_R   0.500030 0.433880 0.476350 -0.592452
O50   O     O_R   0.433880 0.499970 0.476350 -0.592452
O51   O     O_R   0.499970 0.566120 0.476350 -0.592452
O52   O     O_R   0.566120 0.500030 0.476350 -0.592452
O53   O     O_R   0.000030 0.066120 0.023650 -0.592453
O54   O     O_R   0.933880 0.000030 0.023650 -0.592453
O55   O     O_R   0.999970 0.933880 0.023650 -0.592453
O56   O     O_R   0.537290 0.066040 0.500020 -0.620311
O57   O     O_R   0.066120 0.999970 0.023650 -0.592453
O58   O     O_R   0.000030 0.933880 0.976350 -0.592452
O59   O     O_R   0.933880 0.999970 0.976350 -0.592452
O60   O     O_R   0.999970 0.066120 0.976350 -0.592452
O61   O     O_R   0.066120 0.000030 0.976350 -0.592452
O62   O     O_R   0.066040 0.462710 0.500020 -0.620310
O63   O     O_R   0.462710 0.933960 0.500020 -0.620310
O64   O     O_R   0.433960 0.962710 0.999980 -0.620310
Zn1   Zn    Zn3+2 0.000000 0.450210 0.500000 0.983502
Zn2   Zn    Zn3+2 0.500000 0.500000 0.468420 1.098240
Zn3   Zn    Zn3+2 1.000000 1.000000 0.031580 1.098239
Zn4   Zn    Zn3+2 1.000000 1.000000 0.968420 1.098240
Zn5   Zn    Zn3+2 0.549790 1.000000 0.500000 0.983502
Zn6   Zn    Zn3+2 0.000000 0.549790 0.500000 0.983502
Zn7   Zn    Zn3+2 0.450210 1.000000 0.500000 0.983502
Zn8   Zn    Zn3+2 0.500000 0.950210 0.000000 0.983503
Zn9   Zn    Zn3+2 0.049790 0.500000 0.000000 0.983502
Zn10  Zn    Zn3+2 0.500000 0.049790 0.000000 0.983503
Zn11  Zn    Zn3+2 0.950210 0.500000 0.000000 0.983503
Zn12  Zn    Zn3+2 0.500000 0.500000 0.531580 1.098240

loop_
_geom_bond_atom_site_label_1
_geom_bond_atom_site_label_2
_ccdc_geom_bond_type
C138  C155  A    
C241  H49   S    
C34   C56   A    
C57   C145  A    
O16   Zn1   S    
C135  I15   S    
O47   Zn12  S    
C6    C32   A    
C133  C151  A    
O8    Zn11  S    
C128  I5    S    
C84   N8    A    
C45   C170  S    
C42   C58   A    
C49   C173  S    
C75   C95   A    
C35   N4    S    
C24   C140  A    
C177  I20   S    
O13   Zn7   S    
C11   C249  A    
C27   H63   S    
C33   H70   S    
C29   H65   S    
C134  H23   S    
C13   C139  A    
C62   O46   A    
C92   C119  A    
C147  C164  A    
C244  H52   S    
C245  H53   S    
C74   O31   S    
C180  O23   A    
C115  I1    S    
C132  C150  A    
C79   C184  A    
C154  C170  A    
O21   Zn11  S    
O15   Zn5   S    
C68   C149  A    
O60   Zn4   S    
C47   O15   A    
C161  C172  A    
C93   C120  A    
C236  C253  A    
C87   C115  A    
C98   C109  A    
C251  H59   S    
C148  C165  A    
C7    C33   A    
C220  C238  A    
C25   C218  A    
C223  H31   S    
C74   N3    A    
C183  C189  A    
O61   Zn4   S    
C168  I18   S    
C94   C107  A    
C134  C246  A    
C79   I9    S    
C159  C172  A    
C181  I24   S    
C19   C212  A    
C237  C254  A    
C17   C210  A    
C195  C221  A    
C28   C54   A    
C14   C251  A    
C29   C55   A    
C225  C242  A    
C99   C110  A    
C200  C227  A    
C55   C191  S    
C73   C88   A    
C102  C114  A    
C16   C253  A    
C39   C56   A    
C91   C118  A    
C220  H28   S    
C160  H19   S    
C51   O24   A    
C221  H29   S    
C150  H9    S    
C45   O14   A    
C233  H41   S    
C235  O4    A    
C179  C188  A    
C61   O51   A    
C95   C122  A    
C65   C189  S    
C8    C245  A    
C107  C110  A    
C198  C214  A    
C28   H64   S    
C152  C167  A    
O11   Zn6   S    
C208  C217  A    
C117  I23   S    
O18   Zn8   S    
C83   O40   S    
C49   O21   A    
C47   C171  S    
C27   C53   A    
C77   N4    A    
C96   C109  A    
O14   Zn6   S    
C49   O19   A    
C130  I7    S    
C222  H30   S    
C136  C153  A    
C219  C237  A    
C176  C189  A    
O5    Zn10  S    
C223  C241  A    
C118  I27   S    
O4    Zn11  S    
C156  C170  A    
O23   Zn6   S    
C112  O63   A    
C31   H68   S    
C103  C130  A    
C80   N6    A    
C95   C108  A    
O1    Zn1   S    
C36   H72   S    
C191  O56   A    
C78   N5    A    
C100  C111  A    
O48   Zn12  S    
C252  H60   S    
C253  H61   S    
C182  C190  A    
C224  O3    A    
C131  I8    S    
C154  H14   S    
O20   Zn10  S    
O12   Zn5   S    
C143  C161  A    
C71   N2    A    
C13   C137  A    
C64   O52   A    
O34   Zn7   S    
C23   C217  A    
C88   C116  A    
C40   C60   A    
O9    Zn1   S    
C160  C173  A    
C1    O45   A    
C75   O32   S    
C5    C20   A    
C108  C109  A    
C6    C19   A    
C83   C103  A    
C221  C239  A    
C227  H35   S    
C157  C185  A    
C124  C184  A    
C38   H74   S    
O54   Zn3   S    
C181  C192  A    
C246  N8    S    
C250  H58   S    
C11   C25   A    
C196  C214  A    
C178  I21   S    
C77   C93   A    
C44   O13   A    
C3    C29   A    
C45   O16   A    
C140  C158  A    
C135  C196  A    
O17   Zn7   S    
C141  C159  A    
O52   Zn2   S    
C242  H50   S    
C104  C131  A    
C9    C36   A    
C2    N7    S    
C237  H44   S    
C3    C240  A    
C62   C186  S    
O58   Zn4   S    
C26   H62   S    
C14   C25   A    
C179  I22   S    
C82   O39   S    
C234  H42   S    
C60   C235  S    
C62   O50   A    
C135  C187  A    
C162  H21   S    
C8    C21   A    
C106  C111  A    
C17   C254  A    
C200  C211  A    
C121  I30   S    
C143  H3    S    
C123  I32   S    
C59   C224  S    
C227  C244  A    
C67   C192  S    
C46   C144  A    
O59   Zn4   S    
C145  C163  A    
C165  C174  A    
C34   H71   S    
C20   C214  A    
C94   C121  A    
C178  C192  A    
C151  H10   S    
C87   C105  A    
C43   O9    A    
C61   C185  S    
O22   Zn10  S    
C141  H80   S    
C8    C34   A    
C32   H69   S    
C239  H47   S    
C240  H48   S    
C89   C117  A    
C63   C187  S    
C80   C99   A    
C145  H5    S    
C84   C104  A    
C38   C60   A    
C205  C231  A    
C70   C89   A    
C183  I26   S    
C44   O10   A    
C86   C102  A    
C76   O33   S    
C72   C87   A    
C207  C233  A    
C158  H17   S    
C193  C219  A    
C30   C52   A    
C177  C190  A    
C96   C123  A    
C100  C128  A    
C158  C171  A    
O24   Zn9   S    
C197  C223  A    
O63   Zn7   S    
C101  C199  A    
C43   C167  S    
O7    Zn8   S    
C151  C169  A    
C177  C208  A    
C238  C255  A    
C71   O28   S    
C213  O2    A    
C136  H34   S    
C41   H77   S    
C85   O42   S    
C132  C246  A    
O56   Zn5   S    
C66   C190  S    
C180  O62   A    
C117  C131  A    
C199  C226  A    
C63   O49   A    
C64   C184  S    
O19   Zn9   S    
C35   C141  A    
C10   C248  A    
C89   C105  A    
C129  I6    S    
C51   O26   A    
C146  C195  A    
C68   N1    S    
C231  C249  A    
C206  C215  A    
C125  I2    S    
C168  C188  A    
C16   C42   A    
C74   C94   A    
C47   O17   A    
C46   C142  A    
C162  C173  A    
C166  C175  A    
C30   H66   S    
C182  C204  A    
C50   O25   A    
C121  C127  A    
C93   C108  A    
C15   C252  A    
C113  C187  A    
C226  H33   S    
C12   C250  A    
C176  C209  A    
C103  C111  A    
C199  C212  A    
C37   H73   S    
C44   C169  S    
C197  C210  A    
C65   O53   A    
C179  C201  A    
C7    C244  A    
C113  C198  A    
C21   C215  A    
O3    Zn10  S    
C137  H45   S    
C57   N2    S    
C5    C242  A    
C120  I29   S    
C120  C123  A    
C144  C162  A    
C37   C59   A    
C43   O11   A    
C75   N4    A    
C243  H51   S    
C80   O37   S    
C56   C202  S    
C32   C54   A    
C124  I14   S    
C238  H46   S    
C248  H55   S    
C202  O5    A    
C206  C232  A    
C157  C194  A    
C2    C133  A    
C225  H32   S    
C165  H25   S    
C203  C216  A    
C15   C41   A    
C97   C125  A    
C72   O29   S    
C142  C160  A    
C81   C96   A    
C194  C220  A    
C86   O43   S    
C112  O12   A    
C84   O41   S    
C69   O61   A    
O62   Zn1   S    
C140  H78   S    
C11   C38   A    
C118  C130  A    
C138  H56   S    
C134  C152  A    
C178  C207  A    
O44   Zn12  S    
O45   Zn6   S    
C3    C20   A    
C51   C175  S    
C70   O27   S    
C4    C17   A    
C119  C125  A    
C139  H67   S    
O25   Zn8   S    
C82   C97   A    
C81   N5    A    
C127  I4    S    
C233  C251  A    
C83   N7    A    
C85   N7    A    
C207  C218  A    
C16   C22   A    
C159  H18   S    
C146  C186  A    
C155  H15   S    
C132  H1    S    
C156  H16   S    
C90   C185  A    
C18   C255  A    
C101  I11   S    
C122  I31   S    
C195  C212  A    
C12   C39   A    
C209  C236  A    
C42   H79   S    
O6    Zn9   S    
C226  C243  A    
C150  C167  A    
C222  C240  A    
C137  C154  A    
C18   C211  A    
C70   N1    A    
C9    C247  A    
C1    C52   S    
O55   Zn3   S    
C58   C213  S    
C19   C256  A    
C98   C126  A    
C71   C91   A    
C57   C148  A    
C153  C169  A    
C239  C256  A    
C176  I19   S    
C31   C55   A    
O26   Zn11  S    
C27   C255  A    
C72   N1    A    
C73   N2    A    
C40   H76   S    
C35   C143  A    
C247  H54   S    
C201  C228  A    
C219  H27   S    
C79   C197  A    
C22   C216  A    
C116  I12   S    
C102  C129  A    
C157  I17   S    
C193  C210  A    
C164  C175  A    
C10   C37   A    
O46   Zn12  S    
O49   Zn2   S    
C36   C58   A    
C9    C22   A    
C90   C200  A    
C82   N6    A    
C142  H2    S    
C201  C215  A    
C81   O38   S    
C194  C211  A    
C48   C172  S    
C213  O8    A    
C67   O58   A    
C124  C193  A    
C78   C98   A    
O64   Zn8   S    
C65   O60   A    
C146  I16   S    
C66   O59   A    
C149  H8    S    
C198  C225  A    
C48   O18   A    
C15   C23   A    
C77   O35   S    
C91   C106  A    
C78   O36   S    
C126  I3    S    
C152  H11   S    
C33   C53   A    
C1    O1    A    
C205  C218  A    
C209  C216  A    
C105  C114  A    
C41   C59   A    
C26   C254  A    
C236  H43   S    
C234  C252  A    
C203  C229  A    
C66   O54   A    
C86   N8    A    
C228  C245  A    
C24   C138  A    
C14   C40   A    
C12   C21   A    
C2    C136  A    
C50   O22   A    
C191  O34   A    
C229  C247  A    
C122  C126  A    
C181  C205  A    
C231  H39   S    
C161  H20   S    
C26   C52   A    
C73   O30   S    
C232  H40   S    
C61   O44   A    
C88   C106  A    
C92   C107  A    
C99   C127  A    
C7    C18   A    
O50   Zn2   S    
C13   N6    S    
C228  H36   S    
C147  H6    S    
C229  H37   S    
C69   C188  S    
C24   N5    S    
C68   C147  A    
C46   N3    S    
C76   C92   A    
C104  C114  A    
C53   C112  S    
C168  C206  A    
C6    C243  A    
C90   I10   S    
C232  C250  A    
C166  H26   S    
O2    Zn9   S    
C101  C186  A    
C208  C234  A    
C119  I28   S    
C76   N3    A    
C230  C248  A    
C133  H12   S    
C115  C129  A    
O53   Zn3   S    
O51   Zn2   S    
C69   O57   A    
C153  H13   S    
C149  C166  A    
C28   C256  A    
C224  O7    A    
C67   O55   A    
O10   Zn5   S    
C163  H22   S    
C39   H75   S    
C10   C23   A    
O57   Zn3   S    
C204  C217  A    
C50   C174  S    
C183  C203  A    
C63   O47   A    
C230  H38   S    
C85   C100  A    
C97   C110  A    
C113  I13   S    
C139  C156  A    
C54   C180  S    
C148  H7    S    
C204  C230  A    
C144  H4    S    
C4    C30   A    
C202  O64   A    
C4    C241  A    
C48   O20   A    
C249  H57   S    
C155  C171  A    
C64   O48   A    
C116  C128  A    
C164  H24   S    
C182  I25   S    
C163  C174  A    
C196  C222  A    
C235  O6    A    
C5    C31   A    
