data_mof_unit_26728.cif
_audit_creation_date              2012-12-10T17:19:54-0500
_audit_creation_method            fapswitch 2.2
_symmetry_space_group_name_H-M    P1
_symmetry_Int_Tables_number       1
_space_group_crystal_system       triclinic
_cell_length_a                    9.576202
_cell_length_b                    10.864284
_cell_length_c                    15.414618
_cell_angle_alpha                 87.678984
_cell_angle_beta                  74.669211
_cell_angle_gamma                 90.38324
_cell_volume                      1545.12681494

loop_
_atom_site_label
_atom_site_type_symbol
_atom_type_description
_atom_site_fract_x
_atom_site_fract_y
_atom_site_fract_z
_atom_type_partial_charge
C1    C     C_R   0.003365 0.263066 0.492889 0.804162
C2    C     C_R   0.676548 0.513555 0.909633 0.091067
C3    C     C_R   0.773869 0.480808 0.961316 0.118545
C4    C     C_R   0.528289 0.535545 0.954083 0.080241
C5    C     C_R   0.479400 0.516561 0.049437 0.064033
C6    C     C_R   0.582425 0.489856 0.098199 -0.216579
C7    C     C_R   0.726325 0.471918 0.054746 -0.230383
C8    C     C_R   0.427395 0.576458 0.906972 -0.225809
C9    C     C_R   0.283066 0.594377 0.951351 -0.246886
C10   C     C_R   0.232534 0.569211 0.043663 0.167305
C11   C     C_R   0.329419 0.527435 0.093312 0.090048
C12   C     C_R   0.918851 0.497719 0.672691 0.813013
C13   C     C_R   0.085683 0.585731 0.087116 -0.217864
C14   C     C_R   0.033385 0.560262 0.179488 -0.211021
C15   C     C_R   0.272333 0.496741 0.185392 -0.252417
C16   C     C_R   0.279770 0.122533 0.441305 -0.159023
C17   C     C_R   0.404082 0.064702 0.451663 -0.157184
C18   C     C_R   0.392560 0.949946 0.496117 -0.140192
C19   C     C_R   0.259200 0.887794 0.521804 -0.164434
C20   C     C_R   0.134465 0.939626 0.502395 0.094751
C21   C     C_R   0.141347 0.065421 0.475395 0.097105
C22   C     C_R   0.009528 0.129258 0.484846 -0.121940
C23   C     C_R   0.999459 0.737614 0.504940 0.784825
C24   C     C_R   0.879110 0.062970 0.498925 -0.211062
C25   C     C_R   0.877375 0.935793 0.506561 -0.213120
C26   C     C_R   0.003459 0.872314 0.508468 -0.115151
C27   C     C_R   0.697622 0.661970 0.379421 -0.170387
C28   C     C_R   0.651498 0.741903 0.320607 -0.229912
C29   C     C_R   0.507437 0.743461 0.321210 -0.190928
C30   C     C_R   0.408736 0.664923 0.380492 -0.146493
C31   C     C_R   0.451011 0.580926 0.441289 0.192596
C32   C     C_R   0.600847 0.580188 0.440984 0.206262
C33   C     C_R   0.549737 0.422737 0.555494 -0.069843
C34   C     C_R   0.081478 0.502490 0.327743 0.774772
C35   C     C_R   0.401853 0.422468 0.555217 -0.078792
C36   C     C_R   0.875386 0.493908 0.772544 -0.072718
C37   C     C_R   0.127237 0.516596 0.229115 -0.045386
C38   C     C_R   0.918624 0.456119 0.919546 -0.209949
C39   C     C_R   0.971195 0.461790 0.825792 0.175240
C40   C     C_R   0.730479 0.519543 0.815296 -0.301177
Cu1   Cu    Cu3+1 0.140660 0.499990 0.500010 0.914634
Cu2   Cu    Cu3+1 0.859340 0.500010 0.499990 0.926644
H1    H     H_    0.800815 0.449422 0.094898 0.150463
H2    H     H_    0.011765 0.620271 0.049812 0.143300
H3    H     H_    0.777592 0.109344 0.504109 0.161555
H4    H     H_    0.294265 0.210730 0.404789 0.161000
H5    H     H_    0.508732 0.110581 0.427536 0.136148
H6    H     H_    0.487586 0.907692 0.509053 0.138064
H7    H     H_    0.255929 0.801667 0.559639 0.167409
H8    H     H_    0.775845 0.887234 0.512528 0.164340
H9    H     H_    0.585224 0.359351 0.600929 0.140792
H10   H     H_    0.810350 0.668170 0.373343 0.202542
H11   H     H_    0.728391 0.803263 0.274313 0.155544
H12   H     H_    0.338338 0.455948 0.225126 0.150048
H13   H     H_    0.471424 0.806406 0.275614 0.158166
H14   H     H_    0.301021 0.675174 0.375585 0.204635
H15   H     H_    0.326935 0.358454 0.600023 0.144190
H16   H     H_    0.920799 0.577036 0.212143 0.154055
H17   H     H_    0.209978 0.626988 0.912758 0.156336
H18   H     H_    0.990673 0.429916 0.960577 0.145662
H19   H     H_    0.660538 0.541509 0.772891 0.162288
H20   H     H_    0.556468 0.484592 0.170630 0.149309
H21   H     H_    0.456433 0.598539 0.835708 0.144415
N1    N     N_R   0.648320 0.501210 0.499140 -0.197896
N2    N     N_R   0.352470 0.501290 0.499110 -0.202034
O1    O     O_R   0.118810 0.319640 0.500010 -0.587443
O2    O     O_R   0.881240 0.319660 0.500000 -0.578880
O3    O     O_R   0.055570 0.499980 0.629840 -0.573063
O4    O     O_R   0.818000 0.500010 0.629830 -0.582376
O5    O     O_R   0.118760 0.680340 0.500000 -0.612356
O6    O     O_R   0.881190 0.680360 0.499990 -0.597184
O7    O     O_R   0.182000 0.499990 0.370170 -0.604402
O8    O     O_R   0.944430 0.500020 0.370160 -0.596910
C41   C     C_3   0.127187 0.428866 0.785878 -0.855804
H22   H     H_    0.132641 0.350526 0.741134 0.234344
H23   H     H_    0.188607 0.509903 0.747952 0.242348
H24   H     H_    0.181742 0.399935 0.838461 0.224801

loop_
_geom_bond_atom_site_label_1
_geom_bond_atom_site_label_2
_ccdc_geom_bond_type
C12   O4    A    
C16   C21   A    
Cu2   N1    S    
C34   C37   S    
Cu1   Cu2   S    
C19   C20   A    
C4    C8    A    
C12   O3    A    
C41   H23   S    
C24   H3    S    
C28   C29   A    
C5    C11   A    
C3    C7    A    
C38   C39   A    
C23   C26   S    
C35   N2    A    
C18   C19   A    
C39   C41   S    
C25   H8    S    
C15   C37   A    
C1    O2    A    
C11   C15   A    
C3    C38   A    
C8    C9    A    
C41   H24   S    
C7    H1    S    
C12   C36   S    
C9    C10   A    
C1    C22   S    
C21   C22   A    
C23   O5    A    
C17   C18   A    
Cu1   O3    S    
C14   H16   S    
C41   H22   S    
C15   H12   S    
C23   O6    A    
C36   C40   A    
C24   C25   A    
C32   N1    A    
C16   H4    S    
C16   C17   A    
Cu1   N2    S    
C34   O8    A    
C25   C26   A    
C30   H14   S    
Cu2   O4    S    
C40   H19   S    
C9    H17   S    
C2    C4    A    
C29   C30   A    
C19   H7    S    
C31   C32   A    
C30   C31   A    
C1    O1    A    
C6    C7    A    
Cu1   O7    S    
C38   H18   S    
Cu2   O2    S    
C22   C24   A    
C34   O7    A    
C27   H10   S    
C31   N2    A    
Cu2   O8    S    
C27   C32   A    
C36   C39   A    
C17   H5    S    
C4    C5    A    
C10   C13   A    
C18   H6    S    
C28   H11   S    
Cu1   O1    S    
C33   H9    S    
C29   H13   S    
C35   H15   S    
C6    H20   S    
C2    C3    A    
C14   C37   A    
C5    C6    A    
C20   C26   A    
C33   N1    A    
Cu2   O6    S    
C33   C35   A    
C10   C11   A    
C8    H21   S    
C2    C40   A    
C20   C21   A    
C27   C28   A    
C13   C14   A    
C13   H2    S    
Cu1   O5    S    
