data_mof_unit_5703.cif
_audit_creation_date              2012-12-10T18:33:39-0500
_audit_creation_method            fapswitch 2.2
_symmetry_space_group_name_H-M    P1
_symmetry_Int_Tables_number       1
_space_group_crystal_system       triclinic
_cell_length_a                    10.523305
_cell_length_b                    15.009627
_cell_length_c                    15.411471
_cell_angle_alpha                 82.132792
_cell_angle_beta                  89.407164
_cell_angle_gamma                 104.583081
_cell_volume                      2331.10854205

loop_
_atom_site_label
_atom_site_type_symbol
_atom_type_description
_atom_site_fract_x
_atom_site_fract_y
_atom_site_fract_z
_atom_type_partial_charge
C1    C     C_R   0.478613 0.441491 0.662196 0.877974
C2    C     C_R   0.515826 0.558154 0.337701 0.872290
C3    C     C_R   0.428961 0.463242 0.811758 -0.280567
C4    C     C_R   0.490384 0.527394 0.187226 -0.259252
C5    C     C_R   0.408137 0.433534 0.901611 0.060967
C6    C     C_R   0.441261 0.543101 0.104572 0.059080
C7    C     C_R   0.409098 0.340320 0.934429 0.095699
C8    C     C_R   0.421330 0.632227 0.074973 0.097010
C9    C     C_R   0.399551 0.497403 0.959955 0.091185
C10   C     C_R   0.417651 0.472882 0.049630 0.092806
C11   C     C_R   0.411765 0.378938 0.081592 -0.235683
C12   C     C_R   0.377644 0.585801 0.931462 -0.239645
C13   C     C_R   0.404522 0.313596 0.025185 -0.236727
C14   C     C_R   0.386587 0.651327 0.988245 -0.239107
C15   C     C_R   0.679010 0.839109 0.646125 -0.309049
C16   C     C_R   0.317782 0.160271 0.355209 -0.347452
C17   C     C_R   0.654656 0.751390 0.619887 0.333091
C18   C     C_R   0.338200 0.246268 0.384350 0.346642
C19   C     C_R   0.519397 0.795188 0.507894 -0.095588
C20   C     C_R   0.486610 0.206210 0.488360 -0.096635
C21   C     C_R   0.542906 0.885988 0.530205 -0.034494
C22   C     C_R   0.460294 0.114852 0.467096 -0.032705
C23   C     C_R   0.742478 0.501659 0.497920 0.911276
C24   C     C_R   0.257916 0.499024 0.500987 0.892481
C25   C     C_R   0.620953 0.906097 0.603155 0.029279
C26   C     C_R   0.378934 0.094145 0.395929 0.026924
C27   C     C_R   0.490111 0.956108 0.483869 0.026162
C28   C     C_R   0.512736 0.044558 0.513275 0.030196
C29   C     C_R   0.582069 0.058933 0.590133 -0.344330
C30   C     C_R   0.414621 0.940326 0.409575 -0.335773
C31   C     C_R   0.639517 0.992169 0.633245 0.478886
C32   C     C_R   0.359411 0.007846 0.366248 0.474977
C33   C     C_3   0.952510 0.493131 0.581051 0.202868
C34   C     C_3   0.048407 0.509244 0.418114 0.223038
C35   C     C_3   0.068445 0.573767 0.539467 -0.276352
C36   C     C_3   0.933106 0.428647 0.459820 -0.312472
C37   C     C_3   0.123565 0.499253 0.501574 -0.125883
C38   C     C_3   0.877612 0.502750 0.497292 -0.166192
C39   C     C_3   0.009010 0.420894 0.544471 0.189034
C40   C     C_3   0.992666 0.581736 0.454852 0.198525
C41   C     C_R   0.451315 0.404202 0.754876 -0.106582
C42   C     C_R   0.501266 0.591242 0.245645 -0.106537
C43   C     C_R   0.421212 0.277196 0.876058 0.219948
C44   C     C_R   0.439583 0.700033 0.132876 0.221056
C45   C     C_R   0.443473 0.310895 0.786007 -0.236441
C46   C     C_R   0.477187 0.677997 0.218406 -0.237018
H1    H     H_    0.126672 0.631971 0.571253 0.168214
H2    H     H_    0.876103 0.370176 0.427810 0.164793
H3    H     H_    0.556179 0.230784 0.535929 0.134464
H4    H     H_    0.456652 0.771629 0.456624 0.138924
H5    H     H_    0.743399 0.854811 0.699373 0.200014
H6    H     H_    0.252503 0.145232 0.302200 0.192205
H7    H     H_    0.589002 0.120208 0.620662 0.140588
H8    H     H_    0.394978 0.875867 0.382945 0.152991
H9    H     H_    0.403336 0.243299 0.053578 0.154985
H10   H     H_    0.370431 0.717971 0.962110 0.156392
H11   H     H_    0.520744 0.464602 0.207963 0.160405
H12   H     H_    0.435407 0.534355 0.784868 0.171122
H13   H     H_    0.483775 0.727737 0.264012 0.162407
H14   H     H_    0.456061 0.265425 0.739721 0.167581
H15   H     H_    0.410713 0.353465 0.150504 0.133900
H16   H     H_    0.349780 0.605411 0.865809 0.145661
N1    N     N_R   0.574200 0.731700 0.552740 -0.121252
N2    N     N_R   0.425800 0.268300 0.447260 -0.110842
O1    O     O_R   0.462600 0.383110 0.605620 -0.626140
O2    O     O_R   0.537400 0.616890 0.394380 -0.627272
O3    O     O_R   0.510210 0.531900 0.639510 -0.583152
O4    O     O_R   0.489790 0.468100 0.360490 -0.607548
O5    O     O_R   0.662240 0.425610 0.483080 -0.630780
O6    O     O_R   0.337760 0.574390 0.516920 -0.638654
O7    O     O_R   0.709860 0.574400 0.516970 -0.620662
O8    O     O_R   0.290140 0.425600 0.483030 -0.566048
Zn1   Zn    Zn3+2 0.468210 0.400660 0.477370 0.952228
Zn2   Zn    Zn3+2 0.531790 0.599340 0.522630 0.940030
N3    N     N_2   0.268267 0.310811 0.348172 -0.251020
H17   H     H_    0.285098 0.328751 0.281354 0.202227
C47   C     C_3   0.129037 0.282461 0.372129 -0.748192
H18   H     H_    0.082056 0.337588 0.344423 0.258815
H19   H     H_    0.113000 0.270646 0.444572 0.266750
H20   H     H_    0.080937 0.217751 0.345454 0.209722
N4    N     N_2   0.715496 0.683036 0.660756 -0.249919
H21   H     H_    0.805702 0.686454 0.631837 0.228302
C48   C     C_3   0.713299 0.668855 0.755664 -0.782485
H22   H     H_    0.793312 0.722268 0.779480 0.218169
H23   H     H_    0.728561 0.599174 0.778931 0.259021
H24   H     H_    0.616983 0.671873 0.783643 0.244652
N5    N     N_2   0.889991 0.482397 0.667376 -0.297062
H25   H     H_    0.834392 0.415820 0.689049 0.218307
C49   C     C_3   0.970798 0.526507 0.732600 -0.795052
H26   H     H_    0.914868 0.509941 0.796752 0.237460
H27   H     H_    0.997689 0.603196 0.713593 0.245128
H28   H     H_    0.061511 0.501720 0.739862 0.241457
N6    N     N_2   0.107877 0.517759 0.331209 -0.303221
H29   H     H_    0.197687 0.565840 0.320659 0.217829
C50   C     C_3   0.020834 0.523017 0.259919 -0.775936
H30   H     H_    0.073084 0.521252 0.197458 0.239856
H31   H     H_    0.989502 0.588798 0.254709 0.259090
H32   H     H_    0.932983 0.462798 0.270117 0.240405
N7    N     N_2   0.021477 0.332979 0.590673 -0.307181
H33   H     H_    0.935150 0.281201 0.596350 0.202528
C51   C     C_3   0.092526 0.336522 0.670456 -0.762938
H34   H     H_    0.130373 0.273639 0.684027 0.239494
H35   H     H_    0.026004 0.337802 0.726366 0.231514
H36   H     H_    0.177774 0.398402 0.664476 0.234613
N8    N     N_2   0.978183 0.668101 0.406270 -0.311627
H37   H     H_    0.910581 0.694901 0.435725 0.241184
C52   C     C_3   0.099952 0.737728 0.380641 -0.765159
H38   H     H_    0.078742 0.798453 0.339315 0.268831
H39   H     H_    0.166267 0.709833 0.341774 0.242226
H40   H     H_    0.150141 0.761608 0.439527 0.235377
N9    N     N_2   0.413344 0.181876 0.909423 -0.322060
H41   H     H_    0.330666 0.148663 0.948927 0.216102
C53   C     C_3   0.457034 0.123092 0.854807 -0.775496
H42   H     H_    0.459221 0.056379 0.895286 0.244448
H43   H     H_    0.558111 0.157069 0.826787 0.252060
H44   H     H_    0.388077 0.107513 0.801557 0.236125
N10   N     N_2   0.417150 0.789470 0.108110 -0.320172
H45   H     H_    0.335799 0.790559 0.071753 0.219279
C54   C     C_3   0.533531 0.860745 0.074329 -0.806206
H46   H     H_    0.509108 0.928834 0.060079 0.235616
H47   H     H_    0.572125 0.844175 0.012738 0.250209
H48   H     H_    0.610526 0.866677 0.123558 0.250940
O9    O     O_3   0.699473 0.005534 0.711877 -0.616724
C55   C     C_3   0.813079 0.080579 0.698018 0.079382
H49   H     H_    0.785567 0.147948 0.689558 0.135094
H50   H     H_    0.874457 0.076813 0.639815 0.137492
C56   C     C_3   0.895632 0.077118 0.778233 -0.815464
H51   H     H_    0.925217 0.010579 0.788531 0.250587
H52   H     H_    0.985390 0.135686 0.768862 0.207652
H53   H     H_    0.838194 0.082590 0.837268 0.258609
O10   O     O_3   0.279048 0.986669 0.297477 -0.620176
C57   C     C_3   0.358370 0.003049 0.219589 0.080639
H54   H     H_    0.420982 0.953052 0.222010 0.163882
H55   H     H_    0.422174 0.075593 0.208343 0.131978
C58   C     C_3   0.270261 0.989875 0.142277 -0.824557
H56   H     H_    0.205290 0.038095 0.139090 0.249930
H57   H     H_    0.331166 0.004967 0.080206 0.204834
H58   H     H_    0.208835 0.917070 0.149522 0.261367

loop_
_geom_bond_atom_site_label_1
_geom_bond_atom_site_label_2
_ccdc_geom_bond_type
C25   C31   A    
C58   H58   S    
C14   H10   S    
N5    H25   S    
C45   H14   S    
C26   C32   A    
N6    H29   S    
C46   H13   S    
C34   C37   S    
C23   O5    A    
C50   H30   S    
C34   N6    S    
C35   H1    S    
N4    H21   S    
C50   H32   S    
C24   O6    A    
O9    C55   S    
C47   H18   S    
C30   H8    S    
C18   N3    S    
C4    C42   A    
C34   C40   S    
C28   C29   A    
C35   C37   S    
C2    O4    A    
N10   C54   S    
C54   H48   S    
O2    Zn2   S    
O1    Zn1   S    
C58   H57   S    
C42   C46   A    
N3    C47   S    
C1    O3    A    
N7    H33   S    
C19   N1    A    
C57   H54   S    
C4    H11   S    
O6    Zn2   S    
C1    O1    A    
N2    Zn1   S    
O5    Zn1   S    
C7    C43   A    
C49   H27   S    
C9    C10   A    
C34   C36   S    
C53   H44   S    
N8    C52   S    
C47   H19   S    
C21   C27   A    
N6    C50   S    
C38   C40   S    
C22   C28   A    
C27   C30   A    
C29   C31   A    
C52   H39   S    
C43   N9    S    
N4    C48   S    
C44   C46   A    
C54   H47   S    
C16   C26   A    
C51   H34   S    
C23   O7    A    
C58   H56   S    
C4    C6    A    
C5    C7    A    
C6    C8    A    
C11   H15   S    
O4    Zn1   S    
C20   N2    A    
N3    H17   S    
C56   H52   S    
C5    C9    A    
C20   H3    S    
C12   H16   S    
C39   N7    S    
C48   H22   S    
C52   H38   S    
C24   C37   S    
N9    C53   S    
O3    Zn2   S    
C33   C39   S    
C49   H28   S    
C43   C45   A    
C55   C56   S    
C1    C41   S    
C48   H23   S    
C12   C14   A    
C51   H36   S    
C15   H5    S    
N5    C49   S    
C52   H40   S    
C56   H51   S    
C24   O8    A    
C55   H50   S    
C53   H42   S    
C51   H35   S    
C47   H20   S    
C16   H6    S    
C15   C17   A    
C21   C25   A    
C3    C41   A    
C8    C14   A    
N9    H41   S    
C19   C21   A    
C36   C39   S    
C8    C44   A    
C20   C22   A    
O8    Zn1   S    
C3    C5    A    
C6    C10   A    
O7    Zn2   S    
C54   H46   S    
C50   H31   S    
C2    O2    A    
N1    Zn2   S    
C23   C38   S    
N8    H37   S    
C33   C38   S    
C16   C18   A    
C36   C38   S    
C35   C40   S    
C33   N5    S    
C56   H53   S    
C31   O9    S    
C37   C39   S    
N10   H45   S    
C17   N1    A    
C30   C32   A    
C11   C13   A    
C19   H4    S    
C18   N2    A    
C29   H7    S    
C44   N10   S    
C2    C42   S    
C57   C58   S    
C33   C35   S    
C36   H2    S    
C17   N4    S    
C9    C12   A    
C15   C25   A    
C10   C11   A    
C3    H12   S    
C7    C13   A    
C48   H24   S    
C57   H55   S    
C22   C26   A    
C27   C28   A    
C41   C45   A    
C40   N8    S    
C13   H9    S    
C49   H26   S    
N7    C51   S    
C32   O10   S    
O10   C57   S    
C55   H49   S    
C53   H43   S    
