data_mof_unit_65187.cif
_audit_creation_date              2012-12-10T18:18:42-0500
_audit_creation_method            fapswitch 2.2
_symmetry_space_group_name_H-M    P1
_symmetry_Int_Tables_number       1
_space_group_crystal_system       triclinic
_cell_length_a                    23.573822
_cell_length_b                    14.652516
_cell_length_c                    15.897091
_cell_angle_alpha                 90.222992
_cell_angle_beta                  90.044634
_cell_angle_gamma                 90.101599
_cell_volume                      5491.05455333

loop_
_atom_site_label
_atom_site_type_symbol
_atom_type_description
_atom_site_fract_x
_atom_site_fract_y
_atom_site_fract_z
_atom_type_partial_charge
C1    C     C_R   0.500123 0.500107 0.660232 0.797741
C2    C     C_R   0.030146 0.450720 0.643389 -0.129678
C3    C     C_R   0.971105 0.450335 0.643368 -0.136311
C4    C     C_R   0.940843 0.478247 0.571885 0.022111
C5    C     C_R   0.970449 0.507482 0.499696 -0.068972
C6    C     C_R   0.940240 0.536220 0.427763 -0.218417
C7    C     C_R   0.970697 0.567099 0.356519 0.390850
C8    C     C_R   0.030152 0.564270 0.356091 0.578794
C9    C     C_R   0.881451 0.477675 0.570927 0.563541
C10   C     C_R   0.880406 0.532977 0.429757 0.620489
C11   C     C_R   0.761520 0.584743 0.500662 -0.171276
C12   C     C_R   0.609569 0.500039 0.500271 0.871877
C13   C     C_R   0.702445 0.583880 0.500350 0.561569
C14   C     C_R   0.672457 0.500286 0.501051 -0.285093
C15   C     C_R   0.703477 0.417455 0.503236 0.382495
C16   C     C_R   0.762870 0.419763 0.501902 -0.175779
C17   C     C_R   0.791839 0.502992 0.501232 0.185628
C18   C     C_R   0.239756 0.585355 0.504467 0.629445
C19   C     C_R   0.298851 0.583616 0.504360 -0.369780
C20   C     C_R   0.328095 0.500143 0.500011 -0.348834
C21   C     C_R   0.296872 0.418061 0.495629 0.526724
C22   C     C_R   0.237690 0.420120 0.495601 0.549048
C23   C     C_R   0.500084 0.499812 0.339842 0.806333
C24   C     C_R   0.209002 0.503638 0.500066 0.000702
C25   C     C_3   0.535594 0.416466 0.950309 0.839702
C26   C     C_3   0.434571 0.483071 0.951736 0.823398
C27   C     C_3   0.436010 0.492562 0.049791 0.422171
C28   C     C_3   0.531634 0.413587 0.048508 0.328858
C29   C     C_1   0.499627 0.499217 0.250284 -0.092862
C30   C     C_3   0.496847 0.495171 0.917156 -0.241279
C31   C     C_3   0.498121 0.497364 0.082616 -0.333245
C32   C     C_3   0.525719 0.585967 0.048064 0.968687
C33   C     C_3   0.520762 0.587474 0.950926 -0.534057
C34   C     C_1   0.499037 0.498391 0.174825 0.240582
C35   C     C_1   0.498174 0.498195 0.825035 0.155257
C36   C     C_R   0.390674 0.499899 0.500025 0.912042
C37   C     C_1   0.499316 0.499935 0.749657 -0.158238
C38   C     C_3   0.435943 0.945490 0.489698 0.069811
C39   C     C_3   0.436641 0.052885 0.493177 0.171281
C40   C     C_3   0.532539 0.946104 0.424111 0.308579
C41   C     C_3   0.538967 0.052938 0.431728 0.249257
C42   C     C_3   0.498115 0.907836 0.501070 -0.338040
C43   C     C_3   0.498847 0.092407 0.502958 -0.338225
C44   C     C_3   0.521857 0.055279 0.590661 0.838290
C45   C     C_3   0.527661 0.947165 0.584504 0.906116
C46   C     C_1   0.498765 0.195255 0.500165 0.282898
C47   C     C_1   0.498502 0.804786 0.499421 0.391470
C48   C     C_R   0.120160 0.533301 0.429256 0.724314
C49   C     C_R   0.119649 0.478720 0.570643 0.649886
C50   C     C_R   0.060223 0.478834 0.571862 0.009568
C51   C     C_R   0.030395 0.507526 0.499688 -0.090701
C52   C     C_R   0.060443 0.535400 0.427554 -0.245079
Cu1   Cu    Cu3+1 0.500070 0.410080 0.500090 1.025863
Cu2   Cu    Cu3+1 0.500070 0.589920 0.500090 1.057140
H1    H     H_    0.052113 0.428528 0.699554 0.197711
H2    H     H_    0.321656 0.647758 0.507912 0.216008
H3    H     H_    0.413612 0.556227 0.068744 0.156710
H4    H     H_    0.575283 0.414101 0.075241 0.154918
H5    H     H_    0.563054 0.602093 0.922859 0.271243
H6    H     H_    0.492516 0.644343 0.931261 0.245464
H7    H     H_    0.949277 0.427862 0.699547 0.196711
H8    H     H_    0.507316 0.931026 0.366196 0.101506
H9    H     H_    0.526243 0.080924 0.369762 0.018081
H10   H     H_    0.409916 0.920826 0.542818 0.083600
H11   H     H_    0.415608 0.068921 0.553895 0.163891
H12   H     H_    0.783966 0.649300 0.500199 0.186768
H13   H     H_    0.786587 0.356517 0.500974 0.176329
N1    N     N_R   0.148196 0.505397 0.500032 -0.425962
N2    N     N_R   0.852657 0.504524 0.500610 -0.448698
N3    N     N_1   0.498850 0.275030 0.498610 -0.162926
N4    N     N_1   0.498850 0.724970 0.498610 -0.149946
O1    O     O_R   0.500060 0.424030 0.620640 -0.600095
O2    O     O_R   0.500060 0.575970 0.620640 -0.559280
O3    O     O_R   0.582180 0.424050 0.500100 -0.551275
O4    O     O_R   0.582180 0.575950 0.500100 -0.503167
O5    O     O_R   0.500060 0.424100 0.379510 -0.569381
O6    O     O_R   0.500060 0.575900 0.379510 -0.565006
O7    O     O_R   0.417940 0.424080 0.500050 -0.511658
O8    O     O_R   0.417940 0.575920 0.500050 -0.601461
O9    O     O_2   0.150183 0.558424 0.360912 -0.408647
O10   O     O_2   0.148798 0.452402 0.639490 -0.498932
O11   O     O_2   0.852562 0.450908 0.639861 -0.521212
O12   O     O_2   0.849934 0.556848 0.361464 -0.466174
F1    F     F_    0.323253 0.335894 0.490932 -0.577516
F2    F     F_    0.208034 0.340795 0.490663 -0.572475
F3    F     F_    0.505965 0.333397 0.075125 -0.577819
F4    F     F_    0.406967 0.421210 0.087810 -0.535490
O13   O     O_3   0.517529 0.332112 0.914300 -0.559426
C53   C     C_3   0.561553 0.266865 0.912931 -0.071501
H14   H     H_    0.542797 0.198947 0.899172 0.167771
H15   H     H_    0.583920 0.262144 0.974411 0.181341
H16   H     H_    0.592163 0.282526 0.861825 0.175606
O14   O     O_3   0.411170 0.395606 0.932100 -0.477459
C54   C     C_3   0.391396 0.386724 0.848367 -0.075706
H17   H     H_    0.424837 0.355454 0.808601 0.133456
H18   H     H_    0.376423 0.451073 0.819210 0.178514
H19   H     H_    0.354902 0.338853 0.848187 0.185964
F5    F     F_    0.400052 0.552791 0.921644 -0.684395
F6    F     F_    0.591382 0.436470 0.927228 -0.682344
F7    F     F_    0.582462 0.589821 0.071092 -0.611678
F8    F     F_    0.498947 0.662254 0.081332 -0.634962
O15   O     O_3   0.398979 0.096599 0.435700 -0.515414
C55   C     C_3   0.419248 0.105218 0.352791 -0.069422
H20   H     H_    0.438926 0.042110 0.328088 0.153932
H21   H     H_    0.448053 0.164846 0.347574 0.137639
H22   H     H_    0.382489 0.119627 0.311381 0.200754
O16   O     O_3   0.412606 0.912762 0.412633 -0.567426
C56   C     C_3   0.354433 0.891538 0.421005 -0.137036
H23   H     H_    0.337001 0.875370 0.357852 0.195942
H24   H     H_    0.330061 0.950189 0.446918 0.201255
H25   H     H_    0.348681 0.830308 0.461256 0.145103
O17   O     O_3   0.586564 0.903059 0.418997 -0.455980
C57   C     C_3   0.602915 0.889333 0.334510 -0.119957
H26   H     H_    0.600619 0.953604 0.297698 0.118079
H27   H     H_    0.576181 0.835623 0.304665 0.156685
H28   H     H_    0.647529 0.865450 0.333333 0.211301
O18   O     O_3   0.596579 0.075138 0.450036 -0.451881
C58   C     C_3   0.618107 0.141884 0.394694 -0.132744
H29   H     H_    0.593093 0.205976 0.398179 0.155901
H30   H     H_    0.619161 0.115794 0.328972 0.122681
H31   H     H_    0.662299 0.158254 0.413460 0.213591
O19   O     O_3   0.515169 0.902489 0.662346 -0.521583
C59   C     C_3   0.457733 0.883278 0.679509 -0.289850
H32   H     H_    0.429908 0.943682 0.674129 0.174500
H33   H     H_    0.454764 0.861322 0.746043 0.231217
H34   H     H_    0.442267 0.824728 0.641548 0.135541
O20   O     O_3   0.485370 0.076774 0.659533 -0.646082
C60   C     C_3   0.487208 0.169149 0.685849 -0.200262
H35   H     H_    0.452667 0.207825 0.654798 0.159168
H36   H     H_    0.528468 0.204048 0.675559 0.197819
H37   H     H_    0.478767 0.171654 0.754450 0.195011
F9    F     F_    0.585214 0.929945 0.575102 -0.497816
F10   F     F_    0.575617 0.091034 0.606868 -0.596342
O21   O     O_3   0.942810 0.595722 0.284783 -0.495073
C61   C     C_3   0.939748 0.691870 0.286397 -0.104284
H38   H     H_    0.917175 0.716946 0.343486 0.134453
H39   H     H_    0.915259 0.714748 0.230752 0.198478
H40   H     H_    0.982644 0.723339 0.282486 0.177083
F11   F     F_    0.057686 0.590091 0.284971 -0.573520
F12   F     F_    0.675005 0.665253 0.499022 -0.592559
O22   O     O_3   0.676124 0.333951 0.500436 -0.576895
C62   C     C_3   0.676308 0.296100 0.581851 -0.199188
H41   H     H_    0.651528 0.231706 0.580387 0.242588
H42   H     H_    0.655634 0.342446 0.628270 0.155550
H43   H     H_    0.720108 0.279070 0.602532 0.171218
F13   F     F_    0.212314 0.666531 0.509320 -0.615831

loop_
_geom_bond_atom_site_label_1
_geom_bond_atom_site_label_2
_ccdc_geom_bond_type
C19   H2    S    
C61   H40   S    
C44   O20   S    
C17   N2    S    
O14   C54   S    
C49   N1    A    
C12   O3    A    
C41   C43   S    
C19   C20   A    
C23   O5    A    
C60   H35   S    
C61   H38   S    
C40   O17   S    
Cu1   Cu2   S    
C25   C28   S    
C26   C27   S    
C30   C35   S    
C59   H32   S    
C8    F11   S    
C18   C24   A    
C23   C29   S    
C35   C37   T    
C9    N2    A    
C38   C42   S    
C2    H1    S    
C38   C39   S    
C59   H33   S    
C15   C16   A    
C10   O12   S    
C44   F10   S    
C40   H8    S    
C56   H23   S    
C18   C19   A    
C22   F2    S    
C49   O10   S    
C38   O16   S    
C58   H29   S    
C2    C50   A    
C15   O22   S    
C25   F6    S    
Cu2   N4    S    
Cu1   O3    S    
C16   C17   A    
O16   C56   S    
C13   C14   A    
C53   H15   S    
C8    C52   A    
C11   H12   S    
C1    C37   S    
C9    O11   S    
Cu2   O6    S    
C26   O14   S    
C40   C42   S    
C33   H5    S    
C21   C22   A    
C39   H11   S    
C62   H43   S    
O15   C55   S    
Cu1   N3    S    
O17   C57   S    
C38   H10   S    
C3    H7    S    
C1    O1    A    
C27   C31   S    
C51   C52   A    
C13   F12   S    
C7    C8    A    
C7    O21   S    
C27   H3    S    
C24   N1    S    
C59   H34   S    
C39   C43   S    
C54   H19   S    
C29   C34   T    
C25   O13   S    
C23   O6    A    
C32   F7    S    
C42   C45   S    
C27   F4    S    
C43   C44   S    
Cu2   O2    S    
C31   C32   S    
C21   F1    S    
C20   C21   A    
C50   C51   A    
C31   C34   S    
C55   H21   S    
C16   H13   S    
C48   N1    A    
C53   H16   S    
C54   H18   S    
C47   N4    T    
C6    C7    A    
C26   F5    S    
C40   C41   S    
C12   C14   S    
C26   C30   S    
C33   H6    S    
C28   F3    S    
C62   H42   S    
Cu1   O5    S    
C41   H9    S    
C3    C4    A    
C60   H37   S    
C44   C45   S    
C39   O15   S    
C57   H26   S    
C25   C30   S    
C61   H39   S    
C11   C17   A    
C30   C33   S    
C32   F8    S    
C28   C31   S    
C4    C5    A    
C18   F13   S    
C36   O8    A    
C60   H36   S    
C6    C10   A    
O19   C59   S    
O21   C61   S    
C28   H4    S    
C45   O19   S    
C56   H25   S    
C1    O2    A    
C32   C33   S    
C57   H28   S    
C2    C3    A    
C4    C9    A    
C36   O7    A    
O18   C58   S    
C11   C13   A    
C48   O9    S    
C5    C6    A    
C56   H24   S    
Cu1   O7    S    
C55   H22   S    
C22   C24   A    
C42   C47   S    
C54   H17   S    
C43   C46   S    
C58   H30   S    
C46   N3    T    
Cu2   O8    S    
Cu2   O4    S    
C20   C36   S    
C10   N2    A    
C48   C52   A    
O13   C53   S    
C45   F9    S    
C49   C50   A    
C12   O4    A    
C55   H20   S    
C62   H41   S    
C14   C15   A    
C5    C51   A    
C41   O18   S    
C53   H14   S    
O22   C62   S    
Cu1   O1    S    
C58   H31   S    
O20   C60   S    
C57   H27   S    
