data_mof_unit_42504.cif
_audit_creation_date              2012-10-26T20:44:02-0400
_audit_creation_method            fapswitch 2.2
_symmetry_space_group_name_H-M    P1
_symmetry_Int_Tables_number       1
_space_group_crystal_system       triclinic
_cell_length_a                    10.802655
_cell_length_b                    9.558877
_cell_length_c                    19.461722
_cell_angle_alpha                 89.222413
_cell_angle_beta                  92.798216
_cell_angle_gamma                 90.921549
_cell_volume                      2006.82144913

loop_
_atom_site_label
_atom_site_type_symbol
_atom_type_description
_atom_site_fract_x
_atom_site_fract_y
_atom_site_fract_z
_atom_type_partial_charge
C1    C     C_R   0.872396 0.499675 0.502441 -0.037951
C2    C     C_R   0.737912 0.500377 0.501524 0.612652
C3    C     C_R   0.512476 0.500316 0.368240 0.531480
C4    C     C_R   0.498222 0.499782 0.631719 0.554443
C5    C     C_R   0.068414 0.401343 0.544736 0.206992
C6    C     C_R   0.933592 0.591910 0.458162 0.196164
C7    C     C_R   0.938095 0.403839 0.546011 0.217501
C8    C     C_R   0.062136 0.581868 0.454115 0.202478
C9    C     C_R   0.390934 0.507389 0.742152 -0.065901
C10   C     C_R   0.543274 0.623153 0.254287 -0.068093
C11   C     C_R   0.556559 0.370887 0.259002 -0.035593
C12   C     C_R   0.128873 0.494894 0.500626 -0.044355
C13   C     C_R   0.616049 0.506135 0.743569 -0.054572
C14   C     C_R   0.395258 0.498632 0.814840 0.241973
C15   C     C_R   0.528432 0.619826 0.182477 0.253002
C16   C     C_R   0.563870 0.369041 0.187275 0.245117
C17   C     C_R   0.621864 0.487383 0.814890 0.243396
C18   C     C_R   0.511545 0.486984 0.850996 0.060574
C19   C     C_R   0.539866 0.491875 0.148174 0.067273
C20   C     C_R   0.420743 0.075402 0.455407 0.328519
C21   C     C_R   0.579521 0.924841 0.543616 0.326960
C22   C     C_R   0.572070 0.074370 0.547331 0.330857
C23   C     C_R   0.591329 0.587083 0.962448 0.265378
C24   C     C_R   0.421480 0.924187 0.455112 0.331406
C25   C     C_R   0.501301 0.500525 0.706891 -0.102395
C26   C     C_R   0.536115 0.498224 0.293155 -0.122245
C27   C     C_3   0.221566 0.129564 0.412308 -0.120469
C28   C     C_3   0.784276 0.898259 0.581120 -0.060334
C29   C     C_3   0.584681 0.117513 0.662226 -0.104446
C30   C     C_3   0.340460 0.873427 0.344791 -0.047301
C31   C     C_3   0.136437 0.179078 0.573207 -0.106315
C32   C     C_3   0.905310 0.817629 0.416027 -0.047301
C33   C     C_3   0.908033 0.302563 0.654138 -0.037378
C34   C     C_R   0.454242 0.389744 0.037349 0.261896
C35   C     C_3   0.124366 0.570894 0.344899 -0.105618
C36   C     C_1   0.276834 0.543612 0.704537 0.241974
C37   C     C_1   0.590783 0.750186 0.285447 0.278884
C38   C     C_1   0.585353 0.243413 0.296728 0.303044
C39   C     C_1   0.725815 0.553509 0.709959 0.270873
C40   C     C_3   0.197639 0.417076 0.837213 -0.054686
C41   C     C_3   0.383171 0.765170 0.135654 -0.117003
C42   C     C_3   0.713019 0.239624 0.140286 -0.128926
C43   C     C_3   0.772484 0.343797 0.858118 -0.134877
C44   C     C_3   0.570904 0.808757 0.921380 -0.097637
C45   C     C_R   0.608608 0.579498 0.033879 0.240867
C46   C     C_3   0.367412 0.173446 0.066420 -0.033695
C47   C     C_3   0.805475 0.608476 0.078368 -0.088881
C48   C     C_3   0.456492 0.177016 0.904868 -0.169735
C49   C     C_R   0.454527 0.381171 0.964795 0.250325
C50   C     C_R   0.534094 0.487246 0.071886 -0.022650
C51   C     C_R   0.519502 0.484064 0.927209 -0.001675
C52   C     C_R   0.262623 0.498617 0.500771 0.608926
Cu1   Cu    Cu3+1 0.500000 0.640660 0.500000 1.105545
Cu2   Cu    Cu3+1 0.500000 0.359340 0.500000 1.081171
H1    H     H_    0.179728 0.225407 0.431438 0.127710
H2    H     H_    0.357515 0.773687 0.319133 0.129315
H3    H     H_    0.411932 0.951698 0.330058 0.158840
H4    H     H_    0.248648 0.907389 0.323661 0.110006
H5    H     H_    0.059838 0.148434 0.535626 0.105560
H6    H     H_    0.127541 0.113209 0.620069 0.117675
H7    H     H_    0.227212 0.153321 0.553027 0.140931
H8    H     H_    0.956851 0.845144 0.465171 0.089557
H9    H     H_    0.823385 0.886056 0.410905 0.147489
H10   H     H_    0.963861 0.842163 0.372003 0.162259
H11   H     H_    0.967351 0.392786 0.671651 0.168059
H12   H     H_    0.194941 0.039465 0.445537 0.114375
H13   H     H_    0.955680 0.203452 0.667276 0.115286
H14   H     H_    0.823695 0.301339 0.684117 0.129130
H15   H     H_    0.181674 0.476492 0.355226 0.111683
H16   H     H_    0.166794 0.631800 0.303014 0.117735
H17   H     H_    0.029055 0.539820 0.325954 0.129988
H18   H     H_    0.232598 0.319796 0.814293 0.120447
H19   H     H_    0.123108 0.461984 0.802849 0.133910
H20   H     H_    0.154725 0.386392 0.885930 0.164884
H21   H     H_    0.339207 0.780888 0.185448 0.088143
H22   H     H_    0.336500 0.677261 0.107127 0.125393
H23   H     H_    0.177958 0.114040 0.360204 0.112347
H24   H     H_    0.369120 0.861316 0.103949 0.121664
H25   H     H_    0.776125 0.274450 0.183995 0.104019
H26   H     H_    0.729852 0.302493 0.093209 0.091824
H27   H     H_    0.736218 0.129820 0.129263 0.166198
H28   H     H_    0.770884 0.288375 0.808128 0.080815
H29   H     H_    0.713195 0.287403 0.894786 0.096634
H30   H     H_    0.869094 0.341973 0.880170 0.137958
H31   H     H_    0.551625 0.850055 0.972943 0.144564
H32   H     H_    0.482524 0.782030 0.892343 0.115266
H33   H     H_    0.617479 0.893588 0.892421 0.122359
H34   H     H_    0.846240 0.806786 0.582285 0.149019
H35   H     H_    0.459758 0.133495 0.053839 0.148121
H36   H     H_    0.295495 0.140951 0.026939 0.145098
H37   H     H_    0.342913 0.122623 0.115604 0.136183
H38   H     H_    0.837927 0.556798 0.031635 0.132016
H39   H     H_    0.801175 0.532566 0.121890 0.087247
H40   H     H_    0.875514 0.689871 0.093509 0.142705
H41   H     H_    0.490774 0.209513 0.854182 0.109179
H42   H     H_    0.399082 0.080953 0.896527 0.127694
H43   H     H_    0.535841 0.148397 0.940778 0.082694
H44   H     H_    0.812080 0.963818 0.626063 0.148801
H45   H     H_    0.800760 0.958224 0.532826 0.097811
H46   H     H_    0.610629 0.012270 0.682341 0.137336
H47   H     H_    0.481810 0.127013 0.659019 0.111559
H48   H     H_    0.621148 0.194802 0.700364 0.110663
N1    N     N_R   0.500000 0.852070 0.500000 -0.255840
N2    N     N_R   0.500000 0.147930 0.500000 -0.257972
N3    N     N_1   0.185935 0.574663 0.674695 -0.292003
N4    N     N_1   0.631963 0.850669 0.310423 -0.271613
N5    N     N_1   0.609873 0.142482 0.327442 -0.272165
N6    N     N_1   0.812651 0.595216 0.683306 -0.306997
O1    O     O_R   0.319640 0.618740 0.500000 -0.433108
O2    O     O_3   0.660725 0.849416 0.586653 -0.533625
O3    O     O_3   0.637894 0.146760 0.598481 -0.505923
O4    O     O_3   0.334369 0.847085 0.416180 -0.507397
O5    O     O_3   0.137994 0.321362 0.592051 -0.556978
O6    O     O_3   0.863884 0.676593 0.412844 -0.549793
O7    O     O_3   0.871481 0.305491 0.583374 -0.524445
O8    O     O_3   0.122557 0.655498 0.403696 -0.525290
O9    O     O_3   0.290533 0.520008 0.852017 -0.548820
O10   O     O_3   0.511528 0.743698 0.145889 -0.511900
O11   O     O_3   0.587008 0.243691 0.155767 -0.558787
O12   O     O_R   0.680360 0.381260 0.500000 -0.445865
O13   O     O_3   0.736570 0.484307 0.849861 -0.515564
O14   O     O_3   0.650266 0.693040 0.926870 -0.490223
O15   O     O_3   0.365474 0.319868 0.075072 -0.543476
O16   O     O_3   0.690242 0.673494 0.066104 -0.493469
O17   O     O_3   0.381020 0.281158 0.931144 -0.556954
O18   O     O_R   0.680360 0.618740 0.500000 -0.451787
O19   O     O_R   0.319640 0.381260 0.500000 -0.492499
O20   O     O_R   0.500020 0.618830 0.400190 -0.475292
O21   O     O_R   0.499980 0.381170 0.599810 -0.476190
O22   O     O_R   0.499980 0.618830 0.599810 -0.468079
O23   O     O_R   0.500020 0.381170 0.400190 -0.460995
O24   O     O_3   0.350642 0.151474 0.406638 -0.534738

loop_
_geom_bond_atom_site_label_1
_geom_bond_atom_site_label_2
_ccdc_geom_bond_type
C42   H26   S    
C34   O15   S    
C23   C45   A    
C48   H41   S    
Cu2   O12   S    
C43   H29   S    
C47   H38   S    
C14   C18   A    
C24   O4    S    
C21   O2    S    
C9    C25   A    
C46   H35   S    
Cu1   Cu2   S    
C27   O24   S    
C15   C19   A    
Cu2   O23   S    
C10   C37   S    
C3    O23   A    
C52   O1    A    
Cu2   N2    S    
C10   C15   A    
C27   H1    S    
C42   O11   S    
C31   H5    S    
C30   H3    S    
C22   N2    A    
C40   H19   S    
C1    C2    S    
C7    O7    S    
C38   N5    T    
C31   H7    S    
C6    O6    S    
C48   O17   S    
C20   C24   A    
C35   H16   S    
C49   C51   A    
C28   H34   S    
C9    C36   S    
C41   O10   S    
C44   H33   S    
C40   H18   S    
C43   O13   S    
C10   C26   A    
C40   O9    S    
C35   H17   S    
C42   H25   S    
C21   C22   A    
C43   H30   S    
C13   C25   A    
C42   H27   S    
C20   O24   S    
C44   H32   S    
C12   C52   S    
C52   O19   A    
C18   C51   S    
C4    C25   S    
C23   O14   S    
C45   O16   S    
C39   N6    T    
C34   C50   A    
C33   O7    S    
C33   H11   S    
C1    C6    A    
C32   H10   S    
C5    C12   A    
C16   O11   S    
C41   H24   S    
C5    C7    A    
C2    O12   A    
C3    O20   A    
C6    C8    A    
C46   H37   S    
C11   C26   A    
C28   O2    S    
C30   H2    S    
C30   O4    S    
C31   H6    S    
C11   C38   S    
C9    C14   A    
C48   H43   S    
Cu1   O20   S    
C41   H21   S    
C11   C16   A    
C23   C51   A    
C8    C12   A    
C14   O9    S    
C17   C18   A    
C47   H39   S    
C29   H47   S    
C35   O8    S    
C20   N2    A    
C2    O18   A    
C28   H45   S    
C17   O13   S    
C46   O15   S    
C44   H31   S    
C33   H13   S    
C28   H44   S    
Cu2   O21   S    
C34   C49   A    
C48   H42   S    
C29   H46   S    
C5    O5    S    
C36   N3    T    
C1    C7    A    
C29   O3    S    
C3    C26   S    
C32   H9    S    
C27   H23   S    
C4    O22   A    
C4    O21   A    
C46   H36   S    
C49   O17   S    
Cu2   O19   S    
C15   O10   S    
C13   C17   A    
C24   N1    A    
C32   H8    S    
C37   N4    T    
C27   H12   S    
C41   H22   S    
C19   C50   S    
C47   O16   S    
C45   C50   A    
Cu1   N1    S    
C16   C19   A    
C30   H4    S    
C44   O14   S    
C47   H40   S    
C40   H20   S    
C29   H48   S    
C13   C39   S    
Cu1   O18   S    
C8    O8    S    
C21   N1    A    
C35   H15   S    
C22   O3    S    
C43   H28   S    
Cu1   O1    S    
Cu1   O22   S    
C32   O6    S    
C31   O5    S    
C33   H14   S    
