data_mof_unit_27603.cif
_audit_creation_date              2012-12-10T17:42:42-0500
_audit_creation_method            fapswitch 2.2
_symmetry_space_group_name_H-M    P1
_symmetry_Int_Tables_number       1
_space_group_crystal_system       triclinic
_cell_length_a                    9.955831
_cell_length_b                    10.711142
_cell_length_c                    13.083241
_cell_angle_alpha                 92.480341
_cell_angle_beta                  69.980088
_cell_angle_gamma                 86.901795
_cell_volume                      1306.11261322

loop_
_atom_site_label
_atom_site_type_symbol
_atom_type_description
_atom_site_fract_x
_atom_site_fract_y
_atom_site_fract_z
_atom_type_partial_charge
Br1   Br    Br    0.169055 0.730203 0.700928 -0.582595
C1    C     C_R   0.499570 0.739825 0.491877 0.920365
C2    C     C_R   0.372994 0.467463 0.819337 -0.160231
C3    C     C_R   0.237347 0.912725 0.498747 -0.222699
C4    C     C_R   0.421593 0.489574 0.703124 0.891190
C5    C     C_R   0.109566 0.991651 0.540447 0.588150
C6    C     C_R   0.107377 0.101136 0.602382 -0.191129
C7    C     C_R   0.233932 0.140035 0.610979 -0.230806
C8    C     C_R   0.365779 0.072710 0.551871 0.095840
C9    C     C_R   0.365084 0.949709 0.512371 0.068849
C10   C     C_R   0.495641 0.873879 0.481778 -0.118754
C11   C     C_R   0.626011 0.929194 0.458654 -0.225075
C12   C     C_R   0.437241 0.453424 0.981189 0.119755
C13   C     C_R   0.627328 0.056455 0.475398 -0.182742
C14   C     C_R   0.497792 0.128574 0.520942 -0.119846
C15   C     C_R   0.773654 0.623288 0.672152 -0.152331
C16   C     C_R   0.499021 0.261116 0.508877 0.848317
C17   C     C_R   0.786034 0.645796 0.773179 -0.231303
C18   C     C_R   0.919077 0.629289 0.783298 -0.191413
C19   C     C_R   0.040752 0.607868 0.689304 0.258134
C20   C     C_R   0.027776 0.554671 0.590260 0.072689
C21   C     C_R   0.884765 0.557304 0.586947 0.120596
C22   C     C_R   0.969794 0.445786 0.415949 -0.124008
C23   C     C_R   0.472562 0.427317 0.868552 0.080938
C24   C     C_R   0.112614 0.446852 0.415457 -0.110368
C25   C     C_R   0.579935 0.498611 0.295608 0.892015
C26   C     C_R   0.796939 0.383307 0.007090 0.525673
C27   C     C_R   0.629612 0.480097 0.177355 -0.122768
C28   C     C_R   0.229691 0.499235 0.884272 -0.103393
C29   C     C_R   0.188687 0.504123 0.997035 -0.114101
C30   C     C_R   0.291718 0.485326 0.045672 -0.219859
C31   C     C_3   0.934197 0.858520 0.557697 -0.316765
C32   C     C_3   0.960289 0.216091 0.972447 -0.336218
C33   C     C_R   0.548927 0.446877 0.024740 0.011553
C34   C     C_R   0.687393 0.392398 0.961377 0.054993
C35   C     C_R   0.712491 0.346417 0.854444 -0.195324
C36   C     C_R   0.606452 0.363390 0.808621 -0.202021
C37   C     C_R   0.526899 0.498210 0.128785 -0.270750
C38   C     C_R   0.766580 0.426478 0.116110 -0.314592
H1    H     H_    0.848018 0.414998 0.153256 0.159478
H2    H     H_    0.814926 0.299772 0.805005 0.182355
H3    H     H_    0.199262 0.402777 0.346344 0.149139
H4    H     H_    0.427701 0.551238 0.175104 0.164920
H5    H     H_    0.149832 0.522744 0.848234 0.191290
H6    H     H_    0.254216 0.492339 0.133664 0.128678
H7    H     H_    0.077785 0.527923 0.046897 0.153338
H8    H     H_    0.630074 0.324474 0.726170 0.178513
H9    H     H_    0.727406 0.873778 0.425830 0.178140
H10   H     H_    0.932085 0.850804 0.642777 0.198765
H11   H     H_    0.995399 0.777255 0.503211 0.175880
H12   H     H_    0.237794 0.828603 0.450004 0.170594
H13   H     H_    0.821507 0.858054 0.561870 0.196073
H14   H     H_    0.878749 0.152860 0.964244 0.165325
H15   H     H_    0.964242 0.217141 0.056437 0.168135
H16   H     H_    0.066439 0.177021 0.915704 0.207902
H17   H     H_    0.008757 0.159805 0.638793 0.153715
H18   H     H_    0.229552 0.227700 0.656921 0.178092
H19   H     H_    0.729257 0.098513 0.449937 0.193714
H20   H     H_    0.950024 0.401036 0.347251 0.137004
H21   H     H_    0.679047 0.663402 0.661119 0.209915
H22   H     H_    0.695280 0.686582 0.841206 0.170865
H23   H     H_    0.928567 0.661212 0.860144 0.175549
N1    N     N_R   0.856860 0.501200 0.500990 -0.110319
N2    N     N_R   0.142450 0.501280 0.501020 -0.107523
O1    O     O_R   0.385310 0.683220 0.500000 -0.579015
O2    O     O_3   0.934537 0.338078 0.943697 -0.634316
O3    O     O_R   0.614640 0.683250 0.500010 -0.642678
O4    O     O_R   0.328400 0.499950 0.653610 -0.581427
O5    O     O_R   0.557730 0.499970 0.653620 -0.630861
O6    O     O_R   0.385360 0.316750 0.499990 -0.608904
O7    O     O_R   0.614690 0.316780 0.500000 -0.622480
O8    O     O_R   0.442270 0.500030 0.346380 -0.622982
O9    O     O_R   0.671600 0.500050 0.346390 -0.618780
O10   O     O_3   0.989119 0.970188 0.514478 -0.632674
Zn1   Zn    Zn3+2 0.346880 0.499980 0.499990 0.964453
Zn2   Zn    Zn3+2 0.653120 0.500020 0.500010 0.930167

loop_
_geom_bond_atom_site_label_1
_geom_bond_atom_site_label_2
_ccdc_geom_bond_type
C32   H16   S    
C25   O8    A    
C34   C35   A    
C11   H9    S    
C1    O1    A    
C35   H2    S    
C6    C7    A    
O4    Zn1   S    
C22   H20   S    
C35   C36   A    
C17   C18   A    
C4    O4    A    
C31   O10   S    
C29   C30   A    
N1    Zn2   S    
C18   H23   S    
C25   O9    A    
O5    Zn2   S    
C33   C34   A    
C15   H21   S    
C2    C28   A    
C31   H13   S    
C20   N2    A    
C4    O5    A    
C21   N1    A    
C18   C19   A    
C26   C38   A    
C7    C8    A    
C36   H8    S    
C8    C9    A    
C22   N1    A    
C16   O6    A    
C20   C21   A    
C2    C23   A    
C6    H17   S    
O8    Zn1   S    
C1    C10   S    
C29   H7    S    
C32   O2    S    
C5    O10   S    
C32   H14   S    
C13   H19   S    
C3    H12   S    
C3    C5    A    
C1    O3    A    
C38   H1    S    
C27   C38   A    
C26   C34   A    
C12   C23   A    
C24   N2    A    
C28   C29   A    
C7    H18   S    
C27   C37   A    
C23   C36   A    
C31   H11   S    
C11   C13   A    
C16   O7    A    
C28   H5    S    
O9    Zn2   S    
C3    C9    A    
C32   H15   S    
C14   C16   S    
Br1   C19   S    
C15   C21   A    
C33   C37   A    
C12   C30   A    
C2    C4    S    
C24   H3    S    
C10   C11   A    
C17   H22   S    
C5    C6    A    
C25   C27   S    
O1    Zn1   S    
C8    C14   A    
C12   C33   A    
C26   O2    S    
O7    Zn2   S    
N2    Zn1   S    
C22   C24   A    
C31   H10   S    
C9    C10   A    
C37   H4    S    
C19   C20   A    
C15   C17   A    
C30   H6    S    
O6    Zn1   S    
C13   C14   A    
O3    Zn2   S    
