data_mof_unit_61749.cif
_audit_creation_date              2013-03-05T15:42:57-0500
_audit_creation_method            fapswitch 2.2
_symmetry_space_group_name_H-M    P1
_symmetry_Int_Tables_number       1
_space_group_crystal_system       triclinic
_cell_length_a                    21.776524
_cell_length_b                    21.775483
_cell_length_c                    55.728095
_cell_angle_alpha                 89.999855
_cell_angle_beta                  89.999822
_cell_angle_gamma                 90.021315
_cell_volume                      26425.9447394

loop_
_atom_site_label
_atom_site_type_symbol
_atom_site_description
_atom_site_fract_x
_atom_site_fract_y
_atom_site_fract_z
_atom_type_partial_charge
O1    O     O_R   0.499960 0.590510 0.020150 -0.598261
O2    O     O_R   0.409490 0.499960 0.020150 -0.598190
O3    O     O_R   0.500040 0.409490 0.020150 -0.598262
O4    O     O_R   0.590510 0.500040 0.020150 -0.598191
O5    O     O_R   0.999960 0.090510 0.520150 -0.597489
O6    O     O_R   0.909490 0.999960 0.520150 -0.596012
O7    O     O_R   0.000040 0.909490 0.520150 -0.597489
O8    O     O_R   0.090510 0.000040 0.520150 -0.596012
O9    O     O_R   0.499990 0.590510 0.979930 -0.634289
O10   O     O_R   0.409490 0.499990 0.979930 -0.634383
O11   O     O_R   0.500010 0.409490 0.979930 -0.634288
O12   O     O_R   0.590510 0.500010 0.979930 -0.634382
O13   O     O_R   0.999990 0.090510 0.479930 -0.634556
O14   O     O_R   0.909490 0.999990 0.479930 -0.634823
O15   O     O_R   0.000010 0.909490 0.479930 -0.634556
O16   O     O_R   0.090510 0.000010 0.479930 -0.634824
C1    C     C_R   0.500059 0.618932 0.000198 0.788817
C2    C     C_R   0.381068 0.500065 0.000198 0.788936
C3    C     C_R   0.499941 0.381068 0.000198 0.788817
C4    C     C_R   0.618932 0.499935 0.000198 0.788937
C5    C     C_R   0.000065 0.118933 0.500198 0.787989
C6    C     C_R   0.881068 0.000057 0.500194 0.785924
C7    C     C_R   0.999935 0.881067 0.500198 0.787989
C8    C     C_R   0.118932 0.999943 0.500194 0.785924
C9    C     C_R   0.499999 0.000001 0.123597 0.171105
C10   C     C_R   0.000000 0.500000 0.123594 0.170748
C11   C     C_R   0.999999 0.500000 0.623606 0.172921
C12   C     C_R   0.500001 0.999999 0.623735 0.188699
Zn1   Zn    Zn3+2 0.500000 0.500000 0.026890 0.992899
Zn2   Zn    Zn3+2 0.000000 0.000000 0.526890 1.000271
Zn3   Zn    Zn3+2 0.500000 0.500000 0.973180 0.959190
Zn4   Zn    Zn3+2 1.000000 0.000000 0.473180 0.958587
C13   C     C_2   0.782427 0.452422 0.989901 -0.122010
C14   C     C_2   0.547512 0.782465 0.989870 -0.124285
C15   C     C_2   0.217573 0.547578 0.989901 -0.122010
C16   C     C_2   0.452488 0.217535 0.989870 -0.124286
C17   C     C_2   0.282421 0.952487 0.489812 -0.118463
C18   C     C_2   0.047511 0.282467 0.489858 -0.122950
C19   C     C_2   0.717580 0.047513 0.489812 -0.118463
C20   C     C_2   0.952489 0.717533 0.489858 -0.122949
C21   C     C_2   0.816462 0.502522 0.993510 -0.249883
C22   C     C_2   0.497426 0.816464 0.993504 -0.248141
C23   C     C_2   0.183538 0.497478 0.993510 -0.249884
C24   C     C_2   0.502574 0.183536 0.993504 -0.248140
C25   C     C_2   0.316480 0.002564 0.493433 -0.240387
C26   C     C_2   0.997426 0.316464 0.493500 -0.249190
C27   C     C_2   0.683520 0.997436 0.493433 -0.240386
C28   C     C_2   0.002574 0.683536 0.493500 -0.249192
H1    H     H_    0.802939 0.407070 0.988710 0.165328
H2    H     H_    0.592859 0.803010 0.988658 0.164426
H3    H     H_    0.197061 0.592930 0.988710 0.165328
H4    H     H_    0.407141 0.196990 0.988658 0.164426
H5    H     H_    0.302917 0.907131 0.488608 0.162986
H6    H     H_    0.092856 0.303015 0.488640 0.164163
H7    H     H_    0.697083 0.092869 0.488608 0.162986
H8    H     H_    0.907144 0.696985 0.488640 0.164163
C29   C     C_2   0.715807 0.458848 0.987750 -0.281953
C30   C     C_2   0.541086 0.715840 0.987723 -0.281681
C31   C     C_2   0.284193 0.541152 0.987750 -0.281952
C32   C     C_2   0.458914 0.284160 0.987723 -0.281681
C33   C     C_2   0.215792 0.958922 0.487697 -0.281737
C34   C     C_2   0.041085 0.215841 0.487713 -0.282127
C35   C     C_2   0.784208 0.041078 0.487697 -0.281738
C36   C     C_2   0.958915 0.784159 0.487713 -0.282128
C37   C     C_2   0.685156 0.499275 0.001452 0.384936
C38   C     C_2   0.500716 0.685158 0.001450 0.385680
C39   C     C_2   0.314843 0.500725 0.001452 0.384935
C40   C     C_2   0.499283 0.314842 0.001450 0.385682
C41   C     C_2   0.185160 0.999326 0.501421 0.385465
C42   C     C_2   0.000736 0.185161 0.501450 0.384698
C43   C     C_2   0.814840 0.000675 0.501421 0.385465
C44   C     C_2   0.999263 0.814839 0.501450 0.384698
H9    H     H_    0.691455 0.428166 0.975651 0.129547
H10   H     H_    0.571729 0.691511 0.975610 0.128432
H11   H     H_    0.308545 0.571834 0.975651 0.129547
H12   H     H_    0.428272 0.308489 0.975610 0.128433
H13   H     H_    0.191407 0.928226 0.475613 0.128379
H14   H     H_    0.071708 0.191512 0.475592 0.128861
H15   H     H_    0.808593 0.071774 0.475613 0.128380
H16   H     H_    0.928293 0.808488 0.475592 0.128861
O17   O     O_R   0.999980 0.448970 0.964420 -0.631342
O18   O     O_R   0.551030 0.999980 0.964420 -0.631458
O19   O     O_R   0.000020 0.551030 0.964420 -0.631342
O20   O     O_R   0.448970 0.000020 0.964420 -0.631458
O21   O     O_R   0.499980 0.948970 0.464420 -0.633544
O22   O     O_R   0.051030 0.499980 0.464420 -0.631634
O23   O     O_R   0.500020 0.051030 0.464420 -0.633544
O24   O     O_R   0.948970 0.500020 0.464420 -0.631634
C45   C     C_R   1.000000 0.500000 0.952911 0.862819
C46   C     C_R   0.500000 0.000000 0.952920 0.863095
C47   C     C_R   0.500000 0.000000 0.452911 0.860870
C48   C     C_R   0.000000 0.500000 0.452911 0.863321
O25   O     O_R   0.909490 0.448990 0.000040 -0.615914
O26   O     O_R   0.551010 0.909490 0.000040 -0.616853
O27   O     O_R   0.090510 0.551010 0.000040 -0.615915
O28   O     O_R   0.448990 0.090510 0.000040 -0.616853
O29   O     O_R   0.409490 0.948990 0.500040 -0.627101
O30   O     O_R   0.051010 0.409490 0.500040 -0.616807
O31   O     O_R   0.590510 0.051010 0.500040 -0.627100
O32   O     O_R   0.948990 0.590510 0.500040 -0.616806
O33   O     O_R   0.909510 0.551130 0.000040 -0.627621
O34   O     O_R   0.448870 0.909510 0.000040 -0.626665
O35   O     O_R   0.090490 0.448870 0.000040 -0.627621
O36   O     O_R   0.551130 0.090490 0.000040 -0.626666
O37   O     O_R   0.409510 0.051130 0.500040 -0.617631
O38   O     O_R   0.948870 0.409510 0.500040 -0.627727
O39   O     O_R   0.590490 0.948870 0.500040 -0.617630
O40   O     O_R   0.051130 0.590490 0.500040 -0.627727
C49   C     C_R   0.881181 0.500238 0.998414 0.903191
C50   C     C_R   0.499743 0.881183 0.998411 0.902940
C51   C     C_R   0.118819 0.499762 0.998414 0.903192
C52   C     C_R   0.500257 0.118817 0.998411 0.902941
C53   C     C_R   0.381191 0.000245 0.498373 0.929464
C54   C     C_R   0.999743 0.381183 0.498410 0.903798
C55   C     C_R   0.618808 0.999755 0.498373 0.929463
C56   C     C_R   0.000257 0.618817 0.498410 0.903799
Zn5   Zn    Zn3+2 0.999950 0.431840 0.000040 0.991642
Zn6   Zn    Zn3+2 0.568160 0.999950 0.000040 0.991711
Zn7   Zn    Zn3+2 0.000050 0.568160 0.000040 0.991642
Zn8   Zn    Zn3+2 0.431840 0.000050 0.000040 0.991711
Zn9   Zn    Zn3+2 0.499950 0.931840 0.500040 0.974071
Zn10  Zn    Zn3+2 0.068160 0.499950 0.500040 0.987882
Zn11  Zn    Zn3+2 0.500050 0.068160 0.500040 0.974071
Zn12  Zn    Zn3+2 0.931840 0.500050 0.500040 0.987882
O41   O     O_R   0.999930 0.448970 0.035660 -0.576575
O42   O     O_R   0.551030 0.999930 0.035660 -0.576369
O43   O     O_R   0.000070 0.551030 0.035660 -0.576575
O44   O     O_R   0.448970 0.000070 0.035660 -0.576368
O45   O     O_R   0.499930 0.948970 0.535660 -0.592352
O46   O     O_R   0.051030 0.499930 0.535660 -0.576541
O47   O     O_R   0.500070 0.051030 0.535660 -0.592352
O48   O     O_R   0.948970 0.500070 0.535660 -0.576540
C57   C     C_R   0.000000 0.500000 0.047096 0.956048
C58   C     C_R   0.500000 0.000000 0.047097 0.955673
C59   C     C_R   0.500000 1.000000 0.547141 1.006435
C60   C     C_R   1.000000 0.500000 0.547100 0.955896
C61   C     C_R   0.050464 0.525974 0.762691 0.044362
C62   C     C_R   0.525421 0.050740 0.762794 0.044429
C63   C     C_R   0.949535 0.474027 0.762691 0.044363
C64   C     C_R   0.474582 0.949259 0.762794 0.044429
C65   C     C_R   0.551000 0.024899 0.262692 0.044191
C66   C     C_R   0.975700 0.551269 0.262694 0.044184
C67   C     C_R   0.448999 0.975104 0.262693 0.044191
C68   C     C_R   0.024302 0.448731 0.262694 0.044183
C69   C     C_R   0.999999 0.500001 0.775273 0.072008
C70   C     C_R   0.500001 0.999999 0.775374 0.072039
C71   C     C_R   0.499999 0.000001 0.275276 0.072066
C72   C     C_R   0.000001 0.500000 0.275277 0.072095
C73   C     C_R   0.101020 0.548112 0.776117 -0.212595
C74   C     C_R   0.546890 0.101592 0.776209 -0.212800
C75   C     C_R   0.898979 0.451890 0.776117 -0.212596
C76   C     C_R   0.453112 0.898406 0.776210 -0.212801
C77   C     C_R   0.602011 0.045960 0.276119 -0.212441
C78   C     C_R   0.955240 0.602510 0.276120 -0.212455
C79   C     C_R   0.397987 0.954043 0.276119 -0.212440
C80   C     C_R   0.044761 0.397490 0.276120 -0.212454
C81   C     C_R   0.100859 0.547055 0.801012 -0.136746
C82   C     C_R   0.545800 0.101443 0.801102 -0.136758
C83   C     C_R   0.899140 0.452947 0.801012 -0.136747
C84   C     C_R   0.454202 0.898556 0.801102 -0.136757
C85   C     C_R   0.601825 0.044914 0.301014 -0.136892
C86   C     C_R   0.956281 0.602312 0.301016 -0.136883
C87   C     C_R   0.398174 0.955088 0.301014 -0.136892
C88   C     C_R   0.043720 0.397688 0.301016 -0.136883
C89   C     C_R   0.050505 0.523721 0.813529 -0.021931
C90   C     C_R   0.523098 0.050801 0.813616 -0.021897
C91   C     C_R   0.949494 0.476280 0.813529 -0.021931
C92   C     C_R   0.476905 0.949198 0.813616 -0.021897
C93   C     C_R   0.550991 0.022656 0.313531 -0.022037
C94   C     C_R   0.977941 0.551236 0.313533 -0.022088
C95   C     C_R   0.449008 0.977347 0.313532 -0.022037
C96   C     C_R   0.022061 0.448764 0.313533 -0.022087
C97   C     C_R   0.999999 0.500001 0.800756 -0.050801
C98   C     C_R   0.500001 0.999999 0.800848 -0.050910
C99   C     C_R   0.499999 0.000001 0.300758 -0.050836
C100  C     C_R   0.000001 0.500000 0.300760 -0.050808
C101  C     C_R   0.049690 0.523040 0.838680 0.503638
C102  C     C_R   0.522427 0.049975 0.838759 0.503665
C103  C     C_R   0.950309 0.476961 0.838680 0.503638
C104  C     C_R   0.477575 0.950024 0.838760 0.503666
C105  C     C_R   0.550155 0.022005 0.338683 0.503550
C106  C     C_R   0.978575 0.550391 0.338685 0.503627
C107  C     C_R   0.449844 0.977996 0.338683 0.503550
C108  C     C_R   0.021426 0.449609 0.338685 0.503625
N1    N     N_R   0.999999 0.500001 0.850675 -0.355181
N2    N     N_R   0.500001 0.999999 0.850743 -0.355366
N3    N     N_R   0.500000 0.000001 0.350676 -0.355167
N4    N     N_R   0.000001 0.500000 0.350677 -0.355225
H17   H     H_    0.142314 0.565567 0.767976 0.143702
H18   H     H_    0.563787 0.143100 0.768056 0.143719
H19   H     H_    0.857685 0.434434 0.767976 0.143702
H20   H     H_    0.436216 0.856898 0.768056 0.143719
H21   H     H_    0.643664 0.062530 0.267977 0.144300
H22   H     H_    0.939164 0.644341 0.267978 0.144313
H23   H     H_    0.356335 0.937473 0.267977 0.144300
H24   H     H_    0.060837 0.355659 0.267978 0.144313
O49   O     O_2   0.098306 0.544810 0.851078 -0.561126
O50   O     O_2   0.543602 0.098839 0.851164 -0.560961
O51   O     O_2   0.901693 0.455192 0.851079 -0.561126
O52   O     O_2   0.456400 0.901160 0.851164 -0.560962
O53   O     O_2   0.599198 0.042779 0.351083 -0.561720
O54   O     O_2   0.958360 0.599648 0.351086 -0.561535
O55   O     O_2   0.400801 0.957223 0.351084 -0.561720
O56   O     O_2   0.041641 0.400352 0.351087 -0.561535
C109  C     C_R   0.549639 0.027514 0.237243 0.043960
C110  C     C_R   0.973065 0.549934 0.237244 0.043955
C111  C     C_R   0.450359 0.972489 0.237243 0.043960
C112  C     C_R   0.026936 0.450065 0.237245 0.043955
C113  C     C_R   0.049049 0.528558 0.737242 0.044270
C114  C     C_R   0.528123 0.049294 0.737355 0.044470
C115  C     C_R   0.950949 0.471443 0.737242 0.044270
C116  C     C_R   0.471880 0.950704 0.737355 0.044470
C117  C     C_R   0.499999 0.000001 0.224660 0.074816
C118  C     C_R   0.000001 0.500000 0.224661 0.074831
C119  C     C_R   0.999999 0.500001 0.724660 0.074682
C120  C     C_R   0.500001 0.999999 0.724776 0.074577
C121  C     C_R   0.403853 0.942769 0.223817 -0.210436
C122  C     C_R   0.056121 0.403244 0.223819 -0.210469
C123  C     C_R   0.596145 0.057233 0.223817 -0.210436
C124  C     C_R   0.943880 0.596755 0.223819 -0.210469
C125  C     C_R   0.905078 0.440748 0.723816 -0.210711
C126  C     C_R   0.441474 0.904633 0.723940 -0.211099
C127  C     C_R   0.094921 0.559253 0.723816 -0.210711
C128  C     C_R   0.558528 0.095365 0.723940 -0.211101
C129  C     C_R   0.404808 0.942332 0.198922 -0.134334
C130  C     C_R   0.056578 0.404199 0.198923 -0.134343
C131  C     C_R   0.595190 0.057670 0.198921 -0.134334
C132  C     C_R   0.943423 0.595800 0.198923 -0.134342
C133  C     C_R   0.906034 0.440343 0.698921 -0.135192
C134  C     C_R   0.440993 0.905623 0.699048 -0.135962
C135  C     C_R   0.093965 0.559658 0.698920 -0.135192
C136  C     C_R   0.559010 0.094375 0.699048 -0.135962
C137  C     C_R   0.452191 0.971222 0.186405 -0.033767
C138  C     C_R   0.028236 0.451890 0.186406 -0.033741
C139  C     C_R   0.547808 0.028780 0.186405 -0.033766
C140  C     C_R   0.971765 0.548109 0.186406 -0.033740
C141  C     C_R   0.952798 0.470229 0.686405 -0.033454
C142  C     C_R   0.470539 0.952604 0.686534 -0.031317
C143  C     C_R   0.047201 0.529772 0.686405 -0.033454
C144  C     C_R   0.529463 0.047395 0.686534 -0.031316
C145  C     C_R   0.499999 0.000001 0.199178 -0.050395
C146  C     C_R   0.000001 0.500000 0.199179 -0.050390
C147  C     C_R   0.999999 0.500001 0.699178 -0.050428
C148  C     C_R   0.500001 0.999999 0.699302 -0.051147
C149  C     C_R   0.546806 0.028447 0.161254 0.525249
C150  C     C_R   0.972076 0.547099 0.161255 0.525215
C151  C     C_R   0.453193 0.971555 0.161254 0.525248
C152  C     C_R   0.027925 0.452900 0.161255 0.525214
C153  C     C_R   0.046215 0.529399 0.661254 0.524823
C154  C     C_R   0.529153 0.046378 0.661391 0.524741
C155  C     C_R   0.953784 0.470601 0.661255 0.524823
C156  C     C_R   0.470849 0.953621 0.661391 0.524741
N5    N     N_R   0.499999 0.000001 0.149268 -0.330672
N6    N     N_R   0.000000 0.499999 0.149267 -0.330612
N7    N     N_R   0.999999 0.500000 0.649272 -0.330671
N8    N     N_R   0.500001 0.999999 0.649405 -0.329048
H25   H     H_    0.366398 0.918136 0.231959 0.144106
H26   H     H_    0.080318 0.365527 0.231961 0.144126
H27   H     H_    0.633601 0.081866 0.231958 0.144106
H28   H     H_    0.919683 0.634473 0.231961 0.144126
H29   H     H_    0.868150 0.415323 0.731958 0.143407
H30   H     H_    0.416307 0.867549 0.732094 0.143461
H31   H     H_    0.131848 0.584679 0.731957 0.143407
H32   H     H_    0.583696 0.132449 0.732093 0.143462
H33   H     H_    0.368013 0.919047 0.189505 0.191182
H34   H     H_    0.079440 0.367159 0.189507 0.191201
H35   H     H_    0.631985 0.080955 0.189505 0.191182
H36   H     H_    0.920561 0.632840 0.189507 0.191201
H37   H     H_    0.869733 0.416288 0.689504 0.190587
H38   H     H_    0.417168 0.869175 0.689634 0.190078
H39   H     H_    0.130266 0.583713 0.689503 0.190587
H40   H     H_    0.582834 0.130823 0.689633 0.190078
O57   O     O_2   0.591980 0.056641 0.148845 -0.553877
O58   O     O_2   0.944370 0.592556 0.148849 -0.553938
O59   O     O_2   0.408019 0.943361 0.148845 -0.553876
O60   O     O_2   0.055631 0.407444 0.148849 -0.553937
O61   O     O_2   0.090816 0.558485 0.648841 -0.554841
O62   O     O_2   0.558084 0.091096 0.648988 -0.565058
O63   O     O_2   0.909183 0.441515 0.648842 -0.554842
O64   O     O_2   0.441918 0.908902 0.648989 -0.565057
C157  C     C_R   0.002086 0.444360 0.888901 -0.102001
C158  C     C_R   0.555652 0.998142 0.888941 -0.102175
C159  C     C_R   0.997914 0.555641 0.888901 -0.102001
C160  C     C_R   0.444350 0.001857 0.888941 -0.102175
C161  C     C_R   0.501296 0.944336 0.388898 -0.102754
C162  C     C_R   0.055670 0.500885 0.388897 -0.102531
C163  C     C_R   0.498703 0.055665 0.388898 -0.102754
C164  C     C_R   0.944331 0.499115 0.388897 -0.102531
C165  C     C_R   0.002035 0.444291 0.913882 -0.215008
C166  C     C_R   0.555721 0.998182 0.913915 -0.214999
C167  C     C_R   0.997965 0.555710 0.913882 -0.215007
C168  C     C_R   0.444279 0.001818 0.913915 -0.214999
C169  C     C_R   0.501263 0.944268 0.413880 -0.216173
C170  C     C_R   0.055739 0.500860 0.413879 -0.215447
C171  C     C_R   0.498737 0.055733 0.413880 -0.216172
C172  C     C_R   0.944262 0.499140 0.413879 -0.215447
H41   H     H_    0.003707 0.400715 0.923225 0.165159
H42   H     H_    0.599299 0.996685 0.923258 0.165207
H43   H     H_    0.996292 0.599286 0.923225 0.165159
H44   H     H_    0.400701 0.003315 0.923258 0.165207
H45   H     H_    0.502313 0.900673 0.423222 0.164448
H46   H     H_    0.099337 0.501587 0.423221 0.164617
H47   H     H_    0.497686 0.099328 0.423222 0.164448
H48   H     H_    0.900663 0.498413 0.423221 0.164617
C173  C     C_R   1.000000 0.500000 0.926575 -0.039851
C174  C     C_R   0.500000 1.000000 0.926599 -0.039623
C175  C     C_R   0.500000 0.000000 0.426573 -0.038006
C176  C     C_R   0.000000 0.500000 0.426573 -0.039560
C177  C     C_R   1.000000 0.500001 0.876356 0.313666
C178  C     C_R   0.500001 1.000000 0.876409 0.314322
C179  C     C_R   0.500000 0.000001 0.376355 0.314796
C180  C     C_R   0.000001 0.500000 0.376355 0.314835
C181  C     C_R   0.455861 0.033867 0.111099 -0.193624
C182  C     C_R   0.034108 0.543979 0.111092 -0.193441
C183  C     C_R   0.544138 0.966134 0.111099 -0.193622
C184  C     C_R   0.965892 0.456020 0.111092 -0.193441
C185  C     C_R   0.955517 0.533410 0.611111 -0.194836
C186  C     C_R   0.531783 0.954422 0.611253 -0.204465
C187  C     C_R   0.044482 0.466590 0.611111 -0.194834
C188  C     C_R   0.468218 0.045577 0.611253 -0.204465
H49   H     H_    0.421777 0.060074 0.120869 0.174838
H50   H     H_    0.060505 0.577940 0.120861 0.175051
H51   H     H_    0.578222 0.939927 0.120870 0.174838
H52   H     H_    0.939495 0.422060 0.120862 0.175051
H53   H     H_    0.921165 0.559257 0.620886 0.173590
H54   H     H_    0.557621 0.920313 0.621146 0.165998
H55   H     H_    0.078834 0.440743 0.620886 0.173590
H56   H     H_    0.442380 0.079686 0.621147 0.165998
C189  C     C_R   0.456135 0.034988 0.086050 0.439721
C190  C     C_R   0.035215 0.543707 0.086044 0.439528
C191  C     C_R   0.543864 0.965012 0.086050 0.439721
C192  C     C_R   0.964785 0.456293 0.086044 0.439528
C193  C     C_R   0.955791 0.534555 0.586063 0.439765
C194  C     C_R   0.530672 0.952918 0.586147 0.431443
C195  C     C_R   0.044208 0.465445 0.586063 0.439765
C196  C     C_R   0.469328 0.047081 0.586147 0.431444
C197  C     C_R   0.500000 0.000000 0.073375 -0.290576
C198  C     C_R   0.000000 0.500000 0.073371 -0.290462
C199  C     C_R   1.000000 0.500000 0.573383 -0.290388
C200  C     C_R   0.500000 1.000000 0.573496 -0.277583
O65   O     O_3   0.412179 0.068958 0.074057 -0.579043
C201  C     C_3   0.434739 0.129150 0.070975 -0.237043
H57   H     H_    0.399938 0.156301 0.061043 0.197607
H58   H     H_    0.477700 0.129547 0.060134 0.151559
H59   H     H_    0.442446 0.152127 0.088565 0.156867
O66   O     O_3   0.069401 0.587514 0.074047 -0.579098
C202  C     C_3   0.129465 0.564680 0.070951 -0.237035
H60   H     H_    0.156785 0.599364 0.061017 0.197827
H61   H     H_    0.129620 0.521723 0.060106 0.151451
H62   H     H_    0.152421 0.556856 0.088536 0.156852
O67   O     O_3   0.587820 0.931042 0.074057 -0.579044
C203  C     C_3   0.565259 0.870850 0.070975 -0.237040
H63   H     H_    0.600061 0.843700 0.061043 0.197606
H64   H     H_    0.522299 0.870455 0.060133 0.151557
H65   H     H_    0.557550 0.847873 0.088565 0.156866
O68   O     O_3   0.930599 0.412486 0.074047 -0.579099
C204  C     C_3   0.870535 0.435320 0.070951 -0.237033
H66   H     H_    0.843214 0.400635 0.061017 0.197826
H67   H     H_    0.870380 0.478276 0.060106 0.151450
H68   H     H_    0.847579 0.443145 0.088536 0.156851
O69   O     O_3   0.911509 0.568115 0.574077 -0.580495
C205  C     C_3   0.933472 0.628536 0.571020 -0.239632
H69   H     H_    0.898411 0.655363 0.561093 0.196489
H70   H     H_    0.976438 0.629385 0.560185 0.152665
H71   H     H_    0.940933 0.651548 0.588619 0.157353
O70   O     O_3   0.564568 0.909310 0.573829 -0.585925
C206  C     C_3   0.537716 0.850974 0.577237 -0.226966
H72   H     H_    0.560154 0.817999 0.564860 0.181672
H73   H     H_    0.487765 0.851233 0.572892 0.162578
H74   H     H_    0.545295 0.834041 0.595814 0.158769
O71   O     O_3   0.088490 0.431884 0.574077 -0.580495
C207  C     C_3   0.066526 0.371464 0.571020 -0.239632
H75   H     H_    0.101587 0.344637 0.561093 0.196489
H76   H     H_    0.023561 0.370617 0.560185 0.152664
H77   H     H_    0.059063 0.348452 0.588619 0.157353
O72   O     O_3   0.435432 0.090690 0.573829 -0.585926
C208  C     C_3   0.462284 0.149025 0.577237 -0.226964
H78   H     H_    0.439845 0.182001 0.564860 0.181671
H79   H     H_    0.512235 0.148767 0.572892 0.162578
H80   H     H_    0.454705 0.165958 0.595815 0.158769
H81   H     H_    0.796175 0.547977 0.992221 0.180578
H82   H     H_    0.451966 0.796147 0.992235 0.181089
H83   H     H_    0.203826 0.452023 0.992222 0.180577
H84   H     H_    0.548034 0.203853 0.992235 0.181088
H85   H     H_    0.296208 0.048028 0.492150 0.176939
H86   H     H_    0.951967 0.296144 0.492237 0.180198
H87   H     H_    0.703792 0.951972 0.492150 0.176939
H88   H     H_    0.048033 0.703856 0.492237 0.180198
O73   O     O_3   0.714453 0.528162 0.020630 -0.592391
C209  C     C_3   0.697852 0.590859 0.021571 -0.320567
H89   H     H_    0.651709 0.596819 0.029727 0.193312
H90   H     H_    0.699563 0.613058 0.003562 0.131216
H91   H     H_    0.731240 0.615223 0.033208 0.200571
O74   O     O_3   0.471887 0.714438 0.020640 -0.592582
C210  C     C_3   0.409191 0.697802 0.021605 -0.320102
H92   H     H_    0.403244 0.651658 0.029767 0.193258
H93   H     H_    0.386950 0.699490 0.003604 0.131927
H94   H     H_    0.384863 0.731185 0.033247 0.200691
O75   O     O_3   0.285547 0.471838 0.020631 -0.592390
C211  C     C_3   0.302147 0.409141 0.021572 -0.320566
H95   H     H_    0.348290 0.403182 0.029728 0.193312
H96   H     H_    0.300437 0.386942 0.003563 0.131215
H97   H     H_    0.268759 0.384778 0.033208 0.200571
O76   O     O_3   0.528112 0.285562 0.020641 -0.592583
C212  C     C_3   0.590808 0.302197 0.021605 -0.320103
H98   H     H_    0.596755 0.348341 0.029768 0.193258
H99   H     H_    0.613049 0.300509 0.003605 0.131927
H100  H     H_    0.615136 0.268815 0.033248 0.200691
O77   O     O_3   0.214501 0.028304 0.520566 -0.579923
C213  C     C_3   0.197841 0.090989 0.521483 -0.302300
H101  H     H_    0.151710 0.096928 0.529652 0.189521
H102  H     H_    0.199489 0.113131 0.503462 0.124450
H103  H     H_    0.231232 0.115425 0.533095 0.205271
O78   O     O_3   0.971941 0.214444 0.520647 -0.592782
C214  C     C_3   0.909239 0.197836 0.521619 -0.315659
H104  H     H_    0.903279 0.151692 0.529780 0.195024
H105  H     H_    0.886982 0.199537 0.503622 0.130191
H106  H     H_    0.884936 0.231226 0.533266 0.200720
O79   O     O_3   0.785498 0.971696 0.520566 -0.579923
C215  C     C_3   0.802158 0.909012 0.521483 -0.302301
H107  H     H_    0.848290 0.903072 0.529652 0.189521
H108  H     H_    0.800511 0.886869 0.503463 0.124451
H109  H     H_    0.768767 0.884575 0.533096 0.205272
O80   O     O_3   0.028058 0.785556 0.520647 -0.592783
C216  C     C_3   0.090760 0.802164 0.521620 -0.315658
H110  H     H_    0.096720 0.848307 0.529781 0.195024
H111  H     H_    0.113017 0.800462 0.503622 0.130191
H112  H     H_    0.115063 0.768773 0.533266 0.200720
H113  H     H_    0.140673 0.564696 0.810427 0.190287
H114  H     H_    0.562913 0.141481 0.810516 0.190303
H115  H     H_    0.859325 0.435306 0.810428 0.190287
H116  H     H_    0.437089 0.858517 0.810516 0.190303
H117  H     H_    0.642000 0.061707 0.310429 0.190338
H118  H     H_    0.939962 0.642668 0.310431 0.190348
H119  H     H_    0.357999 0.938295 0.310430 0.190338
H120  H     H_    0.060040 0.357332 0.310431 0.190348
H121  H     H_    0.003903 0.401225 0.879255 0.144303
H122  H     H_    0.598781 0.996513 0.879289 0.143966
H123  H     H_    0.996097 0.598776 0.879255 0.144303
H124  H     H_    0.401220 0.003486 0.879289 0.143966
H125  H     H_    0.502489 0.901184 0.379250 0.143665
H126  H     H_    0.098826 0.501754 0.379248 0.143547
H127  H     H_    0.497510 0.098817 0.379250 0.143665
H128  H     H_    0.901175 0.498246 0.379248 0.143547

loop_
_geom_bond_atom_site_label_1
_geom_bond_atom_site_label_2
_geom_bond_distance
_ccdc_geom_bond_type
C196  O72   1.385034 S    
C204  H66   1.109306 S    
C108  O56   1.349900 S    
O23   C47   1.283030 A    
C143  C153  1.401755 A    
C216  H110  1.110495 S    
C91   C103  1.401808 A    
C14   C22   1.333938 D    
C105  N3    1.367064 A    
O34   Zn8   2.006266 S    
O15   Zn4   2.006475 S    
C94   C100  1.408059 A    
C57   C198  1.464272 S    
C10   C182  1.397735 A    
C82   C90   1.395139 A    
C11   C187  1.397480 A    
O2    Zn1   2.006464 S    
C162  H126  1.082908 S    
C95   C107  1.401835 A    
C215  H107  1.110518 S    
C169  C175  1.404995 A    
O30   C54   1.278315 A    
C170  C176  1.405002 A    
C165  C173  1.404976 A    
O17   Zn5   2.019771 S    
C144  C148  1.408039 A    
C121  H25   1.076355 S    
C207  H75   1.109319 S    
O37   Zn11  2.006084 S    
O19   Zn7   2.019773 S    
C208  H80   1.111317 S    
C132  H36   1.083535 S    
C133  H37   1.083679 S    
C153  O61   1.350016 S    
C164  C180  1.399481 A    
C38   O74   1.394509 S    
C26   H86   1.086459 S    
O3    C3    1.272532 A    
C64   C76   1.415379 A    
C82   H114  1.083521 S    
C142  C156  1.401368 A    
C110  C118  1.420772 A    
O40   Zn10  2.006266 S    
O35   Zn5   2.006084 S    
C105  O53   1.349958 S    
C86   H118  1.083534 S    
C114  C128  1.415377 A    
C164  H128  1.082909 S    
C140  C150  1.401812 A    
C150  O58   1.349902 S    
O14   Zn4   2.006568 S    
C201  H57   1.109308 S    
C209  H90   1.114560 S    
C134  H38   1.083527 S    
O27   Zn7   2.005125 S    
C92   C104  1.401413 A    
C149  N5    1.366874 A    
C32   H12   1.087166 S    
C81   H113  1.083674 S    
O32   Zn12  2.004763 S    
C74   H18   1.076362 S    
C203  H63   1.109308 S    
O12   C4    1.287973 A    
O1    Zn1   2.006368 S    
O13   C5    1.287961 A    
C3    C40   1.443858 S    
C164  C172  1.392206 A    
C24   C52   1.436440 S    
O6    Zn2   2.006465 S    
C35   C43   1.343281 D    
C153  N7    1.366794 A    
C204  H68   1.113259 S    
C15   H3    1.086060 S    
O73   C209  1.413399 S    
C216  H112  1.109199 S    
C16   C24   1.333936 D    
O18   Zn6   2.019777 S    
C133  C141  1.395198 A    
C12   C188  1.395832 A    
C187  C195  1.396118 A    
C19   C27   1.333890 D    
C20   C28   1.333950 D    
C11   C185  1.397480 A    
C80   H24   1.076299 S    
C7    C44   1.443889 S    
C215  H109  1.109224 S    
C137  C151  1.401789 A    
C201  H59   1.113258 S    
C40   O76   1.394505 S    
C73   H17   1.076433 S    
C207  H77   1.113255 S    
C118  C146  1.420074 A    
C165  H41   1.082960 S    
C193  O69   1.382264 S    
C129  C137  1.395165 A    
C76   H20   1.076362 S    
C212  H98   1.110501 S    
C131  H35   1.083594 S    
C10   C184  1.397734 A    
O10   C2    1.287969 A    
C70   C98   1.419584 A    
C83   C91   1.395256 A    
C206  H74   1.111317 S    
C71   C99   1.420086 A    
C84   C92   1.395138 A    
O74   C210  1.413426 S    
C65   C71   1.420804 A    
C102  N2    1.366889 A    
O5    C5    1.272539 A    
C184  H52   1.083225 S    
O38   Zn12  2.006266 S    
C14   C30   1.462369 S    
C143  C147  1.408206 A    
O77   C213  1.413433 S    
C13   H1    1.086061 S    
C122  C130  1.387581 A    
C29   C37   1.343138 D    
C47   C175  1.467722 S    
C89   C101  1.401808 A    
O13   Zn4   2.006475 S    
O79   C215  1.413433 S    
O24   Zn12  2.019775 S    
C116  C126  1.415376 A    
C92   C98   1.408050 A    
C34   C42   1.343116 D    
C72   C100  1.420091 A    
C9    C181  1.397638 A    
O37   C53   1.271285 A    
C23   H83   1.086461 S    
O25   C49   1.278316 A    
C205  H69   1.109320 S    
C193  C199  1.411689 A    
O75   C211  1.413399 S    
C115  C125  1.415604 A    
C203  H65   1.113258 S    
C186  H54   1.082842 S    
C29   H9    1.087167 S    
O3    Zn1   2.006372 S    
C24   H84   1.086462 S    
O29   Zn9   2.005125 S    
C31   C39   1.343138 D    
O45   C59   1.282248 A    
C182  H50   1.083223 S    
C33   H13   1.087175 S    
C214  H105  1.114561 S    
C60   C199  1.464741 S    
C15   C23   1.333933 D    
C16   H4    1.086070 S    
C28   C56   1.436459 S    
C85   C93   1.395201 A    
C66   C110  1.419710 A    
C101  O49   1.350025 S    
C94   C106  1.401851 A    
O25   Zn5   2.005125 S    
C129  H33   1.083593 S    
C157  H121  1.082950 S    
C154  N8    1.366983 A    
O19   C45   1.283007 A    
C19   H7    1.086062 S    
C166  C174  1.404857 A    
C125  C133  1.387541 A    
O76   C212  1.413425 S    
C212  H100  1.109199 S    
C81   C89   1.395252 A    
O36   C52   1.271426 A    
C9    N5    1.430579 S    
C28   H88   1.086458 S    
C161  C179  1.399515 A    
C79   C87   1.387560 A    
C162  C180  1.399483 A    
C62   C114  1.419232 A    
C75   C83   1.387530 A    
C68   C80   1.415506 A    
C104  O52   1.349922 S    
O44   C58   1.281057 A    
C205  H70   1.113693 S    
C67   C79   1.415539 A    
O48   C60   1.281140 A    
C39   O75   1.394514 S    
C194  O70   1.385035 S    
C58   C197  1.464440 S    
C106  N4    1.367024 A    
C66   C78   1.415507 A    
O21   Zn9   2.019771 S    
C160  C168  1.391777 A    
C213  H101  1.110520 S    
C104  N2    1.366887 A    
C138  C146  1.408096 A    
O80   C216  1.413415 S    
C187  H55   1.083244 S    
O12   Zn3   2.006568 S    
C88   C96   1.395168 A    
C169  H45   1.082933 S    
C183  C191  1.396137 A    
C30   H10   1.087168 S    
C171  H47   1.082933 S    
O5    Zn2   2.006369 S    
C185  H53   1.083242 S    
C172  H48   1.082909 S    
C109  C123  1.415552 A    
C34   H14   1.087163 S    
C211  H95   1.110508 S    
C131  C139  1.395165 A    
O35   C51   1.271371 A    
O16   Zn4   2.006568 S    
O1    C1    1.272535 A    
C130  C138  1.395147 A    
C110  C124  1.415514 A    
O32   C56   1.278316 A    
O14   C6    1.287773 A    
C215  H108  1.114567 S    
C22   C50   1.436439 S    
O26   C50   1.278314 A    
C83   H115  1.083674 S    
C202  H62   1.113257 S    
O23   Zn11  2.019773 S    
C84   H116  1.083524 S    
C65   C77   1.415539 A    
C73   C81   1.387535 A    
C62   C70   1.420642 A    
O7    C7    1.272542 A    
C63   C75   1.415577 A    
O8    C8    1.272729 A    
C207  H76   1.113695 S    
C65   C109  1.419687 A    
C208  H79   1.114394 S    
C194  C200  1.412362 A    
C77   H21   1.076355 S    
C126  C134  1.387397 A    
C163  H127  1.082926 S    
C18   C34   1.462389 S    
Zn5   O41   2.019784 S    
C96   C100  1.408059 A    
C121  C129  1.387567 A    
Zn7   O43   2.019782 S    
C120  C148  1.419578 A    
C171  C175  1.404996 A    
C144  C154  1.401368 A    
C195  O71   1.382263 S    
C216  H111  1.114567 S    
C166  H42   1.082916 S    
C127  H31   1.076436 S    
C191  O67   1.382254 S    
C128  H32   1.076360 S    
C27   C55   1.436740 S    
O11   C3    1.287954 A    
C1    C38   1.443858 S    
C154  O62   1.349964 S    
C61   C69   1.420845 A    
C124  H28   1.076299 S    
C157  C177  1.399590 A    
C125  H29   1.076436 S    
O31   C55   1.278514 A    
Zn8   O44   2.019788 S    
C210  H94   1.109201 S    
C201  H58   1.113683 S    
O33   C49   1.271370 A    
O71   C207  1.410095 S    
O6    C6    1.272728 A    
C101  N1    1.367132 A    
C124  C132  1.387581 A    
C15   C31   1.462455 S    
C181  C189  1.396137 A    
C25   C53   1.436743 S    
O70   C206  1.411052 S    
C22   H82   1.086460 S    
C138  C152  1.401806 A    
O10   Zn3   2.006568 S    
C67   C111  1.419687 A    
O67   C203  1.410090 S    
C20   H8    1.086071 S    
C203  H64   1.113686 S    
O22   Zn10  2.019777 S    
C90   C102  1.401413 A    
C87   C95   1.395201 A    
O4    Zn1   2.006460 S    
C68   C72   1.420774 A    
C91   C97   1.408098 A    
O17   C45   1.283007 A    
C109  C117  1.420807 A    
C204  H67   1.113673 S    
O7    Zn2   2.006373 S    
C36   H16   1.087163 S    
C211  H97   1.109209 S    
C126  H30   1.076364 S    
C127  C135  1.387541 A    
O36   Zn6   2.006266 S    
C112  C122  1.415517 A    
C210  H93   1.114563 S    
C111  C121  1.415554 A    
C141  C147  1.408207 A    
C122  H26   1.076298 S    
C4    C37   1.443908 S    
C64   C70   1.420641 A    
C202  H60   1.109304 S    
C160  C178  1.399319 A    
C150  N6    1.366913 A    
C159  C167  1.392167 A    
C184  C192  1.396132 A    
C37   O73   1.394511 S    
C61   C113  1.419658 A    
N4    C180  1.430953 S    
C189  C197  1.411517 A    
C45   C173  1.467655 S    
C155  N7    1.366794 A    
C86   C94   1.395169 A    
O20   Zn8   2.019775 S    
N1    C177  1.431125 S    
C93   C99   1.408079 A    
C206  H73   1.114393 S    
C113  C119  1.420847 A    
O9    C1    1.287952 A    
N3    C179  1.431014 S    
C93   C105  1.401835 A    
C43   O79   1.394450 S    
C158  H122  1.082913 S    
O78   C214  1.413415 S    
C113  C127  1.415603 A    
C168  H44   1.082915 S    
O39   Zn9   2.006084 S    
C168  C174  1.404857 A    
C64   C116  1.419237 A    
O20   C46   1.282821 A    
C112  C118  1.420773 A    
C74   C82   1.387407 A    
Zn11  O47   2.019782 S    
C106  O54   1.349896 S    
C186  C194  1.399741 A    
O43   C57   1.280978 A    
Zn9   O45   2.019784 S    
C88   H120  1.083534 S    
C78   C86   1.387582 A    
C210  H92   1.110498 S    
C159  C177  1.399587 A    
C209  H89   1.110508 S    
C103  N1    1.367131 A    
C192  O68   1.382251 S    
C48   C176  1.467755 S    
C90   C98   1.408050 A    
C119  C147  1.420035 A    
O18   C46   1.282823 A    
O8    Zn2   2.006461 S    
O40   C56   1.271432 A    
C117  C145  1.420063 A    
C156  O64   1.349965 S    
C172  C176  1.405000 A    
C190  O66   1.382252 S    
C103  O51   1.350025 S    
C114  C120  1.420643 A    
C161  H125  1.082924 S    
C159  H123  1.082951 S    
C170  H46   1.082910 S    
C79   H23   1.076357 S    
C23   C51   1.436483 S    
C21   H81   1.086461 S    
C32   C40   1.343113 D    
C77   C85   1.387560 A    
O27   C51   1.278315 A    
C123  C131  1.387567 A    
C11   N7    1.430334 S    
C27   H87   1.086483 S    
C68   C112  1.419703 A    
C205  H71   1.113259 S    
C115  C119  1.420848 A    
C76   C84   1.387407 A    
C17   C25   1.333888 D    
O2    C2    1.272539 A    
O26   Zn6   2.004763 S    
C206  H72   1.109241 S    
C196  C200  1.412360 A    
C209  H91   1.109212 S    
O21   C47   1.283029 A    
C35   H15   1.087175 S    
O65   C201  1.410090 S    
C62   C74   1.415378 A    
C67   C71   1.420805 A    
O28   C52   1.278313 A    
Zn12  O48   2.019788 S    
O38   C54   1.271434 A    
C135  C143  1.395197 A    
C152  O60   1.349904 S    
C107  N3    1.367065 A    
C128  C136  1.387402 A    
C87   H119  1.083593 S    
C152  N6    1.366914 A    
C212  H99   1.114560 S    
O24   C48   1.283069 A    
C89   C97   1.408098 A    
C142  C148  1.408040 A    
C111  C117  1.420807 A    
C149  O57   1.349955 S    
C140  C146  1.408092 A    
C183  H51   1.083228 S    
C30   C38   1.343111 D    
C139  C145  1.408137 A    
C116  C120  1.420641 A    
C185  C193  1.396124 A    
C18   H6    1.086070 S    
C167  C173  1.404977 A    
C136  H40   1.083527 S    
C167  H43   1.082963 S    
O41   C57   1.280979 A    
C213  H102  1.114569 S    
C156  N8    1.366983 A    
O15   C7    1.287959 A    
C102  O50   1.349924 S    
O11   Zn3   2.006475 S    
O16   C8    1.287771 A    
C188  C196  1.399746 A    
C61   C73   1.415576 A    
C85   H117  1.083594 S    
C190  C198  1.411423 A    
C158  C178  1.399323 A    
O42   C58   1.281056 A    
C158  C166  1.391771 A    
C8    C41   1.443907 S    
C155  O63   1.350015 S    
C163  C171  1.392189 A    
C14   H2    1.086071 S    
C18   C26   1.333951 D    
C26   C54   1.436459 S    
O33   Zn7   2.006084 S    
C66   C72   1.420771 A    
C13   C21   1.333935 D    
C213  H103  1.109228 S    
C211  H96   1.114564 S    
C10   N6    1.430702 S    
C192  C198  1.411424 A    
C9    C183  1.397639 A    
C63   C115  1.419658 A    
C2    C39   1.443909 S    
C95   C99   1.408077 A    
C108  N4    1.367023 A    
C135  H39   1.083680 S    
C12   C186  1.395831 A    
C25   H85   1.086481 S    
C202  H61   1.113674 S    
C96   C108  1.401856 A    
O47   C59   1.282247 A    
C214  H104  1.110496 S    
C189  O65   1.382255 S    
C59   C200  1.468669 S    
C214  H106  1.109199 S    
C191  C197  1.411516 A    
O39   C55   1.271286 A    
C208  H78   1.109242 S    
C130  H34   1.083535 S    
O30   Zn10  2.004763 S    
C151  N5    1.366872 A    
C137  C145  1.408137 A    
C69   C97   1.420069 A    
C134  C142  1.395134 A    
C123  H27   1.076355 S    
O29   C53   1.278513 A    
C31   H11   1.087168 S    
C6    C43   1.443907 S    
O72   C208  1.411050 S    
C182  C190  1.396137 A    
O31   Zn11  2.005125 S    
C33   C41   1.343280 D    
C63   C69   1.420845 A    
C13   C29   1.462455 S    
O28   Zn8   2.004763 S    
O46   C60   1.281139 A    
C12   N8    1.430551 S    
C181  H49   1.083226 S    
C16   C32   1.462369 S    
C17   C33   1.462504 S    
C46   C174  1.466786 S    
O4    C4    1.272536 A    
C19   C35   1.462504 S    
O69   C205  1.410094 S    
C20   C36   1.462391 S    
C5    C42   1.443889 S    
N2    C178  1.430273 S    
C107  O55   1.349958 S    
C160  H124  1.082911 S    
C17   H5    1.086063 S    
O22   C48   1.283071 A    
C195  C199  1.411690 A    
C44   O80   1.394495 S    
O66   C202  1.410065 S    
C75   H19   1.076431 S    
O68   C204  1.410064 S    
C162  C170  1.392206 A    
Zn10  O46   2.019785 S    
C36   C44   1.343116 D    
C132  C140  1.395146 A    
O34   C50   1.271425 A    
O9    Zn3   2.006475 S    
C78   H22   1.076298 S    
C80   C88   1.387582 A    
C161  C169  1.392195 A    
C136  C144  1.395135 A    
C141  C155  1.401755 A    
C188  H56   1.082841 S    
C21   C49   1.436481 S    
Zn6   O42   2.019785 S    
C163  C179  1.399517 A    
C151  O59   1.349959 S    
C139  C149  1.401789 A    
C41   O77   1.394451 S    
C157  C165  1.392167 A    
C42   O78   1.394497 S    
