data_mof_unit_64259.cif
_audit_creation_date              2012-12-10T16:44:38-0500
_audit_creation_method            fapswitch 2.2
_symmetry_space_group_name_H-M    P1
_symmetry_Int_Tables_number       1
_space_group_crystal_system       triclinic
_cell_length_a                    18.385151
_cell_length_b                    18.498413
_cell_length_c                    18.418682
_cell_angle_alpha                 119.894082
_cell_angle_beta                  119.616807
_cell_angle_gamma                 90.314173
_cell_volume                      4449.89694683

loop_
_atom_site_label
_atom_site_type_symbol
_atom_type_description
_atom_site_fract_x
_atom_site_fract_y
_atom_site_fract_z
_atom_type_partial_charge
C1    C     C_R   0.138564 0.361632 0.001394 0.843897
C2    C     C_R   0.782637 0.417574 0.250659 -0.160645
C3    C     C_R   0.786952 0.468305 0.216310 -0.221445
C4    C     C_R   0.860967 0.638129 0.999751 0.855707
C5    C     C_R   0.786179 0.431004 0.128836 -0.126987
C6    C     C_2   0.718834 0.774514 0.937366 -0.127157
C7    C     C_2   0.697796 0.809905 0.004979 -0.299419
C8    C     C_2   0.778339 0.721706 0.940793 -0.139373
C9    C     C_2   0.802392 0.690314 0.998110 -0.293459
C10   C     C_2   0.731177 0.279094 0.443150 -0.099968
C11   C     C_2   0.703319 0.190893 0.386593 -0.277161
C12   C     C_R   0.742457 0.067546 0.900843 -0.001469
C13   C     C_2   0.796734 0.330310 0.553958 0.336869
C14   C     C_2   0.792682 0.308807 0.612928 -0.254543
C15   C     C_2   0.333448 0.277640 0.060528 -0.263778
C16   C     C_R   0.138641 0.640789 0.277340 0.793131
C17   C     C_2   0.305357 0.191848 0.984165 0.279799
C18   C     C_2   0.280038 0.335454 0.053827 -0.120404
C19   C     C_2   0.192758 0.305810 0.008866 -0.209912
C20   C     C_2   0.219121 0.801122 0.966288 0.425990
C21   C     C_2   0.303266 0.803916 0.997033 -0.376785
C22   C     C_2   0.162440 0.736618 0.956225 -0.178315
C23   C     C_R   0.742818 0.156557 0.950725 0.007277
C24   C     C_2   0.196390 0.703560 0.011045 -0.358837
C25   C     C_2   0.219392 0.777695 0.556247 -0.085156
C26   C     C_2   0.307635 0.797854 0.612604 -0.249864
C27   C     C_2   0.166246 0.715701 0.444464 -0.234784
C28   C     C_R   0.860949 0.361722 0.722803 0.858383
C29   C     C_2   0.193322 0.711250 0.386730 -0.150700
C30   C     C_R   0.640012 0.138079 0.276764 0.911430
C31   C     C_R   0.361616 0.859999 0.722892 0.858633
C32   C     C_R   0.639042 0.861823 0.000351 0.856510
C33   C     C_R   0.361289 0.138265 0.998118 0.789608
C34   C     C_R   0.764089 0.210155 0.925201 0.047308
C35   C     C_R   0.359942 0.861603 0.000925 0.893283
C36   C     C_R   0.648610 0.139341 0.008136 0.876591
C37   C     C_R   0.139845 0.640802 0.001420 0.904435
C38   C     C_R   0.854472 0.359882 0.995678 0.803363
C39   C     C_R   0.753602 0.167846 0.830496 -0.102207
C40   C     C_R   0.737936 0.077368 0.772335 -0.135258
C41   C     C_R   0.736632 0.028285 0.809497 -0.185131
C42   C     C_2   0.713357 0.242471 0.574561 0.847982
C43   C     C_2   0.269609 0.781838 0.426047 0.914484
C44   C     C_2   0.761430 0.019161 0.949545 0.964055
C45   C     C_R   0.722183 0.193749 0.023813 -0.109102
C46   C     C_R   0.755695 0.286450 0.095948 -0.017613
C47   C     C_R   0.779269 0.341054 0.072629 0.032181
C48   C     C_R   0.793065 0.303702 0.993291 -0.169966
C49   C     C_R   0.768156 0.327142 0.192072 0.432436
Cl1   Cl    Cl    0.885794 0.417104 0.603327 -0.539388
Cl2   Cl    Cl    0.208361 0.141728 0.858908 -0.556447
Cl3   Cl    Cl    0.170186 0.872653 0.935773 -0.538276
Cl4   Cl    Cl    0.783742 0.271886 0.251250 -0.568850
H1    H     H_    0.794096 0.537608 0.259520 0.172505
H2    H     H_    0.159715 0.238866 0.978238 0.203565
H3    H     H_    0.331480 0.759435 0.015654 0.128417
H4    H     H_    0.091045 0.718192 0.904676 0.220784
H5    H     H_    0.266909 0.726024 0.068827 0.165590
H6    H     H_    0.184662 0.803038 0.592272 0.194285
H7    H     H_    0.341728 0.767615 0.577050 0.154292
H8    H     H_    0.103387 0.669315 0.408874 0.182547
H9    H     H_    0.731141 0.046100 0.700548 0.177713
H10   H     H_    0.733187 0.960001 0.767880 0.187608
H11   H     H_    0.790848 0.448710 0.323206 0.187353
H12   H     H_    0.724572 0.802882 0.067352 0.158347
H13   H     H_    0.787159 0.472863 0.104221 0.180258
H14   H     H_    0.692607 0.785184 0.877516 0.215876
H15   H     H_    0.579880 0.187856 0.485085 0.352618
H16   H     H_    0.339301 0.912120 0.517272 0.348741
H17   H     H_    0.810505 0.025188 0.078359 0.346057
H18   H     H_    0.801653 0.707207 0.892695 0.193516
H19   H     H_    0.777919 0.700432 0.043962 0.153134
H20   H     H_    0.710823 0.314360 0.407604 0.207431
H21   H     H_    0.729127 0.155954 0.421828 0.155874
H22   H     H_    0.398788 0.307397 0.131654 0.162722
H23   H     H_    0.314075 0.404398 0.091455 0.181331
H24   H     H_    0.754591 0.203561 0.798909 0.185395
O1    O     O_3   0.000000 0.500000 0.000000 -0.510668
O2    O     O_R   0.325040 0.054120 0.939900 -0.574044
O3    O     O_R   0.444330 0.884140 0.060080 -0.651147
O4    O     O_R   0.054210 0.325030 0.939940 -0.619414
O5    O     O_R   0.615830 0.175840 0.060080 -0.610453
O6    O     O_R   0.324160 0.884140 0.939910 -0.583591
O7    O     O_R   0.615850 0.055700 0.939930 -0.653784
O8    O     O_R   0.614980 0.885710 0.939940 -0.622539
O9    O     O_R   0.445830 0.174930 0.060060 -0.668307
O10   O     O_R   0.614300 0.054120 0.229160 -0.642680
O11   O     O_R   0.325070 0.885060 0.770830 -0.630611
O12   O     O_R   0.054160 0.614240 0.229150 -0.640257
O13   O     O_R   0.885070 0.614240 0.060060 -0.650011
O14   O     O_R   0.174980 0.614900 0.229170 -0.600378
O15   O     O_R   0.885740 0.445830 0.770840 -0.595871
O16   O     O_R   0.175880 0.615810 0.060090 -0.635795
O17   O     O_R   0.884210 0.324110 0.939920 -0.637419
O18   O     O_R   0.055710 0.615810 0.939920 -0.624413
O19   O     O_R   0.884190 0.444260 0.060070 -0.652853
O20   O     O_2   0.722673 0.196760 0.606726 -0.607267
O21   O     O_R   0.627989 0.234654 0.504614 -0.797509
O22   O     O_2   0.316444 0.762573 0.394564 -0.599557
O23   O     O_R   0.885120 0.325030 0.770840 -0.612014
O24   O     O_R   0.286077 0.870597 0.496791 -0.776552
O25   O     O_2   0.743986 0.938920 0.898178 -0.639185
O26   O     O_R   0.801320 0.065514 0.054679 -0.784509
O27   O     O_R   0.175010 0.445830 0.060100 -0.643765
O28   O     O_R   0.885710 0.614900 0.939900 -0.637403
O29   O     O_3   0.500040 0.999960 0.000000 -0.517229
O30   O     O_R   0.614930 0.174930 0.229160 -0.611027
O31   O     O_R   0.445880 0.885710 0.770850 -0.640299
O32   O     O_R   0.614330 0.885060 0.060100 -0.641716
Zn1   Zn    Zn3+2 0.956610 0.542450 0.085830 0.968450
Zn2   Zn    Zn3+2 0.129220 0.543380 0.085850 1.017563
Zn3   Zn    Zn3+2 0.957530 0.543380 0.914160 1.023751
Zn4   Zn    Zn3+2 0.956640 0.370790 0.914170 1.017345
Zn5   Zn    Zn3+2 0.543440 0.957510 0.914170 1.010905
Zn6   Zn    Zn3+2 0.542510 0.956570 0.085840 0.995701
Zn7   Zn    Zn3+2 0.370820 0.956570 0.914150 1.056686
Zn8   Zn    Zn3+2 0.543410 0.129170 0.085830 1.024951

loop_
_geom_bond_atom_site_label_1
_geom_bond_atom_site_label_2
_ccdc_geom_bond_type
C15   C18   S    
C15   H22   S    
C4    C9    S    
C23   C45   A    
C30   O30   A    
C27   C29   D    
C31   O31   A    
C9    H19   S    
C17   Cl2   S    
C22   H4    S    
C45   C46   A    
C5    C47   A    
C46   C49   A    
O29   Zn5   S    
C39   H24   S    
O8    Zn5   S    
C43   O22   D    
O18   Zn3   S    
C42   O21   S    
C3    H1    S    
C1    O4    A    
C35   O3    A    
C40   H9    S    
C37   O18   A    
C18   C19   D    
O31   Zn5   S    
C27   H8    S    
C44   O26   S    
C11   C30   S    
C36   O5    A    
C8    C9    D    
C35   O6    A    
C18   H23   S    
O1    Zn2   S    
C31   O11   A    
O10   Zn6   S    
C14   C42   S    
C28   O23   A    
C26   C31   S    
O2    Zn7   S    
C29   C43   S    
C21   H3    S    
C17   C33   S    
O17   Zn4   S    
C2    H11   S    
C4    O13   A    
C1    C19   S    
C32   O32   A    
C34   C39   A    
O1    Zn1   S    
C42   O20   D    
C39   C40   A    
C44   O25   D    
H17   O26   S    
O15   Zn3   S    
C6    C8    S    
C16   C29   S    
O19   Zn1   S    
O12   Zn1   S    
C10   C13   S    
O29   Zn7   S    
O11   Zn7   S    
C33   O9    A    
C43   O24   S    
C12   C41   A    
C2    C49   A    
C7    H12   S    
C47   C48   A    
C12   C23   A    
O3    Zn6   S    
C23   C34   A    
C38   O17   A    
C24   C37   S    
C37   O16   A    
C36   C45   S    
C28   O15   A    
C1    O27   A    
O16   Zn2   S    
C6    H14   S    
O28   Zn3   S    
C20   C22   S    
O29   Zn8   S    
C22   C24   D    
O1    Zn4   S    
C34   C48   A    
C41   H10   S    
O4    Zn4   S    
C19   H2    S    
C15   C17   D    
C46   C47   A    
C40   C41   A    
C8    H18   S    
O7    Zn5   S    
C7    C32   S    
C38   C48   S    
O6    Zn7   S    
C33   O2    A    
O23   Zn4   S    
C5    H13   S    
C3    C5    A    
C11   H21   S    
O27   Zn2   S    
C6    C7    D    
C21   C35   S    
H16   O24   S    
C25   C27   S    
C4    O28   A    
O29   Zn6   S    
C2    C3    A    
C25   C26   D    
C20   Cl3   S    
C36   O7    A    
C49   Cl4   S    
C32   O8    A    
C10   H20   S    
O9    Zn8   S    
H15   O21   S    
C10   C11   D    
O32   Zn6   S    
O14   Zn2   S    
C13   Cl1   S    
C16   O12   A    
C20   C21   D    
C16   O14   A    
C24   H5    S    
C38   O19   A    
O13   Zn1   S    
C12   C44   S    
O1    Zn3   S    
C25   H6    S    
O5    Zn8   S    
C14   C28   S    
C30   O10   A    
C13   C14   D    
C26   H7    S    
O30   Zn8   S    
