data_mof_unit_55031.cif
_audit_creation_date              2012-12-10T17:31:20-0500
_audit_creation_method            fapswitch 2.2
_symmetry_space_group_name_H-M    P1
_symmetry_Int_Tables_number       1
_space_group_crystal_system       triclinic
_cell_length_a                    19.051699
_cell_length_b                    18.619349
_cell_length_c                    12.416492
_cell_angle_alpha                 90.32385
_cell_angle_beta                  130.233651
_cell_angle_gamma                 89.727528
_cell_volume                      3362.41598159

loop_
_atom_site_label
_atom_site_type_symbol
_atom_type_description
_atom_site_fract_x
_atom_site_fract_y
_atom_site_fract_z
_atom_type_partial_charge
C1    C     C_R   0.613780 0.899439 0.654996 0.852941
C2    C     C_R   0.613596 0.100559 0.654628 0.828521
C3    C     C_R   0.113780 0.399439 0.654996 0.852940
C4    C     C_R   0.113596 0.600559 0.654628 0.828521
C5    C     C_R   0.250445 0.765298 0.051403 0.052840
C6    C     C_R   0.252813 0.238888 0.058635 0.022290
C7    C     C_R   0.750445 0.265298 0.051403 0.052840
C8    C     C_R   0.752813 0.738888 0.058635 0.022289
C9    C     C_R   0.665179 0.267405 0.022191 -0.008246
C10   C     C_R   0.668385 0.738487 0.031942 0.068897
C11   C     C_R   0.165179 0.767405 0.022191 -0.008246
C12   C     C_R   0.168385 0.238487 0.031942 0.068896
C13   C     C_R   0.585901 0.240645 0.894063 0.407672
C14   C     C_R   0.589148 0.766416 0.905519 0.411956
C15   C     C_R   0.085901 0.740645 0.894063 0.407674
C16   C     C_R   0.089148 0.266416 0.905519 0.411955
C17   C     C_R   0.593214 0.211162 0.798187 -0.275318
C18   C     C_R   0.595284 0.793743 0.807437 -0.240142
C19   C     C_R   0.093214 0.711162 0.798187 -0.275319
C20   C     C_R   0.095284 0.293743 0.807437 -0.240142
C21   C     C_R   0.319817 0.811403 0.155458 -0.191525
C22   C     C_R   0.321745 0.191599 0.160581 -0.293845
C23   C     C_R   0.819817 0.311403 0.155458 -0.191525
C24   C     C_R   0.821745 0.691599 0.160580 -0.293843
C25   C     C_R   0.235057 0.836545 0.235858 0.371051
C26   C     C_R   0.238506 0.168342 0.243644 0.368424
C27   C     C_R   0.735056 0.336545 0.235858 0.371051
C28   C     C_R   0.738507 0.668343 0.243645 0.368426
C29   C     C_R   0.686692 0.151866 0.753010 -0.104967
C30   C     C_R   0.687522 0.848943 0.756179 -0.103239
C31   C     C_R   0.186692 0.651866 0.753010 -0.104967
C32   C     C_R   0.187522 0.348943 0.756179 -0.103239
C33   C     C_R   0.668370 0.935263 0.286043 -0.091775
C34   C     C_R   0.168370 0.435262 0.286043 -0.091775
C35   C     C_R   0.342741 0.007640 0.623302 -0.002649
C36   C     C_R   0.842741 0.507640 0.623302 -0.002647
C37   C     C_R   0.304977 0.998737 0.687776 -0.221740
C38   C     C_R   0.804978 0.498737 0.687776 -0.221739
C39   C     C_R   0.384918 0.099926 0.344028 0.820565
C40   C     C_R   0.384368 0.900824 0.342854 0.820295
C41   C     C_R   0.884919 0.599926 0.344028 0.820565
C42   C     C_R   0.884368 0.400824 0.342854 0.820295
C43   C     C_R   0.360782 0.982918 0.831277 0.505448
C44   C     C_R   0.860782 0.482918 0.831277 0.505448
C45   C     C_R   0.458157 0.984315 0.916578 -0.085325
C46   C     C_R   0.958156 0.484315 0.916578 -0.085324
C47   C     C_R   0.493822 0.987620 0.844443 0.052649
C48   C     C_R   0.993821 0.487620 0.844443 0.052649
C49   C     C_R   0.521738 0.979830 0.069613 -0.117290
C50   C     C_R   0.021738 0.479830 0.069613 -0.117290
C51   C     C_R   0.609608 0.948985 0.138542 -0.120223
C52   C     C_R   0.109607 0.448985 0.138542 -0.120224
C53   C     C_R   0.639332 0.939587 0.060464 0.313817
C54   C     C_R   0.139332 0.439587 0.060464 0.313817
C55   C     C_R   0.589947 0.973265 0.928573 0.001087
C56   C     C_R   0.089947 0.473265 0.928573 0.001088
C57   C     C_R   0.502412 0.005982 0.156709 0.554500
C58   C     C_R   0.002412 0.505982 0.156709 0.554502
C59   C     C_R   0.647489 0.966339 0.365158 0.019630
C60   C     C_R   0.147489 0.466339 0.365158 0.019631
C61   C     C_R   0.660067 0.299808 0.119010 -0.080794
C62   C     C_R   0.663933 0.706592 0.129337 -0.143607
C63   C     C_R   0.160067 0.799809 0.119010 -0.080793
C64   C     C_R   0.163932 0.206591 0.129336 -0.143608
C65   C     C_R   0.313389 0.847374 0.247689 -0.164169
C66   C     C_R   0.315344 0.155284 0.252094 -0.151404
C67   C     C_R   0.813389 0.347374 0.247689 -0.164170
C68   C     C_R   0.815344 0.655284 0.252095 -0.151406
C69   C     C_R   0.770878 0.144115 0.783429 -0.247273
C70   C     C_R   0.771936 0.856628 0.787741 -0.293940
C71   C     C_R   0.270878 0.644115 0.783429 -0.247273
C72   C     C_R   0.271936 0.356628 0.787742 -0.293941
C73   C     C_R   0.352146 0.668129 0.912187 0.413257
C74   C     C_R   0.353542 0.335219 0.918833 0.506988
C75   C     C_R   0.852146 0.168129 0.912187 0.413257
C76   C     C_R   0.853542 0.835218 0.918832 0.506986
C77   C     C_R   0.348287 0.701641 0.010063 -0.040212
C78   C     C_R   0.349784 0.302032 0.016945 -0.031261
C79   C     C_R   0.848287 0.201641 0.010063 -0.040213
C80   C     C_R   0.849784 0.802030 0.016944 -0.031260
C81   C     C_R   0.760910 0.222201 0.967854 0.010137
C82   C     C_R   0.762616 0.781386 0.974202 -0.022189
C83   C     C_R   0.260910 0.722201 0.967854 0.010137
C84   C     C_R   0.262616 0.281386 0.974203 -0.022189
C85   C     C_R   0.679871 0.196091 0.837995 -0.002043
C86   C     C_R   0.681361 0.807174 0.844288 0.073083
C87   C     C_R   0.179872 0.696091 0.837995 -0.002044
C88   C     C_R   0.181361 0.307175 0.844288 0.073083
Cu1   Cu    Cu3+1 0.526340 0.000000 0.421010 0.961713
Cu2   Cu    Cu3+1 0.026340 0.500000 0.421010 0.961713
Cu3   Cu    Cu3+1 0.473640 0.000000 0.578990 0.958314
Cu4   Cu    Cu3+1 0.973640 0.500000 0.578990 0.958314
H1    H     H_    0.297526 0.015923 0.510591 0.207586
H2    H     H_    0.797526 0.515923 0.510591 0.207585
H3    H     H_    0.230914 0.999048 0.623402 0.193959
H4    H     H_    0.730914 0.499048 0.623402 0.193960
H5    H     H_    0.597764 0.296989 0.104295 0.275608
H6    H     H_    0.602441 0.710874 0.117066 0.224685
H7    H     H_    0.097764 0.796989 0.104295 0.275609
H8    H     H_    0.102440 0.210873 0.117064 0.224687
H9    H     H_    0.377694 0.822206 0.160838 0.156567
H10   H     H_    0.378933 0.179948 0.164360 0.209090
H11   H     H_    0.877694 0.322206 0.160838 0.156566
H12   H     H_    0.878932 0.679947 0.164358 0.209093
H13   H     H_    0.775064 0.111632 0.715030 0.157562
H14   H     H_    0.775821 0.887738 0.718234 0.167174
H15   H     H_    0.275064 0.611632 0.715030 0.157562
H16   H     H_    0.275821 0.387738 0.718235 0.167174
H17   H     H_    0.530468 0.197412 0.693854 0.150325
H18   H     H_    0.531893 0.806402 0.703254 0.141243
H19   H     H_    0.030468 0.697412 0.693854 0.150325
H20   H     H_    0.031893 0.306401 0.703253 0.141243
H21   H     H_    0.693098 0.957843 0.477706 0.182129
H22   H     H_    0.193097 0.457843 0.477706 0.182129
N1    N     N_R   0.566260 0.000000 0.302220 -0.238229
N2    N     N_R   0.066260 0.500000 0.302220 -0.238229
N3    N     N_R   0.434410 0.000000 0.697680 -0.207813
N4    N     N_R   0.934410 0.500000 0.697680 -0.207813
O1    O     O_R   0.608610 0.924520 0.551740 -0.602299
O2    O     O_R   0.608610 0.075480 0.551740 -0.571103
O3    O     O_R   0.108610 0.424520 0.551740 -0.602300
O4    O     O_R   0.108610 0.575480 0.551740 -0.571102
O5    O     O_R   0.564110 0.924510 0.685150 -0.565910
O6    O     O_R   0.564110 0.075490 0.685150 -0.601982
O7    O     O_R   0.064110 0.424510 0.685150 -0.565909
O8    O     O_R   0.064110 0.575490 0.685150 -0.601983
O9    O     O_R   0.435880 0.075470 0.314850 -0.561707
O10   O     O_R   0.435880 0.924530 0.314850 -0.609223
O11   O     O_R   0.935880 0.575470 0.314850 -0.561706
O12   O     O_R   0.935880 0.424530 0.314850 -0.609223
O13   O     O_R   0.391380 0.075460 0.448260 -0.588108
O14   O     O_R   0.391380 0.924540 0.448260 -0.579026
O15   O     O_R   0.891380 0.575460 0.448260 -0.588109
O16   O     O_R   0.891380 0.424540 0.448260 -0.579026
O17   O     O_3   0.226103 0.865542 0.328583 -0.674713
H23   H     H_    0.282255 0.852318 0.424700 0.334566
O18   O     O_3   0.230765 0.140690 0.338006 -0.711686
H24   H     H_    0.288331 0.152960 0.433575 0.329591
O19   O     O_3   0.726102 0.365542 0.328583 -0.674711
H25   H     H_    0.782255 0.352318 0.424700 0.334566
O20   O     O_3   0.730767 0.640692 0.338009 -0.711688
H26   H     H_    0.788334 0.652961 0.433577 0.329592
O21   O     O_3   0.727377 0.916710 0.124327 -0.724915
H27   H     H_    0.769826 0.951204 0.201829 0.335930
O22   O     O_3   0.227377 0.416710 0.124327 -0.724915
H28   H     H_    0.269825 0.451204 0.201829 0.335930
C89   C     C_2   0.746671 0.883793 0.358946 0.362156
H29   H     H_    0.748433 0.841665 0.300122 0.127989
O23   O     O_2   0.809093 0.886639 0.486512 -0.555741
C90   C     C_2   0.246670 0.383793 0.358945 0.362155
H30   H     H_    0.248433 0.341665 0.300121 0.127988
O24   O     O_2   0.309092 0.386639 0.486512 -0.555741
O25   O     O_3   0.421260 0.041280 0.094719 -0.690241
H31   H     H_    0.388867 0.012715 0.117758 0.357763
O26   O     O_3   0.921260 0.541280 0.094719 -0.690241
H32   H     H_    0.888867 0.512715 0.117758 0.357762
O27   O     O_3   0.317053 0.956729 0.877986 -0.704292
H33   H     H_    0.359011 0.922173 0.955127 0.308925
O28   O     O_3   0.817053 0.456729 0.877986 -0.704292
H34   H     H_    0.859011 0.422173 0.955127 0.308925
C91   C     C_2   0.650093 0.020788 0.926559 0.510186
H35   H     H_    0.643532 0.078196 0.932037 0.047565
O29   O     O_2   0.711616 0.997089 0.930415 -0.523443
C92   C     C_2   0.150093 0.520788 0.926559 0.510187
H36   H     H_    0.143532 0.578196 0.932037 0.047565
O30   O     O_2   0.211616 0.497089 0.930415 -0.523443
O31   O     O_3   0.501740 0.246895 0.861637 -0.706736
H37   H     H_    0.453493 0.224646 0.768152 0.330780
O32   O     O_3   0.505886 0.763026 0.876398 -0.732784
H38   H     H_    0.457832 0.786686 0.784709 0.324306
O33   O     O_3   0.001740 0.746895 0.861637 -0.706734
H39   H     H_    0.953494 0.724646 0.768153 0.330780
O34   O     O_3   0.005885 0.263026 0.876397 -0.732783
H40   H     H_    0.957832 0.286685 0.784708 0.324306
C93   C     C_2   0.435338 0.702704 0.159086 0.405134
H41   H     H_    0.500276 0.712982 0.183404 0.117856
O35   O     O_2   0.435834 0.688234 0.255388 -0.530624
C94   C     C_2   0.434645 0.301275 0.168269 0.448029
H42   H     H_    0.429397 0.306284 0.249975 0.069890
O36   O     O_2   0.510814 0.294677 0.203646 -0.479898
C95   C     C_2   0.935338 0.202704 0.159086 0.405135
H43   H     H_    0.000276 0.212983 0.183403 0.117855
O37   O     O_2   0.935835 0.188234 0.255388 -0.530624
C96   C     C_2   0.934646 0.801273 0.168267 0.448029
H44   H     H_    0.929397 0.806285 0.249973 0.069890
O38   O     O_2   0.010813 0.794669 0.203642 -0.479901
O39   O     O_3   0.436692 0.651772 0.951226 -0.716657
H45   H     H_    0.427510 0.627626 0.871547 0.349249
O40   O     O_3   0.437662 0.353489 0.958645 -0.658671
H46   H     H_    0.428250 0.377220 0.878848 0.347058
O41   O     O_3   0.936692 0.151772 0.951226 -0.716658
H47   H     H_    0.927510 0.127626 0.871547 0.349250
O42   O     O_3   0.937661 0.853488 0.958644 -0.658673
H48   H     H_    0.928250 0.877220 0.878847 0.347058

loop_
_geom_bond_atom_site_label_1
_geom_bond_atom_site_label_2
_ccdc_geom_bond_type
C16   O34   S    
C61   H5    S    
C83   C87   A    
O33   H39   S    
Cu1   N1    S    
O27   H33   S    
C8    C24   A    
C71   H15   S    
O32   H38   S    
C14   C18   A    
C53   C55   A    
C60   H22   S    
C89   H29   S    
C34   C60   A    
C25   C63   A    
C26   O18   S    
Cu4   O7    S    
C41   O15   A    
O22   H28   S    
C34   C90   S    
C24   H12   S    
O17   H23   S    
C93   O35   D    
O34   H40   S    
C15   C19   A    
C18   C86   A    
C39   O13   A    
C2    C29   S    
C9    C61   A    
C47   C55   A    
C92   H36   S    
C28   C68   A    
C5    C11   A    
C19   C87   A    
C6    C12   A    
C12   C64   A    
C13   O31   S    
Cu3   O13   S    
C77   C83   A    
O21   H27   S    
C6    C22   A    
C49   C57   A    
C96   H44   S    
C37   H3    S    
C48   C56   A    
C1    O1    A    
C23   C67   A    
C76   O42   S    
C59   N1    A    
Cu4   N4    S    
C22   C66   A    
C9    C13   A    
C27   C61   A    
C91   O29   D    
C20   H20   S    
Cu2   O11   S    
C11   C15   A    
C23   H11   S    
Cu4   O15   S    
C44   C46   A    
C49   C51   A    
C50   C52   A    
C76   C80   A    
Cu3   N3    S    
C5    C83   A    
Cu2   N2    S    
C30   C86   A    
C33   C89   S    
C29   C85   A    
C16   C20   A    
C21   H9    S    
C45   C47   A    
C40   O14   A    
C77   C93   S    
C62   H6    S    
C58   N2    A    
Cu2   O4    S    
C10   C62   A    
C14   O32   S    
C12   C16   A    
C21   C65   A    
C30   C70   A    
C52   C54   A    
C94   H42   S    
C41   C68   S    
C29   C69   A    
C35   H1    S    
C35   N3    A    
C46   C48   A    
C6    C84   A    
C4    O4    A    
O41   H47   S    
C26   C66   A    
Cu1   O1    S    
C31   C87   A    
C55   C91   S    
C72   C74   A    
C10   C14   A    
C95   O37   D    
O31   H37   S    
C79   C81   A    
C2    O2    A    
C48   N4    A    
Cu3   O14   S    
C57   N1    A    
C95   H43   S    
C57   O25   S    
C27   O19   S    
C79   C95   S    
Cu4   O8    S    
C53   O21   S    
C39   O9    A    
C84   C88   A    
C37   C43   A    
C75   O41   S    
C1    O5    A    
C26   C64   A    
C38   C44   A    
C36   H2    S    
C41   O11   A    
C74   O40   S    
Cu2   Cu4   S    
O28   H34   S    
Cu1   O2    S    
C45   C49   A    
C59   H21   S    
C50   C58   A    
C15   O33   S    
C42   O12   A    
C43   C45   A    
C8    C82   A    
C54   O22   S    
C8    C10   A    
C7    C81   A    
C2    O6    A    
C40   C65   S    
C70   H14   S    
C42   C67   S    
Cu2   O3    S    
C17   C85   A    
C60   N2    A    
C32   C88   A    
Cu1   Cu3   S    
C36   N4    A    
C35   C37   A    
C71   C73   A    
Cu1   O9    S    
O40   H46   S    
C7    C9    A    
C46   C50   A    
C44   O28   S    
C69   H13   S    
C89   O23   D    
C78   C94   S    
Cu4   O16   S    
C18   H18   S    
C43   O27   S    
C17   H17   S    
C94   O36   D    
O19   H25   S    
C3    O7    A    
C54   C56   A    
C19   H19   S    
C33   C51   A    
C63   H7    S    
O18   H24   S    
C56   C92   S    
C34   C52   A    
C22   H10   S    
C73   O39   S    
C4    O8    A    
Cu3   O6    S    
C36   C38   A    
C64   H8    S    
O39   H45   S    
C93   H41   S    
C82   C86   A    
O20   H26   S    
C70   C76   A    
C91   H35   S    
C7    C23   A    
C20   C88   A    
C92   O30   D    
C1    C30   S    
C39   C66   S    
C80   C82   A    
C96   O38   D    
C42   O16   A    
C69   C75   A    
C90   O24   D    
C80   C96   S    
C72   H16   S    
C3    C32   S    
C25   O17   S    
C4    C31   S    
C27   C67   A    
C58   O26   S    
C24   C68   A    
C13   C17   A    
Cu2   O12   S    
C78   C84   A    
C47   N3    A    
C5    C21   A    
C33   C59   A    
O42   H48   S    
C74   C78   A    
C38   H4    S    
O26   H32   S    
C25   C65   A    
C73   C77   A    
C90   H30   S    
Cu3   O5    S    
C28   O20   S    
C51   C53   A    
O25   H31   S    
C11   C63   A    
C75   C79   A    
C81   C85   A    
C3    O3    A    
C28   C62   A    
C31   C71   A    
C32   C72   A    
Cu1   O10   S    
C40   O10   A    
