data_mof_unit_32503.cif
_audit_creation_date              2013-03-05T16:33:14-0500
_audit_creation_method            fapswitch 2.2
_symmetry_space_group_name_H-M    P1
_symmetry_Int_Tables_number       1
_space_group_crystal_system       triclinic
_cell_length_a                    27.792544
_cell_length_b                    10.789578
_cell_length_c                    9.568008
_cell_angle_alpha                 90.045149
_cell_angle_beta                  90.300163
_cell_angle_gamma                 90.752191
_cell_volume                      2868.86918112

loop_
_atom_site_label
_atom_site_type_symbol
_atom_site_description
_atom_site_fract_x
_atom_site_fract_y
_atom_site_fract_z
_atom_type_partial_charge
O1    O     O_R   0.500000 0.319640 0.618810 -0.569514
O2    O     O_R   0.500010 0.319680 0.381230 -0.582409
C1    C     C_R   0.502830 0.262744 0.500017 0.789041
O3    O     O_R   0.430260 0.500000 0.618780 -0.591697
O4    O     O_R   0.430270 0.500040 0.381190 -0.558570
C2    C     C_R   0.407497 0.500673 0.499712 0.810565
Cu1   Cu    Cu3+1 0.500000 0.499980 0.640670 0.958584
Cu2   Cu    Cu3+1 0.500000 0.500020 0.359330 0.977538
O5    O     O_R   0.499990 0.680320 0.618770 -0.571900
O6    O     O_R   0.500000 0.680360 0.381190 -0.581874
O7    O     O_R   0.569730 0.499960 0.618810 -0.586283
O8    O     O_R   0.569740 0.500000 0.381220 -0.590162
C3    C     C_R   0.500739 0.737632 0.500195 0.816889
C4    C     C_R   0.592503 0.498710 0.500173 0.810255
C5    C     C_R   0.177454 0.395565 0.517726 0.545057
O9    O     O_2   0.201961 0.290830 0.543739 -0.523546
N1    N     N_R   0.201886 0.504631 0.495488 -0.468168
C6    C     C_R   0.178033 0.611970 0.467169 0.551445
C7    C     C_R   0.279087 0.528739 0.374228 -0.102276
C8    C     C_R   0.329225 0.527693 0.375018 -0.162032
C9    C     C_R   0.328755 0.480507 0.622865 -0.219914
C10   C     C_R   0.278565 0.481778 0.621866 -0.092122
C11   C     C_R   0.253538 0.505555 0.497471 0.341711
C12   C     C_R   0.101713 0.501131 0.482429 -0.041805
C13   C     C_R   0.126986 0.391724 0.511637 -0.026808
C14   C     C_R   0.101491 0.280969 0.533442 -0.118656
C15   C     C_R   0.127534 0.612076 0.459428 -0.045997
C16   C     C_R   0.354532 0.502790 0.499158 -0.044657
H1    H     H_    0.347314 0.461223 0.720108 0.164739
H2    H     H_    0.259072 0.464082 0.717649 0.150358
H3    H     H_    0.120022 0.195943 0.558057 0.199774
C17   C     C_R   0.645471 0.495560 0.499038 -0.033031
C18   C     C_R   0.974426 0.382888 0.478831 0.049018
C19   C     C_R   0.974870 0.610418 0.472069 0.071551
C20   C     C_R   0.949281 0.495772 0.476177 0.076560
C21   C     C_R   0.947974 0.271079 0.466036 -0.273633
C22   C     C_R   0.897735 0.268866 0.458962 -0.014852
C23   C     C_R   0.872080 0.380838 0.475682 -0.030442
C24   C     C_R   0.898226 0.494378 0.480681 -0.061294
C25   C     C_R   0.873403 0.607155 0.491734 -0.017881
C26   C     C_R   0.823060 0.605791 0.493619 0.596111
N2    N     N_R   0.798247 0.495779 0.491687 -0.457969
C27   C     C_R   0.821461 0.384719 0.490640 0.597230
C28   C     C_R   0.719912 0.458653 0.371552 0.014283
C29   C     C_R   0.669509 0.456232 0.378546 -0.207075
C30   C     C_R   0.672360 0.533747 0.615900 -0.191927
C31   C     C_R   0.722440 0.533447 0.612108 -0.090735
C32   C     C_R   0.746551 0.496747 0.490904 0.275243
O10   O     O_2   0.795464 0.279579 0.508034 -0.489292
C33   C     C_R   0.025281 0.385348 0.492465 0.051692
C34   C     C_R   0.050732 0.499382 0.475975 0.059043
C35   C     C_R   0.025594 0.611284 0.452246 -0.026072
C36   C     C_R   0.051596 0.277597 0.524033 -0.175970
H4    H     H_    0.648875 0.424870 0.288821 0.168737
H5    H     H_    0.966014 0.183944 0.451734 0.145515
H6    H     H_    0.034376 0.189751 0.546685 0.161966
O11   O     O_2   0.203132 0.718317 0.446829 -0.526793
C37   C     C_R   0.102796 0.719162 0.422230 -0.182213
H7    H     H_    0.348102 0.547096 0.278654 0.189791
H8    H     H_    0.260003 0.547061 0.277620 0.149738
H9    H     H_    0.122878 0.802093 0.393687 0.216678
C38   C     C_R   0.949158 0.719997 0.496689 -0.147000
C39   C     C_R   0.899282 0.718764 0.503198 -0.129472
O12   O     O_2   0.798969 0.713574 0.496947 -0.508735
C40   C     C_R   0.052539 0.718805 0.411004 -0.035857
H10   H     H_    0.967216 0.807742 0.515142 0.139099
H11   H     H_    0.654822 0.565528 0.709511 0.155309
H12   H     H_    0.881100 0.805886 0.518645 0.183605
H13   H     H_    0.742740 0.562405 0.703656 0.158323
C41   C     C_R   0.496496 0.064114 0.621535 0.155823
C42   C     C_R   0.509814 0.129842 0.501895 -0.192350
C43   C     C_R   0.530187 0.063971 0.388495 -0.041093
C44   C     C_R   0.526486 0.933959 0.388362 -0.180205
H14   H     H_    0.539343 0.881962 0.300015 0.219079
C45   C     C_R   0.505916 0.870876 0.501946 -0.152914
C46   C     C_R   0.495119 0.937035 0.622256 0.146803
C47   C     C_3   0.451252 0.932418 0.711721 -0.446165
C48   C     C_3   0.452808 0.073245 0.711100 -0.441807
H15   H     H_    0.419370 0.892353 0.656358 0.197321
H16   H     H_    0.458755 0.891971 0.816305 0.221210
H17   H     H_    0.421819 0.115277 0.655412 0.196372
H18   H     H_    0.461238 0.113888 0.815352 0.226172
C49   C     C_R   0.527503 0.584503 0.074203 0.176035
N3    N     N_R   0.500300 0.500930 0.147930 -0.246005
C50   C     C_R   0.470163 0.422772 0.071932 0.061679
C51   C     C_R   0.470182 0.423996 0.923704 -0.099246
H19   H     H_    0.446889 0.360877 0.865871 0.138999
N4    N     N_R   0.500310 0.500890 0.852020 -0.192405
C52   C     C_R   0.527852 0.582996 0.926563 0.267805
C53   C     C_3   0.581254 0.592408 0.920372 -0.532556
C54   C     C_3   0.581253 0.595985 0.078966 -0.255192
H20   H     H_    0.597549 0.506248 0.879484 0.213226
H21   H     H_    0.593605 0.679021 0.867991 0.220247
H22   H     H_    0.598483 0.513683 0.125985 0.170861
C55   C     C_2   0.030898 0.824608 0.334908 0.819770
O13   O     O_2   0.046681 0.929871 0.352714 -0.608453
O14   O     O_R   0.993417 0.803268 0.239402 -0.737047
H23   H     H_    0.981798 0.882393 0.194045 0.342058
C56   C     C_2   0.555944 0.127191 0.272422 0.496390
H24   H     H_    0.570209 0.220520 0.285471 0.062332
O15   O     O_2   0.562338 0.074812 0.161025 -0.482372
C57   C     C_2   0.438631 0.330575 0.139152 0.883104
O16   O     O_2   0.397367 0.357376 0.168854 -0.613764
O17   O     O_R   0.454461 0.209071 0.155437 -0.752966
H25   H     H_    0.429298 0.153007 0.199833 0.332349
C58   C     C_2   0.598809 0.717408 0.139506 0.900019
O18   O     O_2   0.586488 0.815616 0.087440 -0.558395
O19   O     O_R   0.629731 0.717023 0.255036 -0.756663
H26   H     H_    0.638948 0.803699 0.287273 0.345868
C59   C     C_2   0.743560 0.423997 0.238127 0.902764
O20   O     O_2   0.722253 0.357564 0.153858 -0.573289
O21   O     O_R   0.789616 0.469171 0.206492 -0.747974
H27   H     H_    0.801533 0.438868 0.112668 0.347918
C60   C     C_2   0.874868 0.147630 0.424601 0.498687
H28   H     H_    0.888903 0.063383 0.470444 0.033674
O22   O     O_2   0.842881 0.139588 0.336973 -0.462518

loop_
_geom_bond_atom_site_label_1
_geom_bond_atom_site_label_2
_geom_bond_distance
_ccdc_geom_bond_type
C26   N2    1.364985 A    
C41   C48   1.494082 S    
C17   C29   1.403658 A    
C20   C24   1.419705 A    
C55   O13   1.223590 D    
C12   C15   1.405664 A    
C60   H28   1.085795 S    
Cu1   Cu2   2.691863 S    
C47   C48   1.519535 S    
Cu1   O7    1.950320 S    
N1    C11   1.435481 S    
C25   C39   1.398453 A    
C21   C22   1.397442 A    
C23   C24   1.416773 A    
O7    C4    1.302692 A    
C51   N4    1.359609 A    
C36   H6    1.078841 S    
C58   O18   1.223438 D    
C5    O9    1.349730 S    
C19   C38   1.409795 A    
C18   C21   1.409378 A    
O19   H26   1.013796 S    
Cu1   O5    1.957209 S    
C19   C20   1.419419 A    
C44   H14   1.079182 S    
Cu1   N4    2.022188 S    
O5    C3    1.292665 A    
C59   O20   1.223724 D    
O21   H27   1.013883 S    
C6    O11   1.349751 S    
C39   H12   1.083440 S    
N3    C50   1.384040 A    
C2    C16   1.472496 S    
C3    C45   1.443022 S    
C41   C42   1.396116 A    
C37   H9    1.084250 S    
C14   H3    1.083421 S    
Cu2   N3    2.022770 S    
C9    C10   1.395130 A    
C44   C45   1.403077 A    
C54   C58   1.506330 S    
O3    Cu1   1.948450 S    
O17   H25   1.013826 S    
O14   H23   1.013803 S    
C47   H15   1.112320 S    
C49   C52   1.412778 A    
C33   C36   1.413608 A    
C38   H10   1.079670 S    
C34   C35   1.420673 A    
C31   C32   1.401818 A    
C12   C13   1.408960 A    
O3    C2    1.300279 A    
C24   C25   1.410803 A    
C51   H19   1.083115 S    
C27   O10   1.347850 S    
C22   C60   1.482696 S    
C8    C16   1.405145 A    
C33   C34   1.420464 A    
C18   C33   1.418605 A    
C50   C51   1.418321 A    
C9    H1    1.083109 S    
O6    C3    1.295030 A    
C30   H11   1.079759 S    
O1    C1    1.294616 A    
C1    C42   1.449666 S    
C45   C46   1.390197 A    
C22   C23   1.420249 A    
C48   H18   1.111905 S    
C37   C40   1.400298 A    
C53   H20   1.111156 S    
C49   N3    1.367849 A    
Cu2   O8    1.948444 S    
C38   C39   1.387798 A    
N1    C6    1.368559 A    
N2    C32   1.436933 S    
C46   C47   1.493668 S    
C8    H7    1.082440 S    
C57   O17   1.396877 S    
C25   C26   1.399269 A    
C56   O15   1.220935 D    
C9    C16   1.405999 A    
O8    C4    1.299432 A    
C29   H4    1.081516 S    
C41   C46   1.371183 A    
N2    C27   1.368425 A    
C14   C36   1.389166 A    
C28   C29   1.402660 A    
C7    C11   1.400648 A    
C53   H21   1.111962 S    
C47   H16   1.111818 S    
C5    N1    1.368235 A    
C30   C31   1.392537 A    
C10   H2    1.082865 S    
O1    Cu1   1.956838 S    
C17   C30   1.400333 A    
O2    Cu2   1.957211 S    
C6    C15   1.405071 A    
C4    C17   1.473037 S    
C43   C44   1.405194 A    
C15   C37   1.397599 A    
O4    Cu2   1.950323 S    
C60   O22   1.221000 D    
C55   O14   1.398790 S    
C7    H8    1.082923 S    
C49   C54   1.497813 S    
C19   C35   1.423347 A    
C31   H13   1.083026 S    
C56   H24   1.084239 S    
C7    C8    1.393637 A    
O2    C1    1.294884 A    
C13   C14   1.397629 A    
C23   C27   1.415983 A    
C21   H5    1.080218 S    
C54   H22   1.108961 S    
C48   H17   1.112287 S    
C53   C54   1.517889 S    
O4    C2    1.301631 A    
C58   O19   1.396649 S    
C12   C34   1.417791 A    
C18   C20   1.412346 A    
C57   O16   1.221298 D    
C59   O21   1.398419 S    
C5    C13   1.403589 A    
C50   C57   1.468062 S    
C40   C55   1.486536 S    
C42   C43   1.420829 A    
N4    C52   1.361956 A    
Cu2   O6    1.956836 S    
C10   C11   1.400974 A    
C26   O12   1.349933 S    
C52   C53   1.487812 S    
C35   C40   1.429460 A    
C28   C32   1.415471 A    
C43   C56   1.485886 S    
C28   C59   1.488630 S    
