data_mof_unit_39195.cif
_audit_creation_date              2012-12-10T20:27:16-0500
_audit_creation_method            fapswitch 2.2
_symmetry_space_group_name_H-M    P1
_symmetry_Int_Tables_number       1
_space_group_crystal_system       triclinic
_cell_length_a                    10.770822
_cell_length_b                    10.705003
_cell_length_c                    9.863849
_cell_angle_alpha                 90.151046
_cell_angle_beta                  103.924853
_cell_angle_gamma                 90.41287
_cell_volume                      1103.85522892

loop_
_atom_site_label
_atom_site_type_symbol
_atom_type_description
_atom_site_fract_x
_atom_site_fract_y
_atom_site_fract_z
_atom_type_partial_charge
Br1   Br    Br    0.234398 0.249277 0.105317 -0.481068
Br2   Br    Br    0.970418 0.519805 0.785613 -0.505321
Br3   Br    Br    0.754154 0.867810 0.748392 -0.473050
C1    C     C_R   0.498422 0.260009 0.499528 0.887782
C2    C     C_R   0.576390 0.579648 0.092243 -0.117342
C3    C     C_R   0.575974 0.580044 0.948183 -0.083240
C4    C     C_R   0.258958 0.504560 0.441729 0.939574
C5    C     C_R   0.433159 0.410215 0.910875 0.071330
C6    C     C_3   0.292108 0.385734 0.866036 -0.041440
C7    C     C_3   0.288640 0.396985 0.019504 0.072815
C8    C     C_R   0.498165 0.739888 0.499616 0.913292
C9    C     C_R   0.741332 0.505229 0.558353 0.905869
C10   C     C_2   0.122255 0.519448 0.408289 -0.355671
C11   C     C_2   0.068861 0.561090 0.508023 -0.137494
C12   C     C_R   0.484378 0.128242 0.496382 -0.079629
C13   C     C_2   0.878062 0.526485 0.592474 0.118155
C14   C     C_2   0.932625 0.552377 0.487282 -0.203020
C15   C     C_R   0.489545 0.064084 0.620174 0.044465
C16   C     C_3   0.191870 0.247685 0.667138 -0.624155
C17   C     C_R   0.461051 0.063603 0.368906 -0.153319
C18   C     C_R   0.459832 0.934707 0.368889 -0.199193
C19   C     C_R   0.484894 0.871407 0.496679 -0.065581
C20   C     C_R   0.491940 0.936716 0.620597 0.056903
C21   C     C_3   0.587905 0.932317 0.758681 0.096126
C22   C     C_3   0.584529 0.074105 0.758113 -0.451907
C23   C     C_R   0.430545 0.412732 0.053028 0.121099
H1    H     H_    0.876578 0.555881 0.379690 0.177092
H2    H     H_    0.447094 0.885604 0.270230 0.175939
H3    H     H_    0.547824 0.889994 0.841939 0.129400
H4    H     H_    0.541778 0.113391 0.840678 0.176080
H5    H     H_    0.332179 0.193295 0.843433 0.241899
H6    H     H_    0.156513 0.150109 0.647006 0.235339
H7    H     H_    0.254646 0.269070 0.596210 0.228627
H8    H     H_    0.107919 0.310546 0.645126 0.258045
H9    H     H_    0.675412 0.119974 0.749953 0.242329
H10   H     H_    0.636240 0.645617 0.162486 0.155292
H11   H     H_    0.635291 0.646414 0.909627 0.184941
H12   H     H_    0.238728 0.460714 0.799717 0.179840
H13   H     H_    0.240290 0.483359 0.042036 0.155403
H14   H     H_    0.126439 0.590526 0.609295 0.213124
H15   H     H_    0.065358 0.492111 0.305681 0.189077
H16   H     H_    0.451386 0.111582 0.270595 0.202967
N1    N     N_R   0.499160 0.499140 0.142600 -0.114729
N2    N     N_R   0.499160 0.499180 0.856960 -0.112138
N3    N     N_2   0.262511 0.259755 0.810989 -0.237721
O1    O     O_R   0.500020 0.316790 0.614700 -0.617022
O2    O     O_R   0.500000 0.316760 0.385350 -0.596286
O3    O     O_R   0.317820 0.500020 0.571850 -0.635882
O4    O     O_R   0.317800 0.499980 0.342510 -0.591750
O5    O     O_R   0.500000 0.683240 0.614650 -0.614591
O6    O     O_R   0.499980 0.683210 0.385300 -0.634634
O7    O     O_R   0.682200 0.500020 0.657490 -0.558871
O8    O     O_R   0.682180 0.499980 0.428150 -0.641516
Zn1   Zn    Zn3+2 0.500010 0.500020 0.653140 0.979318
Zn2   Zn    Zn3+2 0.499990 0.499980 0.346860 0.974449

loop_
_geom_bond_atom_site_label_1
_geom_bond_atom_site_label_2
_ccdc_geom_bond_type
C5    N2    A    
C5    C6    S    
C12   C15   A    
C17   H16   S    
C20   C21   S    
C16   N3    S    
C6    N3    S    
C5    C23   A    
C6    C7    S    
C8    C19   S    
C9    O8    A    
O4    Zn2   S    
C4    O3    A    
O1    Zn1   S    
C1    C12   S    
C10   H15   S    
C2    N1    A    
C3    H11   S    
C8    O5    A    
C3    N2    A    
C10   C11   D    
C17   C18   A    
O3    Zn1   S    
C11   C14   S    
C7    C23   S    
Br3   C21   S    
O5    Zn1   S    
C15   C22   S    
C22   H9    S    
C2    C3    A    
C16   H6    S    
N1    Zn2   S    
C6    H12   S    
C9    O7    A    
C18   H2    S    
O7    Zn1   S    
C23   N1    A    
O6    Zn2   S    
O8    Zn2   S    
H5    N3    S    
C12   C17   A    
C8    O6    A    
C11   H14   S    
C15   C20   A    
C14   H1    S    
C2    H10   S    
N2    Zn1   S    
C4    C10   S    
Br2   C13   S    
C21   C22   S    
C4    O4    A    
O2    Zn2   S    
C16   H7    S    
C22   H4    S    
C19   C20   A    
C7    H13   S    
C1    O1    A    
C18   C19   A    
C21   H3    S    
C16   H8    S    
Br1   C7    S    
C9    C13   S    
C13   C14   D    
C1    O2    A    
