data_mof_unit_35079.cif
_audit_creation_date              2012-10-26T18:47:36-0400
_audit_creation_method            fapswitch 2.2
_symmetry_space_group_name_H-M    P1
_symmetry_Int_Tables_number       1
_space_group_crystal_system       triclinic
_cell_length_a                    10.897434
_cell_length_b                    12.983441
_cell_length_c                    11.791924
_cell_angle_alpha                 98.930971
_cell_angle_beta                  94.270433
_cell_angle_gamma                 93.661234
_cell_volume                      1638.76774594

loop_
_atom_site_label
_atom_site_type_symbol
_atom_type_description
_atom_site_fract_x
_atom_site_fract_y
_atom_site_fract_z
_atom_type_partial_charge
C1    C     C_R   0.497629 0.299439 0.479136 0.541139
C2    C     C_R   0.542830 0.984372 0.651490 -0.142848
C3    C     C_R   0.462529 0.123887 0.359254 -0.136039
C4    C     C_R   0.537471 0.876113 0.640746 -0.136039
C5    C     C_R   0.521739 0.139419 0.564384 -0.140043
C6    C     C_R   0.478261 0.860581 0.435616 -0.140043
C7    C     C_R   0.516315 0.031188 0.554388 0.047934
C8    C     C_R   0.483685 0.968812 0.445612 0.047934
C9    C     C_R   0.409520 0.380931 0.024896 -0.177485
C10   C     C_R   0.590480 0.619069 0.975104 -0.177485
C11   C     C_R   0.412969 0.395959 0.145162 0.046437
C12   C     C_R   0.502371 0.700561 0.520864 0.541139
C13   C     C_R   0.587031 0.604041 0.854838 0.046438
C14   C     C_R   0.541790 0.552760 0.155982 0.147727
C15   C     C_R   0.458209 0.447240 0.844017 0.147727
C16   C     C_R   0.262412 0.501258 0.499168 0.542368
C17   C     C_R   0.737588 0.498742 0.500832 0.542368
C18   C     C_R   0.533064 0.543746 0.033228 0.006929
C19   C     C_R   0.466936 0.456254 0.966771 0.006929
C20   C     C_R   0.197755 0.605539 0.147441 -0.122361
C21   C     C_R   0.802245 0.394460 0.852559 -0.122362
C22   C     C_R   0.160409 0.601009 0.257521 -0.063573
C23   C     C_R   0.871653 0.497457 0.502943 -0.003097
C24   C     C_R   0.839591 0.398991 0.742479 -0.063572
C25   C     C_R   0.098086 0.509561 0.280631 0.041542
C26   C     C_R   0.901913 0.490438 0.719369 0.041542
C27   C     C_R   0.072257 0.423513 0.192252 -0.090079
C28   C     C_R   0.927742 0.576486 0.807748 -0.090079
C29   C     C_R   0.107375 0.428510 0.081252 0.019254
C30   C     C_R   0.892625 0.571489 0.918748 0.019254
C31   C     C_R   0.169980 0.520226 0.059081 -0.071519
C32   C     C_R   0.830020 0.479773 0.940919 -0.071519
C33   C     C_R   0.925048 0.502077 0.399495 -0.160574
C34   C     C_R   0.128347 0.502543 0.497057 -0.003097
C35   C     C_R   0.074952 0.497923 0.600505 -0.160574
C36   C     C_3   0.370238 0.360112 0.777215 -0.337622
C37   C     C_3   0.629762 0.639888 0.222784 -0.337621
C38   C     C_3   0.078424 0.335521 0.988260 -0.411702
C39   C     C_3   0.921576 0.664478 0.011740 -0.411703
C40   C     C_R   0.947984 0.494870 0.605137 -0.031633
C41   C     C_R   0.052015 0.505130 0.394863 -0.031633
C42   C     C_R   0.505696 0.813942 0.532739 0.001026
C43   C     C_R   0.494304 0.186058 0.467261 0.001026
C44   C     C_R   0.457170 0.015628 0.348510 -0.142848
Cu1   Cu    Cu3+1 0.509250 0.507730 0.615930 0.921571
Cu2   Cu    Cu3+1 0.490750 0.492270 0.384070 0.921571
H1    H     H_    0.198078 0.525495 0.973853 0.113147
H2    H     H_    0.819944 0.331650 0.675323 0.106640
H3    H     H_    0.023433 0.353022 0.209655 0.102684
H4    H     H_    0.976566 0.646978 0.790345 0.102684
H5    H     H_    0.867768 0.504836 0.320871 0.131333
H6    H     H_    0.132232 0.495164 0.679129 0.131333
H7    H     H_    0.452234 0.812903 0.352320 0.114065
H8    H     H_    0.547766 0.187097 0.647680 0.114065
H9    H     H_    0.559216 0.841210 0.716765 0.121012
H10   H     H_    0.440784 0.158790 0.283235 0.121012
H11   H     H_    0.432126 0.968676 0.264670 0.096154
H12   H     H_    0.801922 0.474504 0.026147 0.113147
H13   H     H_    0.567874 0.031324 0.735330 0.096154
H14   H     H_    0.343817 0.366719 0.688144 0.197388
H15   H     H_    0.409339 0.283589 0.779964 0.096946
H16   H     H_    0.280567 0.360189 0.815689 0.070657
H17   H     H_    0.656182 0.633281 0.311856 0.197388
H18   H     H_    0.719433 0.639812 0.184310 0.070657
H19   H     H_    0.590661 0.716410 0.220036 0.096946
H20   H     H_    0.094448 0.355526 0.902188 0.130780
H21   H     H_    0.136870 0.271896 0.005771 0.115401
H22   H     H_    0.980203 0.306592 0.986669 0.130264
H23   H     H_    0.634205 0.661663 0.813072 0.123711
H24   H     H_    0.905553 0.644472 0.097812 0.130780
H25   H     H_    0.019796 0.693406 0.013332 0.130265
H26   H     H_    0.863130 0.728102 0.994231 0.115401
H27   H     H_    0.365795 0.338337 0.186928 0.123711
H28   H     H_    0.360764 0.309859 0.978975 0.091892
H29   H     H_    0.639236 0.690141 0.021025 0.091892
H30   H     H_    0.246757 0.675808 0.130089 0.095694
H31   H     H_    0.753244 0.324191 0.869910 0.095694
H32   H     H_    0.180056 0.668350 0.324677 0.106640
N1    N     N_R   0.523180 0.519350 0.790130 -0.217080
N2    N     N_R   0.476820 0.480650 0.209870 -0.217080
O1    O     O_R   0.506570 0.354460 0.582000 -0.523107
O2    O     O_R   0.493430 0.645540 0.418000 -0.523107
O3    O     O_R   0.490940 0.341410 0.386200 -0.511063
O4    O     O_R   0.509060 0.658590 0.613800 -0.511063
O5    O     O_R   0.327460 0.506540 0.597900 -0.526914
O6    O     O_R   0.672540 0.493460 0.402100 -0.526914
O7    O     O_R   0.311830 0.493480 0.402100 -0.486959
O8    O     O_R   0.688170 0.506520 0.597900 -0.486959

loop_
_geom_bond_atom_site_label_1
_geom_bond_atom_site_label_2
_ccdc_geom_bond_type
Cu2   N2    S    
C13   N1    A    
C27   C29   A    
C17   O8    A    
C14   C18   A    
C2    C4    A    
C2    C7    A    
C32   H12   S    
C7    C8    A    
Cu1   Cu2   S    
C15   C19   A    
C3    C43   A    
C17   C23   S    
C13   H23   S    
C24   C26   A    
C18   C19   A    
C1    O1    A    
C23   C40   A    
C20   H30   S    
C34   C35   A    
C3    H10   S    
C12   C42   S    
C16   C34   S    
Cu2   O2    S    
C28   H4    S    
C1    C43   S    
C15   N1    A    
C38   H20   S    
C23   C33   A    
C22   C25   A    
C37   H19   S    
C29   C38   S    
C16   O7    A    
C39   H26   S    
C14   N2    A    
C5    C43   A    
C31   H1    S    
C34   C41   A    
C36   H16   S    
C37   H17   S    
C9    C19   A    
C21   C32   A    
C3    C44   A    
C17   O6    A    
C24   H2    S    
C5    H8    S    
Cu1   O8    S    
C22   H32   S    
C11   H27   S    
C25   C41   S    
C5    C7    A    
C2    H13   S    
C6    C8    A    
C12   O4    A    
Cu1   O5    S    
C10   H29   S    
C44   H11   S    
C12   O2    A    
Cu1   N1    S    
C9    C11   A    
C38   H22   S    
C4    H9    S    
C16   O5    A    
Cu1   O4    S    
C33   H5    S    
C9    H28   S    
C6    H7    S    
C36   H15   S    
C15   C36   S    
C37   H18   S    
Cu2   O7    S    
Cu1   O1    S    
C8    C44   A    
C20   C22   A    
C36   H14   S    
C10   C13   A    
C1    O3    A    
C26   C28   A    
C33   C41   A    
C28   C30   A    
C35   C40   A    
C29   C31   A    
C14   C37   S    
C30   C32   A    
C26   C40   S    
C4    C42   A    
C10   C18   A    
C39   H24   S    
C30   C39   S    
C11   N2    A    
Cu2   O3    S    
C38   H21   S    
C6    C42   A    
C21   C24   A    
C21   H31   S    
C35   H6    S    
C39   H25   S    
C20   C31   A    
C27   H3    S    
Cu2   O6    S    
C25   C27   A    
