data_mof_unit_65423.cif
_audit_creation_date              2013-03-05T16:13:11-0500
_audit_creation_method            fapswitch 2.2
_symmetry_space_group_name_H-M    P1
_symmetry_Int_Tables_number       1
_space_group_crystal_system       triclinic
_cell_length_a                    43.885305
_cell_length_b                    30.411629
_cell_length_c                    30.254616
_cell_angle_alpha                 90.009409
_cell_angle_beta                  133.351576
_cell_angle_gamma                 89.991641
_cell_volume                      29361.4502898

loop_
_atom_site_label
_atom_site_type_symbol
_atom_site_description
_atom_site_fract_x
_atom_site_fract_y
_atom_site_fract_z
_atom_type_partial_charge
O1    O     O_R   0.500000 0.963030 0.565470 -0.598842
O2    O     O_R   0.500000 0.963030 0.434530 -0.599130
O3    O     O_R   0.000000 0.463030 0.565470 -0.599475
O4    O     O_R   0.000000 0.463030 0.434530 -0.599133
O5    O     O_R   0.499990 0.036970 0.565490 -0.590824
O6    O     O_R   0.500010 0.036970 0.434510 -0.590599
O7    O     O_R   0.999990 0.536970 0.565490 -0.593605
O8    O     O_R   0.000010 0.536970 0.434510 -0.590324
C1    C     C_R   0.498992 0.999987 0.585072 0.898674
C2    C     C_R   0.501015 0.999981 0.414932 0.898940
C3    C     C_R   0.998918 0.499990 0.585014 0.899994
C4    C     C_R   0.001016 0.499981 0.414933 0.899749
O9    O     O_R   0.438570 0.963030 0.438570 -0.603865
O10   O     O_R   0.561430 0.963030 0.561430 -0.603849
O11   O     O_R   0.938570 0.463030 0.438570 -0.604373
O12   O     O_R   0.061430 0.463030 0.561430 -0.605440
O13   O     O_R   0.438570 0.036970 0.438590 -0.586305
O14   O     O_R   0.561430 0.036970 0.561410 -0.586383
O15   O     O_R   0.938570 0.536970 0.438590 -0.586328
O16   O     O_R   0.061430 0.536970 0.561410 -0.585611
C5    C     C_R   0.419068 0.000017 0.419062 0.855023
C6    C     C_R   0.580932 0.000015 0.580938 0.855104
C7    C     C_R   0.919068 0.500017 0.419063 0.854552
C8    C     C_R   0.080932 0.500015 0.580937 0.855824
Zn1   Zn    Zn3+2 0.500000 0.950630 0.500000 1.098356
Zn2   Zn    Zn3+2 0.000000 0.450630 0.500000 1.093045
Zn3   Zn    Zn3+2 0.500000 0.049370 0.500000 1.142155
Zn4   Zn    Zn3+2 0.000000 0.549370 0.500000 1.142196
C9    C     C_3   0.275680 0.961630 0.300521 0.080161
C10   C     C_3   0.724324 0.961799 0.699211 0.080154
C11   C     C_3   0.775680 0.461922 0.300957 0.080101
C12   C     C_3   0.224324 0.461933 0.699012 0.080036
C13   C     C_3   0.275799 0.045571 0.299008 0.618650
C14   C     C_3   0.724194 0.045728 0.701319 0.618691
C15   C     C_3   0.775802 0.545840 0.298487 0.618719
C16   C     C_3   0.224194 0.545848 0.701558 0.618714
C17   C     C_3   0.225096 0.047098 0.250856 0.232689
C18   C     C_3   0.774897 0.047273 0.749480 0.232746
C19   C     C_3   0.725099 0.547394 0.250319 0.232662
C20   C     C_3   0.274897 0.547406 0.749726 0.232390
C21   C     C_1   0.125242 0.000827 0.125145 0.053910
C22   C     C_1   0.874758 0.000828 0.874858 0.053910
C23   C     C_1   0.625242 0.500830 0.125141 0.053888
C24   C     C_1   0.374758 0.500828 0.874861 0.053887
C25   C     C_3   0.291451 0.002737 0.289684 -0.196909
C26   C     C_3   0.708549 0.002724 0.710340 -0.196881
C27   C     C_3   0.791451 0.502725 0.289652 -0.196786
C28   C     C_3   0.208549 0.502718 0.710354 -0.195714
C29   C     C_3   0.225807 0.959630 0.251699 0.325464
C30   C     C_3   0.774198 0.959806 0.748018 0.325522
C31   C     C_3   0.725806 0.459932 0.252157 0.325705
C32   C     C_3   0.274198 0.459944 0.747810 0.326069
C33   C     C_3   0.208639 0.003051 0.209207 -0.391031
C34   C     C_3   0.791360 0.003054 0.790817 -0.391031
C35   C     C_3   0.708640 0.503064 0.209173 -0.391034
C36   C     C_3   0.291360 0.503059 0.790833 -0.391316
C37   C     C_3   0.224308 0.002754 0.174238 0.374543
C38   C     C_3   0.775693 0.002413 0.825786 0.374390
C39   C     C_3   0.724307 0.502196 0.174208 0.374341
C40   C     C_3   0.275693 0.502157 0.825797 0.375422
C41   C     C_3   0.274696 0.998667 0.223266 0.358353
C42   C     C_3   0.725306 0.998315 0.776730 0.358322
C43   C     C_3   0.774695 0.498093 0.223282 0.358360
C44   C     C_3   0.225306 0.498053 0.776721 0.358750
C45   C     C_1   0.162679 0.001776 0.162907 0.355296
C46   C     C_1   0.837320 0.001779 0.837106 0.355259
C47   C     C_1   0.662679 0.501785 0.162890 0.355258
C48   C     C_1   0.337321 0.501781 0.837113 0.355239
C49   C     C_1   0.337363 0.001155 0.336096 0.333590
C50   C     C_1   0.662637 0.001145 0.663918 0.333547
C51   C     C_1   0.837363 0.501149 0.336080 0.333459
C52   C     C_1   0.162637 0.501141 0.663925 0.332645
C53   C     C_1   0.374773 0.000244 0.374185 -0.068410
C54   C     C_1   0.625227 0.000237 0.625822 -0.068509
C55   C     C_1   0.874773 0.500242 0.374179 -0.068687
C56   C     C_1   0.125227 0.500236 0.625823 -0.070794
H1    H     H_    0.288540 0.932504 0.295848 0.167857
H2    H     H_    0.711467 0.932554 0.703675 0.167854
H3    H     H_    0.788540 0.432600 0.296621 0.167734
H4    H     H_    0.211467 0.432598 0.703322 0.167225
C57   C     C_R   0.471101 0.028851 0.674400 0.501438
C58   C     C_R   0.528621 0.029065 0.325313 0.501298
C59   C     C_R   0.969992 0.529288 0.673019 0.450226
C60   C     C_R   0.028598 0.529076 0.325287 0.501386
C61   C     C_R   0.469706 0.028008 0.627021 0.454717
C62   C     C_R   0.530057 0.028217 0.372728 0.454700
C63   C     C_R   0.969156 0.528459 0.626163 0.458272
C64   C     C_R   0.030037 0.528234 0.372704 0.454641
C65   C     C_R   0.497119 0.999848 0.631004 -0.350416
C66   C     C_R   0.502880 0.999828 0.368989 -0.350647
C67   C     C_R   0.996505 0.499858 0.630419 -0.289644
C68   C     C_R   0.002880 0.499826 0.368988 -0.350944
C69   C     C_R   0.524177 0.971645 0.680467 -0.171731
C70   C     C_R   0.476037 0.971394 0.319743 -0.171922
C71   C     C_R   0.022758 0.471072 0.679488 -0.310887
C72   C     C_R   0.976058 0.471367 0.319767 -0.171896
H5    H     H_    0.545072 0.950100 0.683089 0.219600
H6    H     H_    0.455320 0.949670 0.317299 0.219740
H7    H     H_    0.043428 0.449220 0.681991 0.196460
H8    H     H_    0.955358 0.449628 0.317341 0.219794
C73   C     C_R   0.525851 0.971649 0.727837 0.508038
C74   C     C_R   0.474337 0.971388 0.272350 0.507937
C75   C     C_R   0.023417 0.471112 0.726194 0.516074
C76   C     C_R   0.974360 0.471352 0.272376 0.507952
C77   C     C_R   0.499168 0.000452 0.724957 -0.209744
C78   C     C_R   0.500773 0.000426 0.274980 -0.209565
C79   C     C_R   0.997271 0.500385 0.723023 -0.139355
C80   C     C_R   0.000774 0.500410 0.274981 -0.209551
C81   C     C_R   0.477533 0.967688 0.774380 0.227708
C82   C     C_R   0.522610 0.967802 0.225756 0.227799
C83   C     C_R   0.976811 0.467332 0.773872 0.256511
C84   C     C_R   0.022638 0.467809 0.225781 0.227827
C85   C     C_R   0.477981 0.967320 0.821053 0.185689
C86   C     C_R   0.522180 0.967438 0.179102 0.185630
C87   C     C_R   0.977796 0.466952 0.821076 0.177545
C88   C     C_R   0.022208 0.467449 0.179128 0.185687
C89   C     C_R   0.500228 0.000222 0.866105 -0.399703
C90   C     C_R   0.499765 0.000214 0.133889 -0.399809
C91   C     C_R   0.000136 0.499960 0.865975 -0.397883
C92   C     C_R   0.999765 0.500205 0.133890 -0.399809
C93   C     C_R   0.522260 0.033436 0.865010 0.425921
C94   C     C_R   0.477527 0.033277 0.134791 0.425885
C95   C     C_R   0.021860 0.533210 0.864298 0.421012
C96   C     C_R   0.977496 0.533243 0.134764 0.425938
C97   C     C_R   0.523128 0.032892 0.819957 0.469140
C98   C     C_R   0.476617 0.032697 0.179799 0.468831
C99   C     C_R   0.022180 0.532687 0.818675 0.474336
C100  C     C_R   0.976583 0.532656 0.179768 0.468911
C101  C     C_R   0.500027 0.000448 0.773979 -0.339638
C102  C     C_R   0.499906 0.000403 0.225955 -0.339530
C103  C     C_R   0.998845 0.500234 0.772726 -0.241440
C104  C     C_R   0.999902 0.500386 0.225952 -0.339620
O17   O     O_R   1.000000 0.934650 0.036980 -0.583957
O18   O     O_R   0.000000 0.934650 0.963020 -0.583991
O19   O     O_R   0.500000 0.434650 0.036980 -0.584002
O20   O     O_R   0.500000 0.434650 0.963020 -0.583929
C105  C     C_R   0.000001 0.914041 0.999997 0.996522
C106  C     C_R   0.500000 0.414041 0.999996 0.996304
O21   O     O_R   0.061420 0.000140 0.098400 -0.568322
O22   O     O_R   0.938580 0.000140 0.901600 -0.568385
O23   O     O_R   0.561420 0.500140 0.098400 -0.568308
O24   O     O_R   0.438580 0.500140 0.901600 -0.568275
O25   O     O_R   0.061430 0.000120 0.024480 -0.604239
O26   O     O_R   0.938570 0.000120 0.975520 -0.604143
O27   O     O_R   0.561430 0.500120 0.024480 -0.604119
O28   O     O_R   0.438570 0.500120 0.975520 -0.604200
C107  C     C_R   0.080980 0.000126 0.080929 0.876633
C108  C     C_R   0.919020 0.000126 0.919072 0.876578
C109  C     C_R   0.580980 0.500125 0.080928 0.876460
C110  C     C_R   0.419020 0.500125 0.919072 0.876433
Zn5   Zn    Zn3+2 0.000000 0.000140 0.049370 1.188131
Zn6   Zn    Zn3+2 0.000000 0.000140 0.950630 1.187766
Zn7   Zn    Zn3+2 0.500000 0.500140 0.049370 1.188090
Zn8   Zn    Zn3+2 0.500000 0.500140 0.950630 1.188298
O29   O     O_R   0.999990 0.065630 0.036960 -0.588091
O30   O     O_R   0.000010 0.065630 0.963040 -0.588179
O31   O     O_R   0.499990 0.565630 0.036960 -0.588089
O32   O     O_R   0.500010 0.565630 0.963040 -0.588045
C111  C     C_R   0.999997 0.086366 1.000000 0.882176
C112  C     C_R   0.499999 0.586366 0.000003 0.882063
O33   O     O_R   0.465320 0.065470 0.965350 -0.586918
O34   O     O_R   0.534680 0.065470 0.034650 -0.586899
O35   O     O_R   0.965320 0.565470 0.965350 -0.586963
O36   O     O_R   0.034680 0.565470 0.034650 -0.587102
C113  C     C_R   0.499999 0.086569 1.000000 0.889040
C114  C     C_R   0.999999 0.586568 0.999992 0.888959
O37   O     O_R   0.465320 0.999980 0.899860 -0.590432
O38   O     O_R   0.534680 0.999980 0.100140 -0.590212
O39   O     O_R   0.965320 0.499980 0.899860 -0.592558
O40   O     O_R   0.034680 0.499980 0.100140 -0.590318
O41   O     O_R   0.534680 0.999980 0.969230 -0.583856
O42   O     O_R   0.465320 0.999980 0.030770 -0.583920
O43   O     O_R   0.034680 0.499980 0.969230 -0.581225
O44   O     O_R   0.965320 0.499980 0.030770 -0.583837
C115  C     C_R   0.500075 0.999906 0.913830 0.941307
C116  C     C_R   0.499924 0.999907 0.086170 0.941227
C117  C     C_R   0.000069 0.499869 0.913812 0.942634
C118  C     C_R   0.999925 0.499905 0.086170 0.941061
Zn9   Zn    Zn3+2 0.453690 0.999980 0.953700 1.207132
Zn10  Zn    Zn3+2 0.546310 0.999980 0.046300 1.207434
Zn11  Zn    Zn3+2 0.953690 0.499980 0.953700 1.206657
Zn12  Zn    Zn3+2 0.046310 0.499980 0.046300 1.209270
O45   O     O_R   0.465320 0.934500 0.965310 -0.572057
O46   O     O_R   0.534680 0.934500 0.034690 -0.571927
O47   O     O_R   0.965320 0.434500 0.965310 -0.572163
O48   O     O_R   0.034680 0.434500 0.034690 -0.571976
C119  C     C_R   0.500001 0.913522 0.000009 1.006650
C120  C     C_R   0.000002 0.413522 0.000023 1.006704
C121  C     C_R   0.973077 0.797520 0.944181 0.222126
C122  C     C_R   0.026967 0.797522 0.055790 0.222009
C123  C     C_R   0.473100 0.297521 0.944172 0.222001
C124  C     C_R   0.526895 0.297520 0.055785 0.222046
C125  C     C_R   0.972641 0.843491 0.944191 0.178035
C126  C     C_R   0.027387 0.843493 0.055789 0.178049
C127  C     C_R   0.472671 0.343492 0.944183 0.178001
C128  C     C_R   0.527329 0.343490 0.055788 0.178020
C129  C     C_R   0.000008 0.866301 0.999993 -0.343559
C130  C     C_R   0.500000 0.366300 0.999989 -0.343644
C131  C     C_R   0.000024 0.774896 0.999983 -0.259491
C132  C     C_R   0.499996 0.274896 0.999975 -0.259456
C133  C     C_R   0.534152 0.203993 0.015232 0.457993
C134  C     C_R   0.465835 0.204004 0.984718 0.457960
C135  C     C_R   0.034128 0.703981 0.015108 0.458140
C136  C     C_R   0.965890 0.704010 0.984835 0.458004
C137  C     C_R   0.534638 0.158225 0.017069 0.246515
C138  C     C_R   0.465357 0.158236 0.982908 0.246635
C139  C     C_R   0.034598 0.658213 0.016916 0.246472
C140  C     C_R   0.965397 0.658241 0.983010 0.246375
C141  C     C_R   0.499999 0.134888 0.999993 -0.447699
C142  C     C_R   0.999996 0.634886 0.999970 -0.447546
C143  C     C_R   0.499992 0.226936 0.999970 -0.141962
C144  C     C_R   0.000016 0.726934 0.999979 -0.142088
C145  C     C_R   0.015127 0.203088 0.977824 0.267734
C146  C     C_R   0.984824 0.203077 0.022191 0.267714
C147  C     C_R   0.515177 0.703080 0.977877 0.267662
C148  C     C_R   0.484818 0.703081 0.022165 0.267709
C149  C     C_R   0.018350 0.157467 0.982620 0.359894
C150  C     C_R   0.981610 0.157456 0.017376 0.359964
C151  C     C_R   0.518393 0.657459 0.982675 0.360027
C152  C     C_R   0.481602 0.657460 0.017351 0.360018
C153  C     C_R   0.999985 0.134300 0.999998 -0.364367
C154  C     C_R   0.499998 0.634298 0.000010 -0.364444
C155  C     C_R   0.999977 0.225941 0.000018 -0.275517
C156  C     C_R   0.499999 0.725939 0.000026 -0.275483
C157  C     C_R   0.463124 0.796497 0.972661 -0.088417
C158  C     C_R   0.536884 0.796486 0.027424 -0.088472
C159  C     C_R   0.963121 0.296505 0.972717 -0.088423
C160  C     C_R   0.036867 0.296482 0.027407 -0.088183
H9    H     H_    0.434644 0.778550 0.951766 0.201984
H10   H     H_    0.565363 0.778531 0.048325 0.201957
H11   H     H_    0.934645 0.278562 0.951850 0.201973
H12   H     H_    0.065338 0.278522 0.048276 0.201948
C161  C     C_R   0.463224 0.842015 0.975353 0.283641
C162  C     C_R   0.536787 0.842002 0.024729 0.283900
C163  C     C_R   0.963232 0.342023 0.975423 0.283603
C164  C     C_R   0.036777 0.341999 0.024722 0.283546
C165  C     C_R   0.500004 0.865443 0.000030 -0.255574
C166  C     C_R   0.000005 0.365444 0.000058 -0.255280
C167  C     C_R   0.500002 0.773830 0.000038 0.084867
C168  C     C_R   0.999988 0.273832 0.000048 0.084914
N1    N     N_R   0.208058 0.957131 0.279501 0.256016
O49   O     O_R   0.170095 0.942373 0.247167 -0.237363
O50   O     O_R   0.228489 0.969251 0.335040 -0.207193
N2    N     N_R   0.791947 0.957615 0.720202 0.256020
O51   O     O_R   0.829912 0.942893 0.752432 -0.237665
O52   O     O_R   0.771516 0.969973 0.664749 -0.207274
N3    N     N_R   0.708055 0.457944 0.279980 0.256005
O53   O     O_R   0.670091 0.443247 0.247811 -0.237893
O54   O     O_R   0.728484 0.470460 0.335379 -0.207464
N4    N     N_R   0.291949 0.457986 0.719985 0.256006
O55   O     O_R   0.329914 0.443293 0.752140 -0.237822
O56   O     O_R   0.271519 0.470525 0.664597 -0.207278
N5    N     N_R   0.212767 0.918201 0.216388 0.227273
O57   O     O_R   0.233245 0.882109 0.245234 -0.312735
O58   O     O_R   0.174581 0.913575 0.163927 -0.244664
N6    N     N_R   0.787241 0.918226 0.783036 0.227258
O59   O     O_R   0.766769 0.882192 0.753933 -0.312706
O60   O     O_R   0.825427 0.913504 0.835467 -0.244345
N7    N     N_R   0.712768 0.418254 0.217319 0.227239
O61   O     O_R   0.733243 0.382259 0.246578 -0.313031
O62   O     O_R   0.674584 0.413466 0.164908 -0.244279
N8    N     N_R   0.287241 0.418252 0.782610 0.227115
O63   O     O_R   0.266770 0.382262 0.753320 -0.314109
O64   O     O_R   0.325426 0.413455 0.835018 -0.244604
N9    N     N_R   0.207080 0.041573 0.133009 0.240632
O65   O     O_R   0.227517 0.078164 0.147877 -0.298587
O66   O     O_R   0.169490 0.039218 0.078938 -0.264544
N10   N     N_R   0.792916 0.041070 0.867288 0.240675
O67   O     O_R   0.772474 0.077620 0.852681 -0.298300
O68   O     O_R   0.830508 0.038604 0.921341 -0.264119
N11   N     N_R   0.707080 0.540743 0.132540 0.240682
O69   O     O_R   0.727520 0.577266 0.146990 -0.298238
O70   O     O_R   0.669489 0.538202 0.078498 -0.263977
N12   N     N_R   0.292917 0.540688 0.867500 0.240680
O71   O     O_R   0.272473 0.577207 0.853083 -0.297951
O72   O     O_R   0.330509 0.538137 0.921539 -0.264220
O73   O     O_3   0.443680 0.057139 0.668350 -0.620363
H13   H     H_    0.445619 0.053776 0.702684 0.358323
O74   O     O_3   0.555801 0.057595 0.331120 -0.620484
H14   H     H_    0.553878 0.054213 0.296803 0.358297
O75   O     O_3   0.942920 0.558032 0.667142 -0.619407
H15   H     H_    0.944362 0.554141 0.700965 0.350883
O76   O     O_3   0.055755 0.557627 0.331067 -0.620383
H16   H     H_    0.053836 0.554239 0.296754 0.358304
O77   O     O_3   0.440406 0.054461 0.577179 -0.630564
H17   H     H_    0.433916 0.042338 0.541146 0.337871
O78   O     O_3   0.559164 0.054899 0.422378 -0.630467
H18   H     H_    0.565938 0.042658 0.458569 0.338055
O79   O     O_3   0.940507 0.555365 0.576576 -0.630295
H19   H     H_    0.933863 0.543020 0.540522 0.335926
O80   O     O_3   0.059125 0.554939 0.422332 -0.630352
H20   H     H_    0.065918 0.542697 0.458536 0.338098
O81   O     O_3   0.554205 0.943353 0.775767 -0.663963
H21   H     H_    0.554819 0.947940 0.808701 0.367543
O82   O     O_3   0.446205 0.942849 0.224643 -0.664132
H22   H     H_    0.445493 0.947481 0.191622 0.367522
O83   O     O_3   0.049598 0.443411 0.775723 -0.672056
H23   H     H_    0.065746 0.425017 0.770764 0.366832
O84   O     O_3   0.946251 0.442785 0.224696 -0.664114
H24   H     H_    0.945545 0.447404 0.191677 0.367565
N13   N     N_R   0.455731 0.933735 0.728866 0.265253
O85   O     O_R   0.428257 0.943817 0.671395 -0.298028
O86   O     O_R   0.463010 0.892542 0.744842 -0.236131
N14   N     N_R   0.544621 0.933999 0.271469 0.265265
O87   O     O_R   0.572022 0.944270 0.328879 -0.298225
O88   O     O_R   0.537606 0.892757 0.255740 -0.236159
N15   N     N_R   0.954637 0.433444 0.728271 0.265930
O89   O     O_R   0.926853 0.443618 0.670839 -0.309484
O90   O     O_R   0.961886 0.392227 0.744128 -0.226745
N16   N     N_R   0.044680 0.434028 0.271524 0.265232
O91   O     O_R   0.072070 0.444325 0.328925 -0.298380
O92   O     O_R   0.037706 0.392780 0.255831 -0.236336
N17   N     N_R   0.455673 0.933648 0.822471 0.261078
O93   O     O_R   0.475060 0.909168 0.870507 -0.339218
O94   O     O_R   0.416301 0.926267 0.774898 -0.246267
N18   N     N_R   0.544672 0.933898 0.177859 0.261229
O95   O     O_R   0.525411 0.909280 0.129968 -0.339124
O96   O     O_R   0.584090 0.926774 0.225455 -0.246215
N19   N     N_R   0.955811 0.433239 0.823086 0.260884
O97   O     O_R   0.975556 0.408812 0.871248 -0.335114
O98   O     O_R   0.916329 0.425874 0.775991 -0.250802
N20   N     N_R   0.044729 0.433933 0.177913 0.261246
O99   O     O_R   0.025489 0.409293 0.130046 -0.339161
O100  O     O_R   0.084156 0.426852 0.225512 -0.246181
O101  O     O_3   0.542962 0.067493 0.906608 -0.601653
H25   H     H_    0.531290 0.071658 0.924970 0.335779
O102  O     O_3   0.456656 0.067219 0.093034 -0.601614
H26   H     H_    0.468426 0.071549 0.074838 0.336043
O103  O     O_3   0.042733 0.567319 0.905794 -0.599982
H27   H     H_    0.031557 0.571345 0.924873 0.336014
O104  O     O_3   0.956597 0.567166 0.092981 -0.601379
H28   H     H_    0.968382 0.571525 0.074812 0.336056
O105  O     O_3   0.294440 0.959665 0.361291 -0.607176
H29   H     H_    0.293154 0.928570 0.370053 0.389989
O106  O     O_3   0.705565 0.960122 0.638427 -0.607267
H30   H     H_    0.706853 0.929096 0.629442 0.389974
O107  O     O_3   0.794437 0.460436 0.361747 -0.607659
H31   H     H_    0.793153 0.429457 0.370867 0.389716
O108  O     O_3   0.205567 0.460474 0.638220 -0.607382
H32   H     H_    0.206854 0.429502 0.629073 0.389771
O109  O     O_3   0.546145 0.065424 0.821982 -0.616868
H33   H     H_    0.547249 0.060152 0.790875 0.351477
O110  O     O_3   0.453384 0.065060 0.177569 -0.617055
H34   H     H_    0.452229 0.059714 0.208609 0.351464
O111  O     O_3   0.044883 0.565282 0.820110 -0.616546
H35   H     H_    0.045900 0.559828 0.788944 0.350100
O112  O     O_3   0.953319 0.564993 0.177511 -0.616792
H36   H     H_    0.952164 0.559640 0.208549 0.351533
N21   N     N_R   0.945182 0.773772 0.887682 0.259864
O113  O     O_R   0.905263 0.782498 0.847891 -0.218827
O114  O     O_R   0.959508 0.743148 0.875982 -0.306300
N22   N     N_R   0.054871 0.773775 0.112285 0.259869
O115  O     O_R   0.094788 0.782507 0.152071 -0.218748
O116  O     O_R   0.040554 0.743155 0.123990 -0.306304
N23   N     N_R   0.445250 0.273774 0.887668 0.259871
O117  O     O_R   0.405332 0.282504 0.847804 -0.219071
O118  O     O_R   0.459616 0.243149 0.876034 -0.306250
N24   N     N_R   0.554743 0.273772 0.112282 0.259865
O119  O     O_R   0.594662 0.282491 0.152145 -0.218879
O120  O     O_R   0.540373 0.243159 0.123912 -0.306434
N25   N     N_R   0.944196 0.866919 0.887556 0.260070
O121  O     O_R   0.917399 0.894552 0.877592 -0.307310
O122  O     O_R   0.943876 0.859379 0.844904 -0.239038
N26   N     N_R   0.055830 0.866923 0.112428 0.260072
O123  O     O_R   0.082617 0.894562 0.122389 -0.307305
O124  O     O_R   0.056160 0.859377 0.155086 -0.238965
N27   N     N_R   0.444269 0.366919 0.887542 0.260084
O125  O     O_R   0.417439 0.394544 0.877500 -0.307261
O126  O     O_R   0.444019 0.359384 0.844959 -0.239038
N28   N     N_R   0.555734 0.366916 0.112435 0.260082
O127  O     O_R   0.582563 0.394536 0.122481 -0.307166
O128  O     O_R   0.555986 0.359385 0.155019 -0.239209
O129  O     O_3   0.568082 0.224841 0.029600 -0.623546
H37   H     H_    0.561536 0.256049 0.017157 0.365100
O130  O     O_3   0.431904 0.224863 0.970345 -0.623861
H38   H     H_    0.438440 0.256078 0.982757 0.364991
O131  O     O_3   0.068020 0.724818 0.029354 -0.623371
H39   H     H_    0.061488 0.756038 0.016979 0.365138
O132  O     O_3   0.932003 0.724879 0.970579 -0.623476
H40   H     H_    0.938560 0.756091 0.983001 0.365086
N29   N     N_R   0.570430 0.135880 0.034949 0.258996
O133  O     O_R   0.599909 0.122901 0.090987 -0.264042
O134  O     O_R   0.578531 0.138919 0.000995 -0.241807
N30   N     N_R   0.429576 0.135900 0.965063 0.258942
O135  O     O_R   0.400083 0.122910 0.909032 -0.264211
O136  O     O_R   0.421500 0.138958 0.999048 -0.242510
N31   N     N_R   0.070324 0.635852 0.034603 0.258849
O137  O     O_R   0.099904 0.622899 0.090629 -0.263504
O138  O     O_R   0.078261 0.638847 0.000448 -0.242142
N32   N     N_R   0.929646 0.635912 0.965272 0.258867
O139  O     O_R   0.900126 0.622877 0.909269 -0.264079
O140  O     O_R   0.921609 0.639040 0.999298 -0.241978
N33   N     N_R   0.027464 0.226107 0.950614 0.248657
O141  O     O_R   0.002532 0.255036 0.908093 -0.287741
O142  O     O_R   0.062789 0.217009 0.966342 -0.228063
N34   N     N_R   0.972481 0.226082 0.049410 0.248717
O143  O     O_R   0.997414 0.254997 0.091960 -0.287824
O144  O     O_R   0.937152 0.216982 0.033664 -0.227405
N35   N     N_R   0.527546 0.726092 0.950706 0.248752
O145  O     O_R   0.502627 0.755015 0.908168 -0.287576
O146  O     O_R   0.562889 0.716991 0.966487 -0.227235
N36   N     N_R   0.472448 0.726093 0.049343 0.248730
O147  O     O_R   0.497367 0.755013 0.091892 -0.287720
O148  O     O_R   0.437106 0.716995 0.033559 -0.227288
O149  O     O_3   0.038762 0.136444 0.968745 -0.619728
H41   H     H_    0.056643 0.113172 0.999599 0.363247
O150  O     O_3   0.961197 0.136422 0.031235 -0.619378
H42   H     H_    0.943328 0.113145 0.000378 0.363242
O151  O     O_3   0.538829 0.636429 0.968842 -0.619285
H43   H     H_    0.556685 0.613143 0.999685 0.363258
O152  O     O_3   0.461166 0.636431 0.031176 -0.619320
H44   H     H_    0.443313 0.613145 0.000327 0.363252
N37   N     N_R   0.426458 0.863426 0.955600 0.241462
O153  O     O_R   0.429083 0.887247 0.993851 -0.289927
O154  O     O_R   0.389625 0.851864 0.904592 -0.274744
N38   N     N_R   0.573565 0.863398 0.044516 0.241473
O155  O     O_R   0.570973 0.887167 0.006267 -0.289409
O156  O     O_R   0.610385 0.851869 0.095574 -0.274641
N39   N     N_R   0.926486 0.363441 0.955731 0.241463
O157  O     O_R   0.929157 0.387294 0.994002 -0.290015
O158  O     O_R   0.889635 0.351860 0.904774 -0.274752
N40   N     N_R   0.073550 0.363389 0.044484 0.241345
O159  O     O_R   0.070942 0.387172 0.006231 -0.283975
O160  O     O_R   0.110375 0.351830 0.095505 -0.274531
O161  O     O_3   0.293326 0.083110 0.295927 -0.679697
H45   H     H_    0.279206 0.088338 0.253503 0.391964
O162  O     O_3   0.706664 0.083126 0.704669 -0.679716
H46   H     H_    0.720784 0.088160 0.747130 0.391980
O163  O     O_3   0.793328 0.583143 0.294976 -0.679626
H47   H     H_    0.779208 0.588050 0.252493 0.391975
O164  O     O_3   0.206664 0.583138 0.705103 -0.679513
H48   H     H_    0.220784 0.588025 0.747590 0.392060
O165  O     O_3   0.292620 0.043566 0.358983 -0.595427
H49   H     H_    0.302019 0.073320 0.377607 0.418350
O166  O     O_3   0.707371 0.044019 0.641329 -0.595537
H50   H     H_    0.697970 0.073836 0.622919 0.418258
O167  O     O_3   0.792625 0.544326 0.358484 -0.595563
H51   H     H_    0.802023 0.574184 0.376765 0.418337
O168  O     O_3   0.207370 0.544363 0.641559 -0.595434
H52   H     H_    0.197970 0.574227 0.623306 0.418283
N41   N     N_R   0.210089 0.048740 0.282470 0.288935
O169  O     O_R   0.227500 0.076245 0.327214 -0.215492
O170  O     O_R   0.171356 0.038491 0.252615 -0.299110
N42   N     N_R   0.789901 0.049233 0.717876 0.288912
O171  O     O_R   0.772488 0.076924 0.673328 -0.215708
O172  O     O_R   0.828635 0.039044 0.747656 -0.299387
N43   N     N_R   0.710094 0.549563 0.281914 0.288935
O173  O     O_R   0.727505 0.577376 0.326342 -0.215582
O174  O     O_R   0.671361 0.539413 0.252178 -0.299370
N44   N     N_R   0.289900 0.549605 0.718132 0.288964
O175  O     O_R   0.272486 0.577437 0.673729 -0.215518
O176  O     O_R   0.328634 0.539461 0.747858 -0.299322
N45   N     N_R   0.208520 0.088320 0.214573 0.229105
O177  O     O_R   0.224969 0.125620 0.243120 -0.220544
O178  O     O_R   0.169857 0.090038 0.162486 -0.318577
N46   N     N_R   0.791469 0.088361 0.786055 0.229087
O179  O     O_R   0.775014 0.125743 0.757773 -0.220585
O180  O     O_R   0.830132 0.089988 0.838153 -0.318543
N47   N     N_R   0.708523 0.588391 0.213568 0.229090
O181  O     O_R   0.724974 0.625826 0.241688 -0.220461
O182  O     O_R   0.669859 0.589957 0.161463 -0.318468
N48   N     N_R   0.291468 0.588389 0.786514 0.229092
O183  O     O_R   0.275013 0.625832 0.758428 -0.220483
O184  O     O_R   0.330132 0.589947 0.838620 -0.318456
O185  O     O_3   0.287868 0.957339 0.219368 -0.697237
H53   H     H_    0.269466 0.933025 0.210599 0.379908
O186  O     O_3   0.712140 0.956871 0.780336 -0.697137
H54   H     H_    0.730545 0.932623 0.788930 0.379912
O187  O     O_3   0.787864 0.456574 0.219855 -0.697219
H55   H     H_    0.769461 0.432370 0.211365 0.379876
O188  O     O_3   0.212142 0.456522 0.780110 -0.702512
H56   H     H_    0.230547 0.432326 0.788578 0.379409
N49   N     N_R   0.293434 0.030609 0.210698 0.269457
O189  O     O_R   0.327850 0.051744 0.253998 -0.334085
O190  O     O_R   0.282635 0.028004 0.158496 -0.222858
N50   N     N_R   0.706564 0.030042 0.789526 0.269475
O191  O     O_R   0.672145 0.051237 0.746377 -0.334137
O192  O     O_R   0.717364 0.027155 0.841709 -0.222553
N51   N     N_R   0.793434 0.529678 0.210350 0.269475
O193  O     O_R   0.827851 0.550913 0.253408 -0.334094
O194  O     O_R   0.782634 0.526603 0.158181 -0.222576
N52   N     N_R   0.206565 0.529616 0.789681 0.268727
O195  O     O_R   0.172145 0.550856 0.746643 -0.334948
O196  O     O_R   0.217365 0.526514 0.841848 -0.225517
O197  O     O_3   0.206875 0.965650 0.135684 -0.679045
H57   H     H_    0.214634 0.967082 0.111624 0.406963
O198  O     O_3   0.793132 0.965168 0.864078 -0.679020
H58   H     H_    0.785372 0.966383 0.888149 0.407008
O199  O     O_3   0.706872 0.464857 0.136076 -0.679043
H59   H     H_    0.714632 0.465930 0.112001 0.407004
O200  O     O_3   0.293133 0.464805 0.863896 -0.679563
H60   H     H_    0.285373 0.465857 0.887972 0.406431

loop_
_geom_bond_atom_site_label_1
_geom_bond_atom_site_label_2
_geom_bond_distance
_ccdc_geom_bond_type
N20   O100  1.301151 A    
N47   O181  1.302983 A    
O17   C105  1.282415 A    
C63   C67   1.414617 A    
C13   C25   1.585559 S    
O161  H45   0.982228 S    
C112  C154  1.457702 S    
O80   H20   0.989443 S    
O17   Zn5   2.026564 S    
C160  H12   1.083952 S    
O162  H46   0.982230 S    
C15   C27   1.585559 S    
N50   O192  1.302901 A    
O107  H31   0.994152 S    
C41   O185  1.421644 S    
N13   O85   1.301076 A    
C26   C42   1.601668 S    
C57   O73   1.385300 S    
C10   O106  1.408430 S    
N34   O144  1.301299 A    
Zn8   O32   2.026623 S    
O26   Zn5   1.997510 S    
C35   C39   1.609673 S    
C15   C19   1.620211 S    
N48   O184  1.301529 A    
C126  C129  1.410619 A    
N4    O56   1.301808 A    
N11   O69   1.300466 A    
N2    O51   1.302534 A    
N35   O146  1.301326 A    
N12   O71   1.300468 A    
O112  H36   0.988089 S    
C161  C165  1.419859 A    
C12   C32   1.592897 S    
O28   C110  1.281025 A    
Zn6   O30   2.026623 S    
C128  N28   1.437144 S    
C24   C110  1.412637 S    
C50   C54   1.194397 T    
C139  C142  1.415387 A    
C84   N16   1.438281 S    
C158  C167  1.392810 A    
Zn5   O29   2.026744 S    
O4    C4    1.285616 A    
O22   Zn6   1.994060 S    
N36   O148  1.301326 A    
C127  C130  1.410645 A    
C87   N19   1.437583 S    
N37   O154  1.301219 A    
C100  O112  1.384956 S    
C137  C141  1.415442 A    
C163  N39   1.435437 S    
C122  C131  1.407556 A    
C57   C77   1.419904 A    
C149  C153  1.415773 A    
N16   O92   1.301173 A    
C25   C49   1.466049 S    
C145  N33   1.439840 S    
C9    O105  1.408416 S    
C62   C66   1.412692 A    
C69   C73   1.383750 A    
C8    C56   1.413739 S    
C123  N23   1.438408 S    
O16   Zn4   1.996255 S    
O187  H55   0.987585 S    
O13   C5    1.284635 A    
O7    Zn4   2.017296 S    
C9    C25   1.568837 S    
N18   O95   1.301036 A    
C162  C165  1.419856 A    
C31   N3    1.489786 S    
C148  C156  1.410170 A    
C19   N47   1.486480 S    
C12   H4    1.110151 S    
O34   C113  1.279240 A    
C44   O188  1.421647 S    
N28   O128  1.301144 A    
N23   O117  1.301208 A    
N22   O115  1.301205 A    
C136  C144  1.413115 A    
O9    C5    1.285497 A    
C27   C51   1.466051 S    
O42   Zn9   2.015816 S    
O20   C106  1.282413 A    
C105  C129  1.451857 S    
O43   Zn12  2.015813 S    
O25   C107  1.281041 A    
O31   C112  1.284039 A    
N52   O196  1.302898 A    
C72   C76   1.383685 A    
N29   O133  1.300976 A    
C157  C167  1.392812 A    
N31   O137  1.300973 A    
C78   C102  1.457370 S    
C148  N36   1.439822 S    
C145  C149  1.392052 A    
C38   O198  1.412001 S    
C147  N35   1.439824 S    
O3    Zn2   2.016287 S    
C60   C64   1.392222 A    
N7    O62   1.302113 A    
N30   O136  1.300651 A    
C29   N1    1.489806 S    
O130  H38   0.988193 S    
C37   C41   1.613106 S    
C91   C95   1.414457 A    
N33   O141  1.301434 A    
C39   C43   1.613112 S    
C40   C44   1.613113 S    
C85   N17   1.437651 S    
N38   O155  1.301567 A    
O75   H15   0.988047 S    
C158  H10   1.083957 S    
O149  H41   0.991173 S    
C114  C142  1.469435 S    
C73   O81   1.383601 S    
O41   C115  1.273149 A    
C29   C33   1.623112 S    
C159  C168  1.392803 A    
C71   H7    1.084314 S    
C124  C132  1.407549 A    
C99   C103  1.414440 A    
C26   C50   1.466052 S    
N41   O170  1.301710 A    
O106  H30   0.994154 S    
O83   H23   0.991736 S    
C97   C101  1.414213 A    
O102  H26   0.988756 S    
C70   C74   1.383697 A    
C98   C102  1.414135 A    
N42   O171  1.302236 A    
C75   C79   1.402459 A    
C91   C117  1.449322 S    
N1    O50   1.301792 A    
O151  H43   0.991176 S    
C32   N4    1.489779 S    
O33   C113  1.279260 A    
Zn10  O46   2.025659 S    
C42   N50   1.481243 S    
N44   O176  1.301730 A    
N19   O98   1.301156 A    
N21   O113  1.301205 A    
O35   Zn11  2.025955 S    
C37   O197  1.411993 S    
N39   O157  1.301550 A    
O3    C3    1.285929 A    
C146  N34   1.439831 S    
C134  C143  1.413091 A    
C93   O101  1.382775 S    
N28   O127  1.301184 A    
C9    C29   1.592888 S    
O163  H47   0.982228 S    
O5    C1    1.285993 A    
N47   O182  1.301530 A    
O197  H57   0.994021 S    
C40   N12   1.492228 S    
C160  C168  1.392797 A    
Zn7   O31   2.026744 S    
N5    O57   1.302783 A    
N17   O94   1.301184 A    
N35   O145  1.301436 A    
C5    C53   1.413732 S    
C68   C72   1.394817 A    
N26   O123  1.301179 A    
N1    O49   1.302503 A    
C90   C94   1.414378 A    
C25   C41   1.601644 S    
C60   C80   1.419794 A    
O5    Zn3   2.017296 S    
O6    Zn3   2.017177 S    
N26   O124  1.301141 A    
N46   O179  1.302991 A    
N6    O60   1.302114 A    
C82   C102  1.408487 A    
C14   C26   1.585569 S    
C122  N22   1.438399 S    
O33   Zn9   2.025955 S    
C33   C45   1.467255 S    
C82   C86   1.398645 A    
O34   Zn10  2.025923 S    
C17   C33   1.629132 S    
C121  C131  1.407556 A    
N14   O88   1.301183 A    
C90   C116  1.448587 S    
O73   H13   0.987613 S    
O40   Zn12  2.013770 S    
C124  N24   1.438405 S    
C28   C52   1.466056 S    
O39   C117  1.272756 A    
C71   C75   1.393369 A    
C60   O76   1.385283 S    
C121  N21   1.438405 S    
C132  C143  1.458572 S    
O29   C111  1.284045 A    
O13   Zn3   1.996294 S    
C136  C140  1.392593 A    
C86   N18   1.437613 S    
C123  C132  1.407545 A    
C146  C150  1.392050 A    
N8    O64   1.302113 A    
C123  C127  1.398171 A    
C36   C48   1.467255 S    
C88   C92   1.408913 A    
C150  O150  1.379658 S    
C93   C97   1.389595 A    
O81   H21   0.988007 S    
C3    C67   1.448470 S    
C95   C99   1.390076 A    
O164  H48   0.982228 S    
O8    C4    1.286023 A    
C44   N52   1.481234 S    
O79   H19   0.989449 S    
C20   N44   1.488558 S    
O24   Zn8   1.994060 S    
N24   O120  1.301201 A    
O15   Zn4   1.996294 S    
N9    O66   1.302893 A    
C85   C89   1.408929 A    
O27   Zn8   1.997510 S    
C83   C103  1.408442 A    
N23   O118  1.301203 A    
C41   N49   1.481237 S    
C87   C91   1.409065 A    
C81   C101  1.408514 A    
N40   O159  1.301540 A    
C163  C166  1.419844 A    
C6    C54   1.413735 S    
C69   H5    1.084648 S    
C84   C88   1.398644 A    
C150  C153  1.415780 A    
O37   C115  1.272730 A    
N36   O147  1.301435 A    
C125  N25   1.437143 S    
O38   C116  1.272770 A    
O14   C6    1.284636 A    
C10   C26   1.568855 S    
C148  C152  1.392059 A    
C11   C31   1.592897 S    
N31   O138  1.300645 A    
C42   O186  1.421657 S    
O1    Zn1   2.016287 S    
N8    O63   1.302786 A    
C34   C46   1.467259 S    
C17   N45   1.486468 S    
N49   O190  1.302885 A    
C32   N8    1.488844 S    
C158  C162  1.386460 A    
O46   C119  1.277411 A    
O10   C6    1.285500 A    
C151  C154  1.415766 A    
O23   Zn7   1.994052 S    
C14   O166  1.414980 S    
C72   H8    1.084600 S    
O21   Zn5   1.994052 S    
N2    O52   1.301817 A    
C16   C28   1.585561 S    
N12   O72   1.302893 A    
C58   C78   1.419799 A    
C65   C69   1.394829 A    
C135  C144  1.413108 A    
C20   N48   1.486482 S    
C80   C104  1.457349 S    
C30   N6    1.488852 S    
C146  C155  1.410149 A    
C67   C71   1.396270 A    
C121  C125  1.398190 A    
C9    H1    1.110142 S    
C23   C47   1.195107 T    
O76   H16   0.987595 S    
C133  C137  1.392558 A    
C133  C143  1.413085 A    
C57   C61   1.392336 A    
O42   C116  1.273141 A    
C38   C42   1.613117 S    
C59   C63   1.392901 A    
N37   O153  1.301563 A    
C62   O78   1.382761 S    
C159  H11   1.083948 S    
N51   O193  1.301530 A    
C22   C108  1.412636 S    
C147  C156  1.410171 A    
O18   C105  1.282397 A    
O132  H40   0.988194 S    
C43   O187  1.421650 S    
N25   O122  1.301138 A    
C30   C34   1.623141 S    
C125  C129  1.410626 A    
O105  H29   0.994141 S    
C124  C128  1.398163 A    
N39   O158  1.301206 A    
C27   C43   1.601663 S    
C28   C44   1.601659 S    
C98   O110  1.384960 S    
C70   H6    1.084602 S    
C64   O80   1.382751 S    
N18   O96   1.301156 A    
C131  C144  1.458609 S    
Zn12  O48   2.025659 S    
N45   O178  1.301531 A    
C92   C118  1.448604 S    
C19   C35   1.629158 S    
C58   O74   1.385285 S    
C20   C36   1.629153 S    
N22   O116  1.301204 A    
O74   H14   0.987594 S    
C49   C53   1.194393 T    
C15   O167  1.414975 S    
O44   C118  1.273145 A    
C11   O107  1.408423 S    
C52   C56   1.194396 T    
C96   C100  1.389513 A    
C139  N31   1.433471 S    
N3    O54   1.301804 A    
N20   O99   1.301032 A    
C10   C30   1.592907 S    
O168  H52   0.993626 S    
C11   C27   1.568850 S    
O32   C112  1.284033 A    
C12   C28   1.568850 S    
C152  C154  1.415768 A    
N50   O191  1.301532 A    
C4    C68   1.447412 S    
C66   C70   1.394812 A    
N13   O86   1.301210 A    
O12   Zn2   1.996291 S    
C81   N13   1.438306 S    
N43   O173  1.302226 A    
O35   C114  1.279224 A    
O1    C1    1.285563 A    
N34   O143  1.301433 A    
C16   O164  1.415054 S    
C128  C130  1.410641 A    
C1    C65   1.447320 S    
O82   H22   0.987993 S    
C61   C65   1.412769 A    
N48   O183  1.302982 A    
C31   C35   1.623128 S    
N4    O55   1.302526 A    
C58   C62   1.392233 A    
C97   O109  1.384998 S    
C157  H9    1.083957 S    
C14   O162  1.415057 S    
N15   O89   1.301117 A    
N38   O156  1.301232 A    
C83   N15   1.438405 S    
O188  H56   0.987586 S    
O77   H17   0.989510 S    
O45   C119  1.277429 A    
C94   O102  1.382721 S    
O20   Zn8   2.026685 S    
O108  H32   0.994152 S    
C18   C34   1.629170 S    
O18   Zn6   2.026685 S    
N27   O126  1.301139 A    
C84   C104  1.408479 A    
O47   C120  1.277434 A    
O39   Zn11  2.013770 S    
O25   Zn6   1.997510 S    
O37   Zn9   2.013770 S    
O48   C120  1.277391 A    
C76   C80   1.416216 A    
C75   O83   1.382609 S    
C31   N7    1.488842 S    
N16   O91   1.301072 A    
C33   C37   1.609671 S    
N21   O114  1.301208 A    
C17   N41   1.488585 S    
C7    C55   1.413731 S    
O6    C2    1.286018 A    
O4    Zn2   2.016412 S    
N32   O139  1.300976 A    
O28   Zn7   1.997510 S    
C30   N2    1.489766 S    
C157  C161  1.386482 A    
O24   C110  1.280335 A    
N43   O174  1.301730 A    
O104  H28   0.988751 S    
C111  C153  1.457736 S    
C145  C155  1.410164 A    
C113  C141  1.469475 S    
N17   O93   1.301052 A    
C39   O199  1.411999 S    
C40   O200  1.411996 S    
C127  N27   1.437140 S    
C63   O79   1.382531 S    
C164  C166  1.419852 A    
C151  O151  1.379673 S    
O2    Zn1   2.016412 S    
O10   Zn1   1.996291 S    
C21   C45   1.195108 T    
O101  H25   0.988775 S    
C13   C17   1.620197 S    
O36   Zn12  2.025923 S    
C13   O165  1.414966 S    
N19   O97   1.300992 A    
C15   O163  1.415052 S    
C36   C40   1.609674 S    
C140  N32   1.433498 S    
N10   O67   1.300467 A    
C2    C66   1.447404 S    
N46   O180  1.301531 A    
N52   O195  1.301531 A    
C38   N10   1.492236 S    
O152  H44   0.991175 S    
N29   O134  1.300647 A    
O27   C109  1.281031 A    
C161  N37   1.435436 S    
C126  N26   1.437136 S    
O40   C118  1.272775 A    
O19   C106  1.282405 A    
O110  H34   0.988085 S    
C82   N14   1.438278 S    
O167  H51   0.993628 S    
C19   N43   1.488559 S    
O103  H27   0.988599 S    
O15   C7    1.284638 A    
N27   O125  1.301191 A    
O26   C108  1.281030 A    
C88   N20   1.437605 S    
N30   O135  1.300976 A    
O22   C108  1.280334 A    
C149  O149  1.379651 S    
O23   C109  1.280341 A    
C16   O168  1.414976 S    
O109  H33   0.988070 S    
O7    C3    1.286188 A    
N33   O142  1.301302 A    
O21   C107  1.280330 A    
C61   O77   1.382907 S    
C147  C151  1.392051 A    
C155  C168  1.456453 S    
C18   N46   1.486487 S    
Zn11  O47   2.025626 S    
C95   O103  1.382819 S    
C96   O104  1.382700 S    
N42   O172  1.301744 A    
C12   O108  1.408425 S    
C89   C93   1.414402 A    
C92   C96   1.414373 A    
C64   C68   1.412693 A    
O200  H60   0.994030 S    
N9    O65   1.300463 A    
C23   C109  1.412640 S    
C81   C85   1.398703 A    
O11   C7    1.285495 A    
N44   O175  1.302228 A    
C37   N9    1.492219 S    
O12   C8    1.285499 A    
N40   O160  1.301204 A    
C134  O130  1.385504 S    
O9    Zn1   1.996263 S    
N24   O119  1.301209 A    
C18   N42   1.488541 S    
C100  C104  1.414120 A    
O44   Zn11  2.015816 S    
C119  C165  1.462167 S    
Zn9   O45   2.025626 S    
C73   C77   1.416269 A    
O16   C8    1.284640 A    
C16   C20   1.620211 S    
C99   O111  1.384947 S    
C79   C103  1.457221 S    
N5    O58   1.302114 A    
O84   H24   0.987988 S    
C164  N40   1.435417 S    
O11   Zn2   1.996263 S    
C77   C101  1.457495 S    
N49   O189  1.301527 A    
C135  C139  1.392572 A    
N15   O90   1.301191 A    
C94   C98   1.389524 A    
C59   O75   1.384570 S    
O38   Zn10  2.013770 S    
C29   N5    1.488834 S    
O186  H54   0.987593 S    
C21   C107  1.412635 S    
O43   C117  1.273505 A    
O150  H42   0.991176 S    
C13   O161  1.415053 S    
N6    O59   1.302791 A    
O185  H53   0.987584 S    
C39   N11   1.492228 S    
O131  H39   0.988193 S    
C86   C90   1.408913 A    
C162  N38   1.435420 S    
C106  C130  1.451863 S    
N14   O87   1.301071 A    
C152  O152  1.379678 S    
O78   H18   0.989452 S    
O41   Zn10  2.015813 S    
C24   C48   1.195103 T    
C133  O129  1.385498 S    
N7    O61   1.302789 A    
O2    C2    1.285616 A    
O198  H58   0.994036 S    
C34   C38   1.609677 S    
N11   O70   1.302893 A    
N32   O140  1.300653 A    
C14   C18   1.620216 S    
O30   C111  1.284043 A    
O14   Zn3   1.996255 S    
N10   O68   1.302895 A    
C35   C47   1.467260 S    
N3    O53   1.302525 A    
N51   O194  1.302897 A    
C11   H3    1.110148 S    
C74   O82   1.383536 S    
C159  C163  1.386486 A    
N25   O121  1.301186 A    
O19   Zn7   2.026564 S    
O199  H59   0.994028 S    
O36   C114  1.279255 A    
C138  N30   1.433481 S    
O129  H37   0.988200 S    
C51   C55   1.194396 T    
C138  C141  1.415431 A    
C89   C115  1.448562 S    
N41   O169  1.302212 A    
C76   O84   1.383535 S    
O8    Zn4   2.017177 S    
C59   C79   1.417081 A    
C74   C78   1.416228 A    
N45   O177  1.302978 A    
C156  C167  1.456455 S    
C160  C164  1.386463 A    
C120  C166  1.462143 S    
C122  C126  1.398190 A    
O166  H50   0.993632 S    
C10   H2    1.110148 S    
C43   N51   1.481236 S    
C137  N29   1.433495 S    
C140  C142  1.415413 A    
O165  H49   0.993621 S    
C134  C138  1.392560 A    
C22   C46   1.195106 T    
C83   C87   1.398871 A    
O111  H35   0.988084 S    
C135  O131  1.385499 S    
C136  O132  1.385500 S    
C32   C36   1.623126 S    
