data_mof_unit_61631.cif
_audit_creation_date              2012-12-10T16:55:27-0500
_audit_creation_method            fapswitch 2.2
_symmetry_space_group_name_H-M    P1
_symmetry_Int_Tables_number       1
_space_group_crystal_system       triclinic
_cell_length_a                    21.744523
_cell_length_b                    21.749399
_cell_length_c                    21.89201
_cell_angle_alpha                 118.74647
_cell_angle_beta                  118.581547
_cell_angle_gamma                 91.003476
_cell_volume                      7547.76617428

loop_
_atom_site_label
_atom_site_type_symbol
_atom_type_description
_atom_site_fract_x
_atom_site_fract_y
_atom_site_fract_z
_atom_type_partial_charge
C1    C     C_R   0.000892 0.382459 0.503190 0.932105
C2    C     C_R   0.999114 0.617541 0.496815 0.931496
C3    C     C_3   0.279360 0.836135 0.046320 -0.459658
C4    C     C_3   0.757273 0.171287 0.952950 -0.459859
C5    C     C_3   0.239690 0.785923 0.950129 -0.455726
C6    C     C_3   0.797651 0.216509 0.049272 -0.456323
C7    C     C_1   0.334138 0.836630 0.174502 -0.049592
C8    C     C_1   0.663782 0.163895 0.825551 -0.050965
C9    C     C_1   0.160290 0.660672 0.825742 -0.046703
C10   C     C_1   0.838409 0.340026 0.174287 -0.046122
C11   C     C_1   0.124105 0.624570 0.750891 -0.180263
C12   C     C_1   0.875623 0.375756 0.249124 -0.179739
C13   C     C_2   0.064074 0.245088 0.556481 -0.156458
C14   C     C_2   0.936005 0.754790 0.443291 -0.157835
C15   C     C_2   0.006559 0.182797 0.495540 -0.341823
C16   C     C_2   0.993377 0.817184 0.504434 -0.340266
C17   C     C_2   0.065675 0.308430 0.549326 -0.153771
C18   C     C_2   0.934356 0.691428 0.450407 -0.154605
C19   C     C_2   0.002483 0.321281 0.512441 -0.334596
C20   C     C_2   0.997564 0.678743 0.487614 -0.333104
C21   C     C_R   0.616240 0.998100 0.494723 0.938655
C22   C     C_R   0.383657 0.001821 0.505125 0.929313
C23   C     C_R   0.080742 0.581166 0.662223 0.908481
C24   C     C_R   0.919239 0.418846 0.337781 0.908679
C25   C     C_R   0.418264 0.919134 0.337823 0.904226
C26   C     C_R   0.581200 0.080870 0.662194 0.902145
C27   C     C_R   0.881250 0.994653 0.500839 0.920571
C28   C     C_R   0.118797 0.005147 0.499148 0.912021
C29   C     C_R   0.001921 0.118827 0.499269 0.936455
C30   C     C_R   0.998069 0.881169 0.500727 0.935685
C31   C     C_2   0.750111 0.941985 0.432635 -0.251907
C32   C     C_2   0.249967 0.058212 0.566960 -0.192325
C33   C     C_2   0.818272 0.976430 0.503960 -0.025625
C34   C     C_2   0.181663 0.023410 0.495830 -0.035649
C35   C     C_2   0.683023 0.934058 0.432211 0.190466
C36   C     C_2   0.316485 0.067285 0.566221 0.177605
C37   C     C_2   0.677015 0.996137 0.484449 -0.378104
C38   C     C_2   0.323695 0.004403 0.516912 -0.437213
C39   C     C_3   0.270667 0.676255 0.953190 -0.206207
C40   C     C_3   0.708365 0.288470 0.048190 -0.206944
C41   C     C_3   0.153100 0.704436 0.951117 0.112015
C42   C     C_3   0.821506 0.332421 0.048230 0.111422
C43   C     C_3   0.206242 0.744440 0.051339 0.116497
C44   C     C_3   0.762616 0.288547 0.948223 0.115296
C45   C     C_1   0.372893 0.875039 0.249245 -0.189669
C46   C     C_1   0.625860 0.125045 0.750788 -0.189299
C47   C     C_3   0.204222 0.704571 0.917483 0.203584
C48   C     C_3   0.792589 0.296684 0.082569 0.203873
C49   C     C_3   0.325676 0.733831 0.049166 -0.232915
C50   C     C_3   0.659681 0.228313 0.952225 -0.233668
C51   C     C_3   0.286358 0.788361 0.083079 0.210148
C52   C     C_3   0.710113 0.213017 0.916981 0.209648
H1    H     H_    0.374028 0.767554 0.060792 0.156448
H2    H     H_    0.635182 0.175509 0.941015 0.157108
H3    H     H_    0.249976 0.875728 0.061909 0.208438
H4    H     H_    0.798071 0.159005 0.936431 0.208020
H5    H     H_    0.111020 0.248645 0.609788 0.167425
H6    H     H_    0.889206 0.751140 0.389811 0.166286
H7    H     H_    0.963857 0.176414 0.437837 0.159315
H8    H     H_    0.035913 0.823615 0.562237 0.159181
H9    H     H_    0.118619 0.345659 0.576714 0.168700
H10   H     H_    0.881383 0.654039 0.422714 0.167101
H11   H     H_    0.950684 0.289064 0.493701 0.159107
H12   H     H_    0.049433 0.711102 0.506639 0.158412
H13   H     H_    0.742381 0.924205 0.373076 0.167816
H14   H     H_    0.258139 0.074624 0.626357 0.161643
H15   H     H_    0.250091 0.623014 0.942191 0.161755
H16   H     H_    0.698905 0.341348 0.059469 0.162513
H17   H     H_    0.718829 0.049269 0.520444 0.136807
H18   H     H_    0.284306 0.951161 0.485715 0.151907
H19   H     H_    0.280283 0.788081 0.933432 0.197639
H20   H     H_    0.771983 0.188369 0.066474 0.196652
H21   H     H_    0.197958 0.808172 0.920248 0.193889
H22   H     H_    0.855932 0.216636 0.078273 0.194949
H23   H     H_    0.335222 0.870889 0.073747 0.181602
H24   H     H_    0.721049 0.116264 0.925800 0.181940
O1    O     O_R   0.051090 0.409550 0.500010 -0.615783
O2    O     O_R   0.948910 0.590450 0.499990 -0.616121
O3    O     O_R   0.874830 0.965310 0.430660 -0.637020
O4    O     O_R   0.125170 0.034690 0.569340 -0.636103
O5    O     O_R   0.034670 0.125130 0.569340 -0.612838
O6    O     O_R   0.965330 0.874870 0.430660 -0.614133
O7    O     O_R   0.965310 0.055770 0.430620 -0.629676
O8    O     O_R   0.034690 0.944230 0.569380 -0.629825
O9    O     O_R   0.948930 0.409540 0.500030 -0.622583
O10   O     O_R   0.051070 0.590460 0.499970 -0.623005
O11   O     O_R   0.112510 0.561440 0.622850 -0.615032
O12   O     O_R   0.887490 0.438560 0.377150 -0.616325
O13   O     O_R   0.010350 0.561430 0.622870 -0.616768
O14   O     O_R   0.989650 0.438570 0.377130 -0.615000
O15   O     O_R   0.590290 0.948920 0.499990 -0.622488
O16   O     O_R   0.409710 0.051080 0.500010 -0.628041
O17   O     O_R   0.590320 0.051050 0.499970 -0.618627
O18   O     O_R   0.409680 0.948950 0.500030 -0.613226
O19   O     O_R   0.438380 0.887500 0.377150 -0.607358
O20   O     O_R   0.561620 0.112500 0.622850 -0.618867
O21   O     O_R   0.438400 0.989630 0.377130 -0.620099
O22   O     O_R   0.561600 0.010370 0.622870 -0.617789
O23   O     O_R   0.944190 0.034670 0.569380 -0.618617
O24   O     O_R   0.055810 0.965330 0.430620 -0.617603
Zn1   Zn    Zn3+2 0.068220 0.500010 0.499990 0.971403
Zn2   Zn    Zn3+2 0.931780 0.499990 0.500010 0.968374
Zn3   Zn    Zn3+2 0.499800 0.931810 0.500010 0.962292
Zn4   Zn    Zn3+2 0.500200 0.068190 0.499990 0.952530
Zn5   Zn    Zn3+2 0.046310 0.046310 0.592620 0.948094
Zn6   Zn    Zn3+2 0.953690 0.953690 0.407380 0.945644
C53   C     C_1   0.358739 0.697124 0.093449 0.169694
N1    N     N_1   0.384905 0.668514 0.128092 -0.185444
C54   C     C_1   0.594511 0.247282 0.908701 0.177149
N2    N     N_1   0.543327 0.261789 0.874588 -0.193545
C55   C     C_1   0.310309 0.661389 0.910836 0.163687
N3    N     N_1   0.341261 0.649757 0.877715 -0.196572
C56   C     C_1   0.683585 0.270013 0.091428 0.165310
N4    N     N_1   0.664245 0.255614 0.125242 -0.197689
C57   C     C_3   0.834170 0.990220 0.586341 -0.397474
C58   C     C_3   0.875844 0.940191 0.607574 -0.836918
H25   H     H_    0.843802 0.881114 0.555631 0.256388
H26   H     H_    0.931293 0.952898 0.618798 0.272902
H27   H     H_    0.883440 0.948840 0.665364 0.245156
H28   H     H_    0.867335 0.049206 0.637724 0.210733
H29   H     H_    0.783654 0.979105 0.585164 0.223040
C59   C     C_3   0.165376 0.009280 0.413187 -0.389899
C60   C     C_3   0.125639 0.060874 0.393375 -0.838054
H30   H     H_    0.070816 0.050473 0.384209 0.271575
H31   H     H_    0.159614 0.119586 0.445164 0.258227
H32   H     H_    0.116956 0.051408 0.334846 0.243624
H33   H     H_    0.215557 0.018277 0.413116 0.225558
H34   H     H_    0.130648 0.950711 0.361638 0.209687
C61   C     C_3   0.621786 0.860137 0.366933 -0.361068
C62   C     C_3   0.559952 0.861469 0.294456 -0.848105
H35   H     H_    0.536932 0.905939 0.317390 0.248915
H36   H     H_    0.581408 0.871098 0.261765 0.251514
H37   H     H_    0.514863 0.807507 0.249009 0.258024
H38   H     H_    0.644402 0.816256 0.341056 0.200109
H39   H     H_    0.599424 0.843824 0.394981 0.226185
C63   C     C_3   0.374974 0.142685 0.621523 -0.326712
C64   C     C_3   0.360658 0.204879 0.681228 -0.862082
H40   H     H_    0.306769 0.211133 0.645485 0.259742
H41   H     H_    0.360878 0.193285 0.725497 0.261354
H42   H     H_    0.405069 0.257899 0.718161 0.262272
H43   H     H_    0.429795 0.139164 0.659685 0.204376
H44   H     H_    0.377478 0.158227 0.581105 0.222477
C65   C     C_1   0.103656 0.748058 0.931366 0.141140
N5    N     N_1   0.064281 0.780486 0.914109 -0.220840
C66   C     C_1   0.894448 0.321499 0.066605 0.142081
N6    N     N_1   0.951800 0.314392 0.082809 -0.217432
C67   C     C_3   0.094693 0.626192 0.902511 -0.416562
C68   C     C_3   0.117256 0.555903 0.877501 -0.870062
H45   H     H_    0.132880 0.544606 0.832705 0.254686
H46   H     H_    0.161885 0.557272 0.931819 0.270297
H47   H     H_    0.068797 0.507884 0.844767 0.253247
H48   H     H_    0.071519 0.629628 0.939237 0.205364
H49   H     H_    0.046463 0.613822 0.841999 0.220075
C69   C     C_3   0.843110 0.420167 0.097137 -0.415073
C70   C     C_3   0.794055 0.459656 0.123602 -0.876266
H50   H     H_    0.737619 0.443471 0.069951 0.271326
H51   H     H_    0.791822 0.451271 0.168665 0.255753
H52   H     H_    0.818845 0.520179 0.156502 0.252319
H53   H     H_    0.898622 0.446301 0.157084 0.217742
H54   H     H_    0.849969 0.437597 0.060008 0.206397
C71   C     C_1   0.214892 0.687498 0.071445 0.128506
N7    N     N_1   0.221485 0.644337 0.088795 -0.195519
C72   C     C_1   0.715212 0.333631 0.929114 0.128014
N8    N     N_1   0.678424 0.368168 0.912518 -0.198519
C73   C     C_3   0.172082 0.792007 0.101220 -0.395743
C74   C     C_3   0.178037 0.871767 0.124937 -0.868550
H55   H     H_    0.236265 0.908552 0.170063 0.257668
H56   H     H_    0.151550 0.875792 0.070240 0.270367
H57   H     H_    0.148918 0.893845 0.156941 0.246339
H58   H     H_    0.112650 0.760778 0.065924 0.201229
H59   H     H_    0.198326 0.797505 0.162384 0.210117
C75   C     C_3   0.798720 0.278985 0.897165 -0.390711
C76   C     C_3   0.830485 0.215334 0.872373 -0.871282
H60   H     H_    0.854710 0.220172 0.839643 0.246751
H61   H     H_    0.875370 0.216845 0.926606 0.270600
H62   H     H_    0.786709 0.160683 0.827561 0.253838
H63   H     H_    0.757017 0.271115 0.836323 0.213880
H64   H     H_    0.842920 0.331673 0.932056 0.201174

loop_
_geom_bond_atom_site_label_1
_geom_bond_atom_site_label_2
_ccdc_geom_bond_type
C75   H63   S    
C73   H59   S    
C38   H18   S    
C30   O6    A    
C73   C74   S    
C57   H29   S    
C37   H17   S    
O13   Zn2   S    
C70   H51   S    
C1    O1    A    
C14   C18   S    
O1    Zn1   S    
C67   C68   S    
C68   H47   S    
C71   N7    T    
C60   H30   S    
C49   C53   S    
C76   H60   S    
C27   C33   S    
C6    H20   S    
C5    C47   S    
C26   O20   A    
C27   O23   A    
C50   H2    S    
C6    C48   S    
C4    C52   S    
C32   C36   S    
C39   C47   S    
C42   C69   S    
C68   H46   S    
C41   C65   S    
C27   O3    A    
C66   N6    T    
C49   H1    S    
C60   H31   S    
C13   H5    S    
C25   C45   S    
C16   C30   S    
C65   N5    T    
C22   C38   S    
C30   O8    A    
C58   H25   S    
C31   H13   S    
C16   H8    S    
C2    O10   A    
C11   C23   S    
C59   H33   S    
C63   H44   S    
C17   H9    S    
C61   H39   S    
C3    H3    S    
C72   N8    T    
C19   H11   S    
C49   C51   S    
O22   Zn3   S    
C50   C52   S    
C53   N1    T    
C23   O13   A    
C15   C29   S    
C44   C72   S    
C3    H23   S    
C8    C52   S    
C18   C20   D    
C44   C52   S    
C39   C55   S    
C67   H49   S    
C28   C34   S    
C34   C59   S    
C23   O11   A    
C4    H4    S    
C70   H52   S    
C74   H56   S    
C22   O18   A    
C42   C44   S    
O23   Zn5   S    
C36   C63   S    
O17   Zn4   S    
O19   Zn3   S    
C6    H22   S    
C43   C73   S    
C26   C46   S    
C1    O9    A    
C14   H6    S    
C64   H42   S    
O5    Zn5   S    
C33   C57   S    
C1    C19   S    
C2    C20   S    
C68   H45   S    
C4    C6    S    
C3    C51   S    
C18   H10   S    
C60   H32   S    
C25   O19   A    
O4    Zn5   S    
C50   C54   S    
O3    Zn6   S    
C32   C34   D    
C20   H12   S    
C62   H36   S    
C44   C75   S    
O14   Zn1   S    
C69   H54   S    
C63   H43   S    
C2    O2    A    
C24   O12   A    
C40   C56   S    
C41   C67   S    
O11   Zn1   S    
C31   C33   D    
O8    Zn5   S    
C41   C47   S    
C42   C48   S    
C9    C11   T    
C28   O24   A    
C69   C70   S    
C76   H61   S    
C10   C12   T    
C26   O22   A    
C43   C71   S    
C25   O21   A    
C39   C49   S    
C29   O5    A    
C9    C47   S    
C13   C15   D    
C10   C48   S    
C74   H55   S    
C14   C16   D    
C62   H37   S    
C7    C45   T    
C75   C76   S    
C32   H14   S    
C56   N4    T    
C21   O15   A    
C76   H62   S    
C75   H64   S    
C73   H58   S    
C40   C48   S    
C35   C61   S    
C55   N3    T    
C35   C37   D    
C64   H41   S    
C15   H7    S    
C41   C43   S    
O15   Zn3   S    
C63   C64   S    
C3    C5    S    
C24   O14   A    
O18   Zn3   S    
O12   Zn2   S    
C58   H27   S    
C59   H34   S    
C29   O7    A    
C39   H15   S    
C64   H40   S    
C12   C24   S    
O24   Zn6   S    
O7    Zn6   S    
C13   C17   S    
O20   Zn4   S    
C67   H48   S    
C61   C62   S    
C7    C51   S    
C69   H53   S    
C5    H19   S    
C54   N2    T    
O10   Zn1   S    
C43   C51   S    
C21   O17   A    
C40   C50   S    
C36   C38   D    
C17   C19   D    
C58   H26   S    
C62   H35   S    
C31   C35   S    
O6    Zn6   S    
C5    H21   S    
C28   O4    A    
C8    C46   T    
C4    H24   S    
O21   Zn4   S    
O16   Zn4   S    
C61   H38   S    
C21   C37   S    
C74   H57   S    
C57   H28   S    
C40   H16   S    
C70   H50   S    
C22   O16   A    
O2    Zn2   S    
C59   C60   S    
C42   C66   S    
O9    Zn2   S    
C57   C58   S    
