data_mof_unit_51422.cif
_audit_creation_date              2013-03-05T16:32:18-0500
_audit_creation_method            fapswitch 2.2
_symmetry_space_group_name_H-M    P1
_symmetry_Int_Tables_number       1
_space_group_crystal_system       triclinic
_cell_length_a                    15.920398
_cell_length_b                    10.841975
_cell_length_c                    9.582675
_cell_angle_alpha                 90.619088
_cell_angle_beta                  89.234986
_cell_angle_gamma                 90.887804
_cell_volume                      1653.61281007

loop_
_atom_site_label
_atom_site_type_symbol
_atom_site_description
_atom_site_fract_x
_atom_site_fract_y
_atom_site_fract_z
_atom_type_partial_charge
O1    O     O_R   0.500000 0.319640 0.618810 -0.548825
O2    O     O_R   0.500010 0.319680 0.381230 -0.589416
C1    C     C_R   0.497920 0.262747 0.499417 0.813336
O3    O     O_R   0.379430 0.499990 0.618840 -0.572532
O4    O     O_R   0.379440 0.500030 0.381260 -0.568245
C2    C     C_R   0.340531 0.500036 0.500745 0.810724
Cu1   Cu    Cu3+1 0.500000 0.499980 0.640670 1.008419
Cu2   Cu    Cu3+1 0.500000 0.500020 0.359330 0.991057
O5    O     O_R   0.499990 0.680320 0.618770 -0.587929
O6    O     O_R   0.500000 0.680360 0.381190 -0.585265
O7    O     O_R   0.620560 0.499970 0.618740 -0.573560
O8    O     O_R   0.620570 0.500010 0.381160 -0.571895
C3    C     C_R   0.499783 0.737622 0.500427 0.846340
C4    C     C_R   0.659527 0.499982 0.499229 0.851469
C5    C     C_3   0.048030 0.397189 0.562998 -0.459387
C6    C     C_3   0.051781 0.510571 0.332419 -0.171943
C7    C     C_3   0.951381 0.498958 0.341788 -0.287245
H1    H     H_    0.064066 0.314002 0.499991 0.214944
H2    H     H_    0.934032 0.401783 0.321748 0.210687
C8    C     C_1   0.748805 0.503388 0.497919 -0.045486
C9    C     C_3   0.084213 0.516218 0.490924 -0.014205
C10   C     C_3   0.951672 0.406542 0.585030 -0.192049
C11   C     C_3   0.916813 0.516528 0.496710 -0.033585
C12   C     C_3   0.950306 0.643968 0.564549 -0.210910
C13   C     C_3   0.052279 0.634324 0.580623 -0.229855
C14   C     C_1   0.824098 0.508433 0.497495 0.064206
C15   C     C_1   0.176376 0.508619 0.497401 0.116347
C16   C     C_1   0.251452 0.503693 0.501273 0.002142
H3    H     H_    0.940385 0.428229 0.696767 0.232277
C17   C     C_R   0.500291 0.065987 0.623467 0.065091
C18   C     C_R   0.491037 0.129896 0.499442 -0.056770
C19   C     C_R   0.473183 0.062669 0.376841 -0.182024
H4    H     H_    0.461205 0.109177 0.279802 0.166922
C20   C     C_R   0.474473 0.933734 0.377648 -0.177846
C21   C     C_R   0.494655 0.870990 0.500581 -0.036220
C22   C     C_R   0.504188 0.939773 0.623482 0.047213
C23   C     C_3   0.565644 0.940061 0.741708 -0.320546
C24   C     C_3   0.559129 0.081456 0.743433 -0.274251
C25   C     C_R   0.571977 0.524960 0.072190 0.254347
N1    N     N_R   0.500530 0.500930 0.147930 -0.203858
C26   C     C_R   0.432333 0.458983 0.077017 -0.098478
C27   C     C_R   0.432322 0.455841 0.929021 0.045222
N2    N     N_R   0.500530 0.500890 0.852020 -0.227770
C28   C     C_R   0.572096 0.524454 0.925331 0.272168
C29   C     C_3   0.625141 0.638207 0.920009 -0.458556
C30   C     C_3   0.624824 0.639271 0.078563 -0.439473
H5    H     H_    0.688087 0.621309 0.872711 0.245573
H6    H     H_    0.687652 0.622122 0.122915 0.243600
C31   C     C_2   0.908450 0.281531 0.562694 0.878961
O9    O     O_2   0.862954 0.239412 0.654907 -0.538901
O10   O     O_R   0.922126 0.212573 0.440514 -0.733874
H7    H     H_    0.890159 0.130954 0.440411 0.369976
H8    H     H_    0.078267 0.380341 0.664850 0.215519
C32   C     C_2   0.918531 0.751121 0.474494 0.927852
O11   O     O_2   0.844012 0.777854 0.480791 -0.522886
O12   O     O_R   0.970896 0.818852 0.384924 -0.714046
H9    H     H_    0.940237 0.885752 0.333892 0.369532
H10   H     H_    0.462598 0.883909 0.281162 0.166978
H11   H     H_    0.536931 0.899405 0.837204 0.135738
C33   C     C_2   0.652280 0.890838 0.708148 0.934997
O13   O     O_2   0.668079 0.841908 0.595466 -0.545633
O14   O     O_R   0.714645 0.902128 0.808828 -0.725668
H12   H     H_    0.770070 0.866943 0.775584 0.364816
H13   H     H_    0.525577 0.116051 0.838293 0.175482
C34   C     C_2   0.637833 0.156742 0.710963 0.953060
O15   O     O_2   0.677821 0.139687 0.602686 -0.559575
O16   O     O_R   0.662983 0.249015 0.805092 -0.735926
H14   H     H_    0.714344 0.296957 0.771356 0.362452
H15   H     H_    0.377910 0.425456 0.134729 0.180234
C35   C     C_2   0.358271 0.396688 0.865058 0.888012
O17   O     O_2   0.288514 0.438638 0.887998 -0.586486
O18   O     O_R   0.366972 0.288491 0.786232 -0.754397
H16   H     H_    0.311388 0.255904 0.749473 0.324212
H17   H     H_    0.590372 0.715139 0.875535 0.197344
H18   H     H_    0.590959 0.718835 0.125500 0.217901
C36   C     C_2   0.086971 0.619269 0.245867 0.933631
O19   O     O_2   0.163089 0.629977 0.228529 -0.530673
O20   O     O_R   0.035396 0.700650 0.176076 -0.704321
H19   H     H_    0.068211 0.764387 0.120016 0.359997
C37   C     C_2   0.087129 0.396315 0.253112 0.870765
O21   O     O_2   0.041017 0.325097 0.188722 -0.513363
O22   O     O_R   0.173857 0.376568 0.247586 -0.747952
H20   H     H_    0.189376 0.300624 0.190799 0.345291
C38   C     C_2   0.903377 0.554496 0.221733 0.924406
O23   O     O_2   0.849444 0.631910 0.241182 -0.570927
O24   O     O_R   0.919812 0.511580 0.086172 -0.668778
H21   H     H_    0.883364 0.552159 0.014658 0.371103
C39   C     C_2   0.081871 0.614916 0.733660 0.865799
O25   O     O_2   0.038879 0.558708 0.819243 -0.555891
O26   O     O_R   0.161983 0.656690 0.773477 -0.728932
H22   H     H_    0.174586 0.638331 0.874536 0.377229
C40   C     C_2   0.096638 0.757471 0.545087 0.941347
O27   O     O_2   0.073664 0.852014 0.604410 -0.516440
O28   O     O_R   0.167554 0.763365 0.458066 -0.732559
H23   H     H_    0.191172 0.850262 0.448159 0.345615
C41   C     C_2   0.909409 0.673184 0.707873 0.877967
O29   O     O_2   0.854626 0.606573 0.758635 -0.623577
O30   O     O_R   0.934264 0.780341 0.780029 -0.705052
H24   H     H_    0.904813 0.789406 0.873967 0.355676

loop_
_geom_bond_atom_site_label_1
_geom_bond_atom_site_label_2
_geom_bond_distance
_ccdc_geom_bond_type
C5    H1    1.111040 S    
C6    C9    1.611018 S    
C10   H3    1.106701 S    
C26   C27   1.418248 A    
C21   C22   1.395875 A    
Cu1   Cu2   2.695994 S    
C29   C30   1.519233 S    
Cu1   O7    1.928042 S    
C7    C11   1.586946 S    
C5    H8    1.112123 S    
C22   C23   1.506731 S    
C23   C24   1.538005 S    
C36   O20   1.396370 S    
C3    C21   1.449523 S    
C12   C41   1.543923 S    
C17   C18   1.392821 A    
O7    C4    1.295165 A    
C12   C32   1.549782 S    
C27   C35   1.471136 S    
O12   H9    1.014151 S    
C17   C24   1.498964 S    
C33   O14   1.396729 S    
C20   C21   1.409953 A    
C11   C14   1.477243 S    
O5    C3    1.299009 A    
C38   O23   1.221119 D    
C5    C10   1.550453 S    
C2    C16   1.419279 S    
C6    C7    1.602810 S    
C31   O10   1.398746 S    
C41   O30   1.400046 S    
C11   C12   1.607183 S    
C35   O17   1.222908 D    
Cu1   N2    2.025345 S    
C9    C15   1.473024 S    
O1    Cu1   1.964179 S    
O3    Cu1   1.933665 S    
C30   H18   1.112044 S    
C24   H13   1.112738 S    
C29   H5    1.111312 S    
C32   O12   1.395172 S    
O10   H7    1.013955 S    
C4    C8    1.421127 S    
C12   C13   1.637846 S    
C37   O22   1.400749 S    
C25   N1    1.364310 A    
O24   H21   1.012396 S    
O18   H16   1.013876 S    
C34   O16   1.397325 S    
O22   H20   1.013979 S    
C13   C39   1.563664 S    
O16   H14   1.013272 S    
C33   O13   1.222770 D    
O1    C1    1.294480 A    
C19   C20   1.398481 A    
N2    C28   1.365805 A    
O14   H12   1.012867 S    
C18   C19   1.405813 A    
C24   C34   1.515407 S    
Cu2   O8    1.933662 S    
C41   O29   1.222952 D    
C40   O28   1.395681 S    
C36   O19   1.224857 D    
C1    C18   1.442836 S    
C23   H11   1.109948 S    
C25   C30   1.488291 S    
O3    C2    1.297280 A    
N1    C26   1.358351 A    
C39   O26   1.403117 S    
C31   O9    1.222861 D    
C10   C31   1.524816 S    
C27   N2    1.390010 A    
C28   C29   1.484841 S    
C26   H15   1.081874 S    
Cu1   O5    1.968727 S    
C9    C13   1.619170 S    
C32   O11   1.226175 D    
C13   C40   1.539980 S    
C6    C36   1.542363 S    
O2    Cu2   1.968727 S    
C38   O24   1.397894 S    
C37   O21   1.224782 D    
O6    C3    1.294464 A    
O4    Cu2   1.928045 S    
C25   C28   1.407226 A    
C17   C22   1.370782 A    
C7    C38   1.524097 S    
C19   H4    1.083131 S    
O2    C1    1.295478 A    
O8    C4    1.297512 A    
O20   H19   1.014098 S    
O26   H22   1.014049 S    
O4    C2    1.294511 A    
C8    C14   1.199053 T    
C40   O27   1.225189 D    
C7    H2    1.100552 S    
C34   O15   1.223904 D    
O28   H23   1.013909 S    
C23   C33   1.515871 S    
C30   H6    1.111100 S    
C5    C9    1.568395 S    
C39   O25   1.222837 D    
Cu2   O6    1.964179 S    
O30   H24   1.013931 S    
C15   C16   1.198346 T    
C20   H10   1.083119 S    
C10   C11   1.581489 S    
C29   H17   1.100919 S    
C35   O18   1.396045 S    
Cu2   N1    2.025812 S    
C6    C37   1.555186 S    
