data_mof_unit_34664.cif
_audit_creation_date              2012-12-10T16:38:31-0500
_audit_creation_method            fapswitch 2.2
_symmetry_space_group_name_H-M    P1
_symmetry_Int_Tables_number       1
_space_group_crystal_system       triclinic
_cell_length_a                    10.87898
_cell_length_b                    10.861615
_cell_length_c                    17.594308
_cell_angle_alpha                 98.883448
_cell_angle_beta                  73.652333
_cell_angle_gamma                 98.948615
_cell_volume                      1957.19716927

loop_
_atom_site_label
_atom_site_type_symbol
_atom_type_description
_atom_site_fract_x
_atom_site_fract_y
_atom_site_fract_z
_atom_type_partial_charge
C1    C     C_R   0.158038 0.479076 0.516936 0.813279
C2    C     C_R   0.479455 0.306787 0.930963 0.444389
C3    C     C_R   0.536788 0.241364 0.972782 0.503309
C4    C     C_R   0.842789 0.521159 0.483305 0.814927
C5    C     C_R   0.548598 0.292541 0.050236 -0.307310
C6    C     C_R   0.483389 0.398241 0.089721 -0.103079
C7    C     C_R   0.624226 0.241178 0.088747 0.436740
C8    C     C_R   0.638536 0.296778 0.163884 0.319558
C9    C     C_R   0.503798 0.458499 0.163767 0.463346
C10   C     C_2   0.979872 0.531141 0.478968 0.164151
C11   C     C_2   0.021180 0.466566 0.525079 0.275661
C12   C     C_R   0.317734 0.670328 0.843114 -0.341911
C13   C     C_2   0.546767 0.969058 0.483131 0.222665
C14   C     C_2   0.448645 0.035478 0.523747 0.264393
C15   C     C_R   0.467423 0.168302 0.517285 0.826808
C16   C     C_R   0.530896 0.833188 0.483601 0.791278
C17   C     C_R   0.562368 0.435459 0.287439 0.862804
C18   C     C_R   0.437172 0.563991 0.712958 0.806128
C19   C     C_R   0.400937 0.582457 0.801093 -0.116015
C20   C     C_R   0.577770 0.404071 0.201634 -0.285383
C21   C     C_R   0.268246 0.676847 0.926661 0.526281
C22   C     C_3   0.034045 0.592094 0.091940 -0.188694
C23   C     C_R   0.443667 0.506701 0.843186 -0.155959
C24   C     C_3   0.628114 0.029316 0.078326 0.172538
C25   C     C_3   0.701244 0.920246 0.031497 -0.369494
C26   C     C_3   0.629401 0.794183 0.055954 -0.900430
C27   C     C_3   0.083727 0.728109 0.456422 0.083168
C28   C     C_3   0.080579 0.814051 0.396050 -0.300766
C29   C     C_3   0.109986 0.952041 0.426316 -0.959178
C30   C     C_3   0.983878 0.296276 0.598296 -0.298204
C31   C     C_3   0.758394 0.035365 0.476555 -0.311579
C32   C     C_3   0.251818 0.053228 0.619629 -0.333896
C33   C     C_3   0.405273 0.609444 0.264255 -0.152134
C34   C     C_R   0.391256 0.504497 0.925838 -0.019103
C35   C     C_3   0.670214 0.190520 0.260259 -0.231786
C36   C     C_3   0.496241 0.033618 0.924751 -0.247197
C37   C     C_3   0.096741 0.789726 0.935345 0.094793
C38   C     C_3   0.127686 0.917549 0.903406 -0.376980
C39   C     C_3   0.039251 0.931706 0.852491 -0.937039
C40   C     C_3   0.177832 0.380327 0.180422 -0.315417
C41   C     C_3   0.339082 0.211544 0.858026 -0.365590
C42   C     C_R   0.304255 0.592184 0.968379 -0.154508
C43   C     C_R   0.427899 0.420241 0.967757 -0.184903
C44   C     C_R   0.405677 0.446932 0.050998 -0.116440
C45   C     C_R   0.300441 0.515070 0.092336 0.515198
C46   C     C_R   0.251325 0.588693 0.051436 0.409174
H1    H     H_    0.291850 0.734205 0.810379 0.177576
H2    H     H_    0.617384 0.791025 0.120447 0.296598
H3    H     H_    0.685374 0.717169 0.021392 0.263296
H4    H     H_    0.532982 0.779167 0.043788 0.270564
H5    H     H_    0.179625 0.746947 0.469411 0.189646
H6    H     H_    0.009378 0.752687 0.513147 0.111798
H7    H     H_    0.152813 0.790841 0.338770 0.234827
H8    H     H_    0.983445 0.798623 0.384840 0.244281
H9    H     H_    0.039745 0.977483 0.484052 0.249753
H10   H     H_    0.103123 0.011933 0.382263 0.264867
H11   H     H_    0.209155 0.970739 0.434311 0.298900
H12   H     H_    0.518491 0.449448 0.810436 0.228839
H13   H     H_    0.060736 0.327006 0.629861 0.144687
H14   H     H_    0.019777 0.234759 0.541984 0.156064
H15   H     H_    0.904931 0.239380 0.637610 0.196873
H16   H     H_    0.785139 0.940892 0.477177 0.172293
H17   H     H_    0.730362 0.083794 0.538417 0.172320
H18   H     H_    0.845594 0.091404 0.443287 0.200419
H19   H     H_    0.215116 0.122988 0.594100 0.156485
H20   H     H_    0.306438 0.100713 0.662982 0.153140
H21   H     H_    0.166849 0.994560 0.652907 0.197266
H22   H     H_    0.341001 0.679594 0.264840 0.198846
H23   H     H_    0.012428 0.511436 0.127330 0.180141
H24   H     H_    0.467410 0.654138 0.303558 0.136833
H25   H     H_    0.342388 0.525857 0.288796 0.177517
H26   H     H_    0.566303 0.155466 0.266374 0.133888
H27   H     H_    0.681189 0.250699 0.315532 0.177970
H28   H     H_    0.721758 0.107805 0.254856 0.195309
H29   H     H_    0.403218 0.039076 0.971805 0.128896
H30   H     H_    0.530947 0.944185 0.927392 0.174267
H31   H     H_    0.480426 0.026831 0.864645 0.204409
H32   H     H_    0.005032 0.790367 0.983340 0.159411
H33   H     H_    0.077651 0.712604 0.888796 0.122094
H34   H     H_    0.028411 0.558946 0.029731 0.121973
H35   H     H_    0.116440 0.992852 0.954543 0.224215
H36   H     H_    0.229215 0.929650 0.866824 0.212328
H37   H     H_    0.053542 0.860708 0.799044 0.265619
H38   H     H_    0.062226 0.026660 0.832425 0.260253
H39   H     H_    0.936908 0.919826 0.887506 0.270300
H40   H     H_    0.248981 0.318831 0.182558 0.158735
H41   H     H_    0.129271 0.340053 0.132615 0.144686
H42   H     H_    0.102813 0.380878 0.238146 0.218378
H43   H     H_    0.287703 0.288896 0.852565 0.188685
H44   H     H_    0.286187 0.167342 0.912958 0.141301
H45   H     H_    0.957797 0.654681 0.119113 0.187462
H46   H     H_    0.335982 0.139585 0.806301 0.189616
H47   H     H_    0.528091 0.013927 0.071362 0.125848
H48   H     H_    0.622243 0.029087 0.142109 0.128323
H49   H     H_    0.714229 0.920874 0.966700 0.240097
H50   H     H_    0.798398 0.931790 0.042467 0.227137
O1    O     O_3   0.500000 0.500000 0.500000 -0.492202
O2    O     O_R   0.470800 0.371790 0.332500 -0.677615
O3    O     O_R   0.380610 0.619380 0.674980 -0.642526
O4    O     O_R   0.632640 0.524780 0.317540 -0.614981
O5    O     O_R   0.515950 0.484050 0.674980 -0.633128
O6    O     O_3   0.154537 0.660523 0.094545 -0.540674
O7    O     O_3   0.694733 0.143047 0.050237 -0.557460
O8    O     O_3   0.066863 0.601252 0.422974 -0.668965
O9    O     O_3   0.933938 0.400475 0.584083 -0.594546
O10   O     O_3   0.660110 0.028125 0.437554 -0.639240
O11   O     O_3   0.327019 0.974566 0.558523 -0.614469
O12   O     O_R   0.535460 0.243030 0.556410 -0.639504
O13   O     O_3   0.481191 0.583964 0.185139 -0.608142
O14   O     O_3   0.729497 0.256498 0.193397 -0.596670
O15   O     O_3   0.592623 0.133940 0.934703 -0.551688
O16   O     O_3   0.195213 0.771877 0.969548 -0.608506
O17   O     O_3   0.236607 0.504694 0.171564 -0.577481
O18   O     O_3   0.469869 0.253826 0.855596 -0.596414
O19   O     O_R   0.437420 0.784080 0.535340 -0.606739
O20   O     O_R   0.223560 0.397520 0.472140 -0.660367
O21   O     O_R   0.803560 0.575360 0.436110 -0.631406
O22   O     O_R   0.209690 0.568800 0.556400 -0.651163
O23   O     O_R   0.763190 0.458310 0.535350 -0.591495
O24   O     O_R   0.414000 0.207090 0.472140 -0.658339
O25   O     O_R   0.613120 0.765800 0.436110 -0.638184
Zn1   Zn    Zn3+2 0.577310 0.422690 0.565550 0.998509
Zn2   Zn    Zn3+2 0.403760 0.371330 0.445150 0.938968
Zn3   Zn    Zn3+2 0.634990 0.589920 0.423760 0.973477
Zn4   Zn    Zn3+2 0.383940 0.616050 0.565540 0.968331

loop_
_geom_bond_atom_site_label_1
_geom_bond_atom_site_label_2
_ccdc_geom_bond_type
C23   H12   S    
C41   H43   S    
C35   H28   S    
O20   Zn2   S    
C34   C42   A    
C41   O18   S    
C43   C44   A    
C6    C9    A    
C7    C8    A    
O3    Zn4   S    
C45   C46   A    
C44   C45   A    
C46   O6    S    
O1    Zn1   S    
C40   H41   S    
C28   C29   S    
O21   Zn3   S    
C39   H38   S    
O1    Zn3   S    
C24   H48   S    
C36   H31   S    
C26   H4    S    
C5    C6    A    
C27   O8    S    
C17   C20   S    
C15   O24   A    
C18   C19   S    
C42   C46   A    
C40   H40   S    
C37   O16   S    
C36   H30   S    
C3    O15   S    
O25   Zn3   S    
C32   O11   S    
C30   H14   S    
C11   O9    S    
C22   H45   S    
C4    O23   A    
C1    O20   A    
C17   O2    A    
C22   H23   S    
O24   Zn2   S    
C26   H2    S    
C41   H44   S    
C7    O7    S    
C13   C14   D    
C38   H36   S    
C31   H16   S    
C12   H1    S    
C27   H5    S    
C9    O13   S    
O2    Zn2   S    
C31   H17   S    
C24   C25   S    
O1    Zn4   S    
C26   H3    S    
C5    C7    A    
C28   H8    S    
C29   H9    S    
C25   C26   S    
C12   C21   A    
O4    Zn3   S    
C18   O5    A    
C15   O12   A    
C19   C23   A    
C16   O25   A    
C37   C38   S    
C36   H29   S    
C8    O14   S    
C37   H33   S    
C9    C20   A    
C40   O17   S    
C2    C43   A    
C23   C34   A    
C30   H13   S    
C36   O15   S    
C8    C20   A    
C35   O14   S    
C33   H24   S    
C32   H21   S    
C14   O11   S    
O22   Zn4   S    
C29   H11   S    
C35   H26   S    
C25   H49   S    
C38   H35   S    
C31   O10   S    
C4    O21   A    
C30   H15   S    
C33   O13   S    
C18   O3    A    
C39   H39   S    
C4    C10   S    
C16   O19   A    
C21   O16   S    
C27   H6    S    
C32   H20   S    
O23   Zn1   S    
C35   H27   S    
C31   H18   S    
C34   C43   A    
O12   Zn1   S    
C13   O10   S    
C3    C5    A    
C22   O6    S    
C28   H7    S    
C29   H10   S    
C37   H32   S    
O5    Zn1   S    
O19   Zn4   S    
C24   O7    S    
C40   H42   S    
C10   O8    S    
C2    C3    A    
C22   H34   S    
C30   O9    S    
C24   H47   S    
C2    O18   S    
C38   C39   S    
C12   C19   A    
C1    O22   A    
C17   O4    A    
C10   C11   D    
C33   H25   S    
C39   H37   S    
C21   C42   A    
C45   O17   S    
C41   H46   S    
C25   H50   S    
O1    Zn2   S    
C13   C16   S    
C27   C28   S    
C14   C15   S    
C6    C44   A    
C1    C11   S    
C33   H22   S    
C32   H19   S    
