data_mof_unit_24921.cif
_audit_creation_date              2012-12-10T17:13:44-0500
_audit_creation_method            fapswitch 2.2
_symmetry_space_group_name_H-M    P1
_symmetry_Int_Tables_number       1
_space_group_crystal_system       triclinic
_cell_length_a                    26.904572
_cell_length_b                    10.708484
_cell_length_c                    10.088024
_cell_angle_alpha                 89.258198
_cell_angle_beta                  90.93264
_cell_angle_gamma                 90.682968
_cell_volume                      2905.60425339

loop_
_atom_site_label
_atom_site_type_symbol
_atom_type_description
_atom_site_fract_x
_atom_site_fract_y
_atom_site_fract_z
_atom_type_partial_charge
Br1   Br    Br    0.434100 0.474146 0.907397 -0.354605
Br2   Br    Br    0.136089 0.144293 0.871767 -0.344561
Br3   Br    Br    0.614767 0.248619 0.336030 -0.400919
Br4   Br    Br    0.862854 0.089477 0.838120 -0.339804
C1    C     C_R   0.495463 0.263631 0.500648 0.955337
C2    C     C_R   0.973765 0.206118 0.578802 0.025332
C3    C     C_R   0.974785 0.307487 0.359186 0.082244
C4    C     C_R   0.405629 0.495362 0.498905 0.892910
C5    C     C_R   0.948373 0.265392 0.472116 0.088915
C6    C     C_R   0.945477 0.152722 0.681777 -0.254040
C7    C     C_R   0.894289 0.169530 0.688703 0.336988
C8    C     C_R   0.869359 0.242362 0.590659 -0.113882
C9    C     C_R   0.896675 0.287784 0.480742 -0.093591
C10   C     C_R   0.872713 0.359321 0.380793 -0.016512
C11   C     C_R   0.822420 0.386371 0.392281 0.540148
C12   C     C_R   0.294279 0.294074 0.424107 0.008581
C13   C     C_R   0.818485 0.273515 0.597558 0.572458
C14   C     C_R   0.709681 0.310098 0.441308 -0.091102
C15   C     C_R   0.660804 0.350337 0.435860 0.227240
C16   C     C_R   0.499371 0.737485 0.498868 0.948358
C17   C     C_R   0.684419 0.532921 0.567410 -0.074587
C18   C     C_R   0.733351 0.488780 0.572696 -0.118963
C19   C     C_R   0.745796 0.378591 0.509536 0.217988
C20   C     C_R   0.026607 0.208400 0.581991 0.018111
C21   C     C_R   0.052600 0.250197 0.468534 0.073778
C22   C     C_R   0.026315 0.283558 0.350544 -0.011472
C23   C     C_R   0.257307 0.355206 0.496485 0.212756
C24   C     C_R   0.054281 0.176973 0.697338 -0.208571
C25   C     C_R   0.104830 0.317429 0.239268 -0.133240
C26   C     C_R   0.950020 0.383549 0.264818 -0.148653
C27   C     C_R   0.899756 0.407153 0.274198 -0.091673
C28   C     C_R   0.594504 0.495243 0.500581 0.992321
C29   C     C_R   0.053409 0.299366 0.231329 -0.072945
C30   C     C_2   0.472973 0.934737 0.404338 -0.137703
C31   C     C_2   0.501943 0.870753 0.493262 -0.235231
C32   C     C_2   0.478911 0.069118 0.392815 -0.121939
C33   C     C_2   0.481262 0.135170 0.503468 -0.313326
C34   C     C_R   0.105012 0.263618 0.474042 -0.089931
C35   C     C_2   0.531112 0.562034 0.929441 0.013181
C36   C     C_2   0.521070 0.585691 0.073068 -0.063206
C37   C     C_R   0.183393 0.267295 0.596859 0.597336
C38   C     C_R   0.180970 0.334572 0.370310 0.576762
C39   C     C_R   0.269686 0.461507 0.570924 -0.089371
C40   C     C_R   0.318113 0.508987 0.572565 -0.144670
C41   C     C_R   0.342122 0.346353 0.422086 -0.233441
C42   C     C_2   0.674821 0.658250 0.621781 0.965576
C43   C     C_2   0.030422 0.282482 0.097537 0.917313
C44   C     C_2   0.431806 0.877424 0.324116 0.992011
C45   C     C_R   0.131860 0.239314 0.593423 -0.116652
C46   C     C_2   0.543624 0.928079 0.570877 0.925476
C47   C     C_2   0.284552 0.175150 0.352719 0.972416
C48   C     C_2   0.579479 0.605386 0.879480 0.943575
C49   C     C_2   0.539885 0.703070 0.130918 1.019228
C50   C     C_R   0.105798 0.191451 0.704235 0.355906
C51   C     C_R   0.130311 0.306077 0.360639 -0.027348
C52   C     C_R   0.354033 0.453167 0.495517 -0.054977
C53   C     C_R   0.647302 0.461389 0.500492 -0.171599
H1    H     H_    0.371070 0.300852 0.367574 0.192418
H2    H     H_    0.720049 0.226458 0.389729 0.184517
H3    H     H_    0.962305 0.095416 0.758374 0.172023
H4    H     H_    0.036576 0.146446 0.787299 0.178974
H5    H     H_    0.327339 0.590050 0.631614 0.180084
H6    H     H_    0.635154 0.815634 0.612558 0.365719
H7    H     H_    0.977225 0.198122 0.986085 0.350046
H8    H     H_    0.377238 0.746951 0.310768 0.357921
H9    H     H_    0.604634 0.039302 0.571055 0.359229
H10   H     H_    0.307850 0.052337 0.217387 0.377902
H11   H     H_    0.626257 0.751767 0.852514 0.377116
H12   H     H_    0.241398 0.508113 0.626493 0.165850
H13   H     H_    0.535421 0.890712 0.134923 0.364637
H14   H     H_    0.125247 0.336659 0.149364 0.238324
H15   H     H_    0.969520 0.431409 0.186107 0.153106
H16   H     H_    0.882456 0.465997 0.198893 0.203429
H17   H     H_    0.762736 0.543036 0.620029 0.186520
H18   H     H_    0.482924 0.111735 0.295148 0.222199
H19   H     H_    0.473814 0.092115 0.599518 0.176922
H20   H     H_    0.495884 0.414250 0.107060 0.222277
N1    N     N_R   0.206147 0.316553 0.487430 -0.350409
N2    N     N_R   0.796775 0.344657 0.499779 -0.357606
N3    N     N_2   0.500520 0.501330 0.852150 -0.027093
N4    N     N_2   0.500540 0.501360 0.147810 -0.206693
O1    O     O_R   0.499990 0.319060 0.613040 -0.598385
O2    O     O_R   0.571240 0.499960 0.613080 -0.597370
O3    O     O_R   0.571250 0.500000 0.386950 -0.551991
O4    O     O_2   0.210810 0.247764 0.707878 -0.466626
O5    O     O_2   0.702891 0.701953 0.706332 -0.585384
O6    O     O_R   0.635394 0.729532 0.572376 -0.795306
O7    O     O_2   0.047401 0.338005 0.001355 -0.608554
O8    O     O_R   0.989832 0.200971 0.081232 -0.764463
O9    O     O_2   0.420395 0.923006 0.216217 -0.559240
O10   O     O_R   0.404490 0.775944 0.374207 -0.813405
O11   O     O_2   0.547317 0.907715 0.690099 -0.546898
O12   O     O_2   0.790765 0.235429 0.700714 -0.457848
O13   O     O_R   0.578553 0.004622 0.507391 -0.742429
O14   O     O_2   0.248092 0.110482 0.378166 -0.599564
O15   O     O_R   0.318039 0.135141 0.257926 -0.761806
O16   O     O_2   0.611203 0.529301 0.853088 -0.585775
O17   O     O_R   0.590375 0.733159 0.874760 -0.727365
O18   O     O_2   0.574937 0.701536 0.209458 -0.565279
O19   O     O_R   0.519162 0.816357 0.089691 -0.725919
O20   O     O_2   0.204890 0.382236 0.264064 -0.523072
O21   O     O_2   0.799195 0.455289 0.297409 -0.510597
O22   O     O_R   0.500010 0.319100 0.386900 -0.608031
O23   O     O_R   0.428750 0.500000 0.613050 -0.569537
O24   O     O_R   0.428760 0.500040 0.386920 -0.596875
O25   O     O_R   0.499990 0.680900 0.613100 -0.573646
O26   O     O_R   0.500010 0.680940 0.386960 -0.602344
Zn1   Zn    Zn3+2 0.499990 0.499970 0.650990 1.096372
Zn2   Zn    Zn3+2 0.500010 0.500030 0.349010 1.050192

loop_
_geom_bond_atom_site_label_1
_geom_bond_atom_site_label_2
_ccdc_geom_bond_type
C1    O22   A    
C1    C33   S    
C43   O8    S    
C12   C47   S    
C10   C27   A    
C23   N1    S    
C4    O24   A    
C4    C52   S    
C2    C5    A    
C34   C45   A    
C49   O18   D    
C3    C22   A    
C28   C53   S    
C32   C33   D    
C14   C15   A    
C26   C27   A    
C21   C34   A    
C27   H16   S    
C45   C50   A    
C25   C29   A    
C48   O16   D    
C13   N2    A    
O2    Zn1   S    
H8    O10   S    
C30   C31   D    
C5    C9    A    
C16   C31   S    
C11   N2    A    
C34   C51   A    
C41   C52   A    
C44   O10   S    
C8    C13   A    
Br3   C15   S    
O1    Zn1   S    
C47   O15   S    
H9    O13   S    
C16   O26   A    
C24   H4    S    
C12   C23   A    
C35   C48   S    
C39   H12   S    
C3    C26   A    
C44   O9    D    
C9    C10   A    
C42   O5    D    
O26   Zn2   S    
H7    O8    S    
C37   C45   A    
H13   O19   S    
C16   O25   A    
C49   O19   S    
C28   O3    A    
C41   H1    S    
C14   C19   A    
C37   N1    A    
C20   C21   A    
Br2   C50   S    
C35   C36   S    
C24   C50   A    
C46   O13   S    
C25   C51   A    
C40   H5    S    
C21   C22   A    
C15   C53   A    
C6    H3    S    
C39   C40   A    
C17   C53   A    
C32   H18   S    
C38   C51   A    
C40   C52   A    
C22   C29   A    
H20   N4    S    
C2    C20   A    
C31   C46   S    
Br4   C7    S    
C4    O23   A    
C46   O11   D    
C33   H19   S    
N4    Zn2   S    
C38   N1    A    
H10   O15   S    
C29   C43   S    
C30   C44   S    
C18   H17   S    
C38   O20   S    
O23   Zn1   S    
C42   O6    S    
C3    C5    A    
C28   O2    A    
O24   Zn2   S    
H6    O6    S    
C18   C19   A    
C36   N4    D    
C20   C24   A    
C12   C41   A    
C2    C6    A    
C26   H15   S    
C7    C8    A    
C37   O4    S    
N3    Zn1   S    
O3    Zn2   S    
O22   Zn2   S    
C43   O7    D    
C35   N3    D    
C1    O1    A    
O25   Zn1   S    
C48   O17   S    
C30   C32   S    
C11   O21   S    
H11   O17   S    
C6    C7    A    
C17   C42   S    
C23   C39   A    
C14   H2    S    
C13   O12   S    
C8    C9    A    
C36   C49   S    
Br1   N3    S    
C10   C11   A    
C19   N2    S    
C17   C18   A    
C47   O14   D    
C25   H14   S    
