data_mof_unit_56037.cif
_audit_creation_date              2012-12-10T17:10:25-0500
_audit_creation_method            fapswitch 2.2
_symmetry_space_group_name_H-M    P1
_symmetry_Int_Tables_number       1
_space_group_crystal_system       triclinic
_cell_length_a                    10.727775
_cell_length_b                    13.0082
_cell_length_c                    11.685627
_cell_angle_alpha                 100.106729
_cell_angle_beta                  94.689815
_cell_angle_gamma                 89.765038
_cell_volume                      1599.95124008

loop_
_atom_site_label
_atom_site_type_symbol
_atom_type_description
_atom_site_fract_x
_atom_site_fract_y
_atom_site_fract_z
_atom_type_partial_charge
C1    C     C_R   0.498557 0.298994 0.478485 0.846698
C2    C     C_R   0.501442 0.701006 0.521514 0.846697
C3    C     C_R   0.501712 0.814494 0.533933 -0.051796
C4    C     C_R   0.498287 0.185506 0.466066 -0.051796
C5    C     C_R   0.500797 0.014499 0.344662 -0.164270
C6    C     C_R   0.499200 0.985501 0.655338 -0.164268
C7    C     C_R   0.499503 0.122635 0.355492 -0.200176
C8    C     C_R   0.500493 0.877365 0.644508 -0.200175
C9    C     C_R   0.497737 0.139506 0.565795 -0.158924
C10   C     C_R   0.502265 0.860494 0.434204 -0.158923
C11   C     C_R   0.499193 0.031491 0.555717 0.144995
C12   C     C_R   0.500807 0.968508 0.444283 0.144995
C13   C     C_R   0.586666 0.391315 0.048603 -0.297319
C14   C     C_R   0.413333 0.608685 0.951397 -0.297319
C15   C     C_R   0.554212 0.403191 0.163404 0.028639
C16   C     C_R   0.445787 0.596809 0.836596 0.028640
C17   C     C_R   0.426524 0.548164 0.141482 0.528952
C18   C     C_R   0.573476 0.451836 0.858518 0.528951
C19   C     C_R   0.458920 0.539670 0.023451 -0.021577
C20   C     C_R   0.541080 0.460330 0.976549 -0.021577
C21   C     C_R   0.262154 0.485504 0.497488 0.853221
C22   C     C_R   0.737846 0.514496 0.502512 0.853222
C23   C     C_R   0.125345 0.432204 0.695995 0.409094
C24   C     C_R   0.874654 0.567796 0.304005 0.409096
C25   C     C_R   0.079966 0.459857 0.805754 -0.148633
C26   C     C_R   0.920032 0.540142 0.194245 -0.148633
C27   C     C_R   0.976399 0.523935 0.819839 -0.177702
C28   C     C_R   0.023600 0.476065 0.180161 -0.177702
C29   C     C_R   0.910613 0.552299 0.722549 -0.083848
C30   C     C_R   0.089387 0.447702 0.277451 -0.083847
C31   C     C_R   0.950118 0.519299 0.609416 0.029008
C32   C     C_R   0.049881 0.480702 0.390584 0.029008
C33   C     C_R   0.068554 0.472954 0.599156 -0.011426
C34   C     C_R   0.931445 0.527046 0.400844 -0.011427
C35   C     C_R   0.875011 0.531122 0.506822 -0.164662
C36   C     C_R   0.124988 0.468879 0.493177 -0.164662
Cu1   Cu    Cu3+1 0.509250 0.507730 0.615930 1.014073
Cu2   Cu    Cu3+1 0.490750 0.492270 0.384070 1.014072
H1    H     H_    0.056268 0.452006 0.094403 0.156446
H2    H     H_    0.943730 0.547993 0.905596 0.156447
H3    H     H_    0.649903 0.329274 0.018479 0.201130
H4    H     H_    0.350096 0.670726 0.981521 0.201130
H5    H     H_    0.124409 0.430767 0.880148 0.164759
H6    H     H_    0.875589 0.569232 0.119851 0.164759
H7    H     H_    0.830481 0.602177 0.737154 0.162151
H8    H     H_    0.169519 0.397824 0.262846 0.162151
H9    H     H_    0.503927 0.812500 0.348551 0.208366
H10   H     H_    0.496076 0.187500 0.651449 0.208365
H11   H     H_    0.499951 0.843079 0.722504 0.157847
H12   H     H_    0.500041 0.156921 0.277496 0.157849
H13   H     H_    0.501959 0.966976 0.258729 0.155850
H14   H     H_    0.498035 0.033024 0.741271 0.155849
H15   H     H_    0.401475 0.647791 0.782374 0.159153
H16   H     H_    0.598523 0.352208 0.217626 0.159154
N1    N     N_R   0.523180 0.519350 0.790130 -0.200358
N2    N     N_R   0.476820 0.480650 0.209870 -0.200359
O1    O     O_R   0.506570 0.354460 0.582000 -0.506519
O2    O     O_R   0.493430 0.645540 0.418000 -0.506519
O3    O     O_R   0.490940 0.341410 0.386200 -0.632925
O4    O     O_R   0.509060 0.658590 0.613800 -0.632925
O5    O     O_R   0.327470 0.506520 0.597900 -0.565450
O6    O     O_R   0.672530 0.493480 0.402100 -0.565451
O7    O     O_R   0.311840 0.493460 0.402100 -0.562622
O8    O     O_R   0.688160 0.506540 0.597900 -0.562621
Cl1   Cl    Cl    0.236741 0.331479 0.680320 -0.635908
Cl2   Cl    Cl    0.763258 0.668521 0.319680 -0.635908
Cl3   Cl    Cl    0.676303 0.355103 0.798221 -0.636270
Cl4   Cl    Cl    0.323697 0.644897 0.201779 -0.636270

loop_
_geom_bond_atom_site_label_1
_geom_bond_atom_site_label_2
_ccdc_geom_bond_type
C18   C20   A    
Cu1   O5    S    
C11   C12   A    
C2    O2    A    
C33   C36   A    
Cu1   Cu2   S    
C14   C16   A    
C1    O1    A    
C22   O6    A    
C21   O5    A    
C19   C20   A    
C13   C20   A    
C13   C15   A    
C24   Cl2   S    
C27   H2    S    
C14   H4    S    
C1    C4    S    
C15   N2    A    
C23   Cl1   S    
C13   H3    S    
C2    C3    S    
C18   Cl3   S    
C16   N1    A    
C26   H6    S    
C29   C31   A    
C3    C10   A    
C30   C32   A    
C22   C35   S    
C9    C11   A    
C17   N2    A    
C25   H5    S    
C10   C12   A    
C18   N1    A    
C5    C12   A    
C4    C7    A    
C32   C36   A    
C28   C30   A    
C17   C19   A    
C24   C26   A    
C34   C35   A    
C31   C35   A    
C1    O3    A    
C3    C8    A    
Cu1   O1    S    
C2    O4    A    
C21   O7    A    
Cu1   O4    S    
C25   C27   A    
C31   C33   A    
C22   O8    A    
Cu2   O3    S    
Cu1   N1    S    
C15   H16   S    
C10   H9    S    
C23   C25   A    
Cu2   N2    S    
C27   C29   A    
C9    H10   S    
C5    C7    A    
Cu2   O7    S    
C6    C11   A    
C21   C36   S    
C16   H15   S    
C5    H13   S    
C17   Cl4   S    
C6    C8    A    
C8    H11   S    
C28   H1    S    
C6    H14   S    
C4    C9    A    
Cu2   O2    S    
Cu2   O6    S    
C26   C28   A    
C14   C19   A    
C30   H8    S    
C24   C34   A    
C7    H12   S    
C29   H7    S    
Cu1   O8    S    
C23   C33   A    
C32   C34   A    
