data_mof_unit_50786.cif
_audit_creation_date              2012-12-11T15:39:11-0500
_audit_creation_method            fapswitch 2.2
_symmetry_space_group_name_H-M    P1
_symmetry_Int_Tables_number       1
_space_group_crystal_system       triclinic
_cell_length_a                    14.306276
_cell_length_b                    14.83254
_cell_length_c                    33.26266
_cell_angle_alpha                 98.009285
_cell_angle_beta                  90.440381
_cell_angle_gamma                 118.70609
_cell_volume                      6107.73700078

loop_
_atom_site_label
_atom_site_type_symbol
_atom_type_description
_atom_site_fract_x
_atom_site_fract_y
_atom_site_fract_z
_atom_type_partial_charge
C1    C     C_R   0.616633 0.910291 0.436867 0.560713
C2    C     C_R   0.736390 0.416061 0.186401 0.028513
C3    C     C_R   0.695236 0.911530 0.660415 0.418300
C4    C     C_R   0.619185 0.810980 0.666229 -0.032365
C5    C     C_R   0.630429 0.869296 0.588935 -0.038043
C6    C     C_R   0.052244 0.781373 0.063860 0.565303
C7    C     C_R   0.744218 0.486860 0.066194 0.564185
C8    C     C_R   0.742937 0.789396 0.066352 0.553259
C9    C     C_R   0.022521 0.732403 0.947754 0.594133
C10   C     C_R   0.711833 0.436651 0.949389 0.572176
C11   C     C_R   0.710139 0.739290 0.950193 0.585991
C12   C     C_R   0.826466 0.435657 0.165082 -0.009312
C13   C     C_R   0.827554 0.451968 0.124748 0.382848
C14   C     C_R   0.760243 0.335117 0.243627 0.359875
C15   C     C_R   0.752217 0.322298 0.284380 -0.081879
C16   C     C_R   0.722351 0.382864 0.311862 -0.068465
C17   C     C_R   0.705920 0.460179 0.298616 -0.012523
C18   C     C_R   0.713686 0.473174 0.257879 0.348976
C19   C     C_R   0.738295 0.408860 0.229940 0.022424
C20   C     C_R   0.598205 0.335765 0.366945 0.386620
C21   C     C_R   0.594010 0.205447 0.456639 0.567887
C22   C     C_R   0.567631 0.292684 0.402384 -0.135947
C23   C     C_R   0.739036 0.298702 0.411873 0.376177
C24   C     C_R   0.769498 0.341858 0.376418 -0.123321
C25   C     C_R   0.698183 0.357347 0.353013 -0.029312
C26   C     C_R   0.635739 0.269713 0.424279 -0.036966
C27   C     C_R   0.245695 0.877986 0.393169 0.008706
C28   C     C_R   0.233195 0.958815 0.380687 -0.114175
C29   C     C_R   0.210491 0.956762 0.339551 -0.090280
C30   C     C_R   0.199375 0.873766 0.310491 0.027070
C31   C     C_R   0.204714 0.789834 0.322856 -0.076513
C32   C     C_R   0.295787 0.892745 0.434338 0.546954
C33   C     C_R   0.227468 0.791676 0.363971 -0.088741
C34   C     C_R   0.196591 0.805339 0.162751 0.404470
C35   C     C_R   0.167466 0.784347 0.120998 -0.110291
C36   C     C_R   0.097032 0.904897 0.129932 0.369134
C37   C     C_R   0.125888 0.925326 0.171823 -0.117855
C38   C     C_R   0.171664 0.872478 0.188433 -0.024992
C39   C     C_1   0.182558 0.877983 0.231800 0.082065
C40   C     C_1   0.189579 0.877394 0.267834 0.044449
C41   C     C_R   0.112424 0.829623 0.104379 -0.032884
C42   C     C_R   0.636888 0.878893 0.395096 -0.097363
C43   C     C_R   0.613791 0.906097 0.551939 0.553429
C44   C     C_R   0.552971 0.799674 0.367488 0.389717
C45   C     C_R   0.566002 0.789203 0.325813 0.390455
C46   C     C_R   0.662672 0.856719 0.311386 -0.020288
C47   C     C_R   0.748938 0.929966 0.338821 0.331769
C48   C     C_R   0.736226 0.940699 0.380419 -0.151880
C49   C     C_R   0.776285 0.924613 0.174062 0.362193
C50   C     C_R   0.790951 0.910309 0.132650 -0.067640
C51   C     C_R   0.619191 0.752253 0.121469 -0.099821
C52   C     C_R   0.604295 0.766713 0.162731 0.369639
C53   C     C_R   0.684659 0.850642 0.189323 0.035669
C54   C     C_R   0.589370 0.198747 0.571178 0.562472
C55   C     C_1   0.677260 0.854749 0.232409 0.184500
C56   C     C_1   0.671023 0.855490 0.268429 0.183532
C57   C     C_R   0.714824 0.821233 0.106393 -0.101664
C58   C     C_R   0.619946 0.245313 0.614793 0.015211
C59   C     C_R   0.545911 0.261304 0.638155 -0.186130
C60   C     C_R   0.559850 0.279458 0.680597 -0.126890
C61   C     C_R   0.648166 0.282662 0.700319 -0.025455
C62   C     C_R   0.726367 0.274551 0.677589 -0.045188
C63   C     C_R   0.712998 0.256528 0.635007 0.410964
C64   C     C_R   0.760184 0.336059 0.846141 -0.103728
C65   C     C_R   0.290093 0.887578 0.548907 0.565147
C66   C     C_R   0.771579 0.367497 0.888231 -0.143748
C67   C     C_R   0.587821 0.333858 0.886234 0.439961
C68   C     C_R   0.576896 0.302308 0.844081 -0.037674
C69   C     C_R   0.664326 0.307647 0.823869 -0.034015
C70   C     C_1   0.659465 0.295753 0.780248 0.020789
C71   C     C_1   0.655447 0.289653 0.743779 0.021522
C72   C     C_R   0.687568 0.372428 0.908470 0.013921
C73   C     C_R   0.078376 0.759646 0.910848 -0.031337
C74   C     C_R   0.125975 0.862993 0.903351 0.370920
C75   C     C_R   0.161494 0.885709 0.865285 0.409607
C76   C     C_R   0.737746 0.448829 0.105296 0.016178
C77   C     C_R   0.149740 0.805477 0.834366 -0.058646
C78   C     C_R   0.109774 0.704028 0.842762 -0.100686
C79   C     C_R   0.074623 0.680983 0.880762 0.312217
C80   C     C_R   0.225746 0.787964 0.768385 0.388540
C81   C     C_R   0.229031 0.794271 0.727042 -0.075572
C82   C     C_R   0.172862 0.836337 0.709062 -0.033078
C83   C     C_R   0.115612 0.874655 0.732976 -0.120143
C84   C     C_R   0.111546 0.867705 0.774261 -0.102560
C85   C     C_R   0.165738 0.823537 0.792125 0.072796
C86   C     C_R   0.209658 0.938880 0.652659 -0.126834
C87   C     C_R   0.645322 0.422374 0.126171 -0.160837
C88   C     C_R   0.236388 0.950687 0.612881 -0.177252
C89   C     C_R   0.188485 0.767946 0.597556 0.391275
C90   C     C_R   0.162464 0.756709 0.637410 -0.071429
C91   C     C_R   0.178046 0.843201 0.665580 -0.029883
C92   C     C_R   0.231930 0.866856 0.585694 0.025337
C93   C     C_R   0.658205 0.743095 0.912430 0.021351
C94   C     C_R   0.585505 0.650334 0.886722 0.330122
C95   C     C_R   0.555741 0.653399 0.847069 -0.018191
C96   C     C_R   0.597752 0.748521 0.832538 -0.060365
C97   C     C_R   0.662210 0.841422 0.859315 -0.093590
C98   C     C_R   0.644830 0.406423 0.166396 -0.064390
C99   C     C_R   0.692146 0.839045 0.898907 0.349355
C100  C     C_R   0.564865 0.828025 0.776629 -0.115421
C101  C     C_R   0.573138 0.845137 0.736388 -0.065950
C102  C     C_R   0.601216 0.785772 0.707592 0.004122
C103  C     C_R   0.615205 0.705275 0.718833 -0.059213
C104  C     C_R   0.608268 0.688656 0.759258 0.395684
C105  C     C_R   0.585421 0.751825 0.788742 0.049353
C106  C     C_R   0.555366 0.737182 0.632746 -0.192918
C107  C     C_R   0.560562 0.766240 0.594378 -0.188458
C108  C     C_R   0.701659 0.940446 0.621951 0.417686
Cr1   Cr    Cr6+3 0.424820 0.846020 0.489780 1.131668
Cr2   Cr    Cr6+3 0.657880 0.078580 0.505700 1.189650
Cr3   Cr    Cr6+3 0.417280 0.075360 0.504550 1.032213
Cr4   Cr    Cr6+3 0.903360 0.812540 0.006510 1.198079
Cr5   Cr    Cr6+3 0.914630 0.587050 0.006280 1.140476
Cr6   Cr    Cr6+3 0.673560 0.582680 0.008540 1.137825
H1    H     H_    0.487894 0.271536 0.411224 0.177628
H2    H     H_    0.828153 0.339868 0.830734 0.173801
H3    H     H_    0.135275 0.681638 0.646886 0.154375
H4    H     H_    0.764181 0.261518 0.294054 0.178268
O1    O     O_R   0.318160 0.824460 0.443680 -0.469415
O2    O     O_R   0.645130 0.163230 0.552140 -0.414971
O3    O     O_R   0.498360 0.178430 0.555780 -0.533341
O4    O     O_R   0.328690 0.978040 0.538950 -0.521084
O5    O     O_3   0.499990 0.999990 0.500010 -0.298398
O6    O     O_R   0.828710 0.851830 0.052170 -0.458908
O7    O     O_R   0.005980 0.823990 0.047210 -0.423909
O8    O     O_R   0.031900 0.688850 0.050170 -0.497704
O9    O     O_R   0.830940 0.518420 0.048680 -0.428139
O10   O     O_R   0.668160 0.499860 0.053480 -0.522657
O11   O     O_R   0.689170 0.693840 0.050110 -0.512179
O12   O     O_R   0.525040 0.857250 0.449830 -0.431587
O13   O     O_R   0.803860 0.812940 0.962540 -0.436255
O14   O     O_R   0.982950 0.787950 0.964120 -0.455991
O15   O     O_R   0.007050 0.649970 0.960540 -0.446851
O16   O     O_R   0.807910 0.482370 0.965590 -0.513169
O17   O     O_R   0.643310 0.460980 0.963840 -0.394310
O18   O     O_R   0.666140 0.657800 0.967020 -0.446397
O19   O     O_3   0.830520 0.660760 0.007110 -0.320163
O20   O     O_R   0.684760 0.998800 0.456360 -0.503742
O21   O     O_R   0.647540 0.166310 0.470260 -0.421636
O22   O     O_R   0.500960 0.181750 0.467450 -0.530757
O23   O     O_R   0.331100 0.981120 0.457080 -0.507105
O24   O     O_R   0.315560 0.821140 0.532010 -0.430840
O25   O     O_R   0.522630 0.854180 0.531710 -0.517801
O26   O     O_R   0.682160 0.995480 0.544690 -0.414675
H5    H     H_    0.574748 0.418578 0.112081 0.177218
H6    H     H_    0.897488 0.442598 0.180220 0.195576
F1    F     F_    0.808971 0.281080 0.432760 -0.578876
H7    H     H_    0.181297 0.726916 0.102130 0.198630
F2    F     F_    0.242228 0.754480 0.178414 -0.555086
H8    H     H_    0.195790 0.725001 0.300526 0.178529
H9    H     H_    0.236919 0.728465 0.372486 0.198151
H10   H     H_    0.246912 0.026522 0.402344 0.149729
H11   H     H_    0.107088 0.978001 0.191531 0.191797
F3    F     F_    0.045875 0.951969 0.115285 -0.593472
F4    F     F_    0.918360 0.476063 0.105779 -0.580806
H12   H     H_    0.206039 0.021873 0.330265 0.160174
H13   H     H_    0.865070 0.964897 0.121832 0.236460
F5    F     F_    0.854332 0.006856 0.199575 -0.550625
F6    F     F_    0.843563 0.994833 0.325181 -0.567937
H14   H     H_    0.802473 0.001693 0.400838 0.206818
F7    F     F_    0.456097 0.737066 0.380188 -0.560838
F8    F     F_    0.514613 0.695161 0.177114 -0.539154
H15   H     H_    0.558770 0.683373 0.101869 0.183337
F9    F     F_    0.482444 0.716819 0.299334 -0.521801
H16   H     H_    0.849000 0.395553 0.904325 0.209910
H17   H     H_    0.847316 0.359269 0.366267 0.171753
H18   H     H_    0.795821 0.278497 0.692780 0.175569
F10   F     F_    0.788317 0.244813 0.613892 -0.541423
H19   H     H_    0.473670 0.253545 0.623779 0.153836
H20   H     H_    0.501985 0.279284 0.826955 0.169783
F11   F     F_    0.503196 0.333605 0.904501 -0.520222
H21   H     H_    0.499436 0.286759 0.698016 0.152370
F12   F     F_    0.134850 0.941420 0.932376 -0.532605
F13   F     F_    0.029194 0.580348 0.886760 -0.605394
H22   H     H_    0.275981 0.766910 0.709053 0.137609
F14   F     F_    0.280674 0.747027 0.785166 -0.634364
F15   F     F_    0.203696 0.985205 0.858089 -0.550030
H23   H     H_    0.072207 0.907602 0.719503 0.153600
H24   H     H_    0.063271 0.893754 0.792003 0.178479
H25   H     H_    0.221511 0.006325 0.674077 0.144619
H26   H     H_    0.268720 0.027535 0.604556 0.150931
H27   H     H_    0.099374 0.641160 0.819047 0.204209
F16   F     F_    0.178028 0.683736 0.571651 -0.588108
F17   F     F_    0.549617 0.556041 0.898581 -0.556362
F18   F     F_    0.783363 0.271620 0.217175 -0.578309
F19   F     F_    0.758865 0.930539 0.923202 -0.568850
F20   F     F_    0.760278 0.982972 0.692411 -0.584726
H28   H     H_    0.560103 0.906372 0.727852 0.153197
H29   H     H_    0.546243 0.876869 0.798666 0.157302
H30   H     H_    0.503798 0.581019 0.827103 0.207867
H31   H     H_    0.636592 0.658805 0.696738 0.142807
F21   F     F_    0.631776 0.616307 0.769967 -0.637051
H32   H     H_    0.497036 0.659046 0.636786 0.157017
H33   H     H_    0.505362 0.709675 0.569478 0.176355
H34   H     H_    0.695157 0.915883 0.848828 0.166905
H35   H     H_    0.573853 0.389242 0.182322 0.192970
F22   F     F_    0.771598 0.040229 0.618000 -0.522934
H36   H     H_    0.684511 0.508637 0.319623 0.202866
F23   F     F_    0.695749 0.547491 0.245579 -0.597948
F24   F     F_    0.526422 0.347854 0.344560 -0.595006

loop_
_geom_bond_atom_site_label_1
_geom_bond_atom_site_label_2
_ccdc_geom_bond_type
C65   C92   S    
C55   C56   T    
C93   C94   A    
C64   H2    S    
C54   O2    A    
Cr3   O3    S    
C73   C74   A    
C43   O25   A    
C95   C96   A    
C21   C26   S    
C2    C12   A    
C81   C82   A    
C36   C41   A    
C36   F3    S    
C47   F6    S    
C45   C46   A    
C27   C33   A    
C48   H14   S    
C100  C105  A    
C29   C30   A    
C94   F17   S    
C83   C84   A    
C81   H22   S    
Cr2   O21   S    
C45   F9    S    
Cr4   O6    S    
C86   C91   A    
C54   C58   S    
C38   C39   S    
Cr2   O5    S    
C86   C88   A    
Cr6   O19   S    
C100  H29   S    
C106  C107  A    
C88   H26   S    
C15   C16   A    
C104  F21   S    
C16   C25   S    
C34   C35   A    
C23   C26   A    
C12   H6    S    
C108  F22   S    
C13   F4    S    
C103  C104  A    
C95   H30   S    
C68   C69   A    
C68   H20   S    
C66   C72   A    
C88   C92   A    
C16   C17   A    
C6    C41   S    
C4    C102  S    
C23   C24   A    
C31   C33   A    
C51   H15   S    
Cr1   O24   S    
C51   C57   A    
C7    O10   A    
C101  H28   S    
C93   C99   A    
C61   C62   A    
C83   H23   S    
C87   C98   A    
C11   C93   S    
C62   H18   S    
C5    C43   S    
C77   C85   S    
C59   C60   A    
Cr5   O15   S    
Cr3   O4    S    
C79   F13   S    
C43   O26   A    
C102  C103  A    
C42   C44   A    
C35   C41   A    
C14   C19   A    
C104  C105  A    
C97   C99   A    
C34   F2    S    
Cr3   O22   S    
C106  H32   S    
C53   C55   S    
C50   H13   S    
C74   C75   A    
Cr3   O5    S    
C67   C68   A    
C60   H21   S    
C101  C102  A    
C37   H11   S    
C67   C72   A    
C24   C25   A    
C80   F14   S    
C74   F12   S    
C1    O12   A    
C33   H9    S    
Cr2   O2    S    
C39   C40   T    
C14   F18   S    
C78   C79   A    
C18   C19   A    
Cr5   O8    S    
C67   F11   S    
C58   C59   A    
C77   C78   A    
C23   F1    S    
C82   C83   A    
Cr4   O14   S    
C82   C91   S    
C51   C52   A    
C11   O13   A    
C60   C61   A    
C78   H27   S    
C64   C66   A    
C37   C38   A    
C84   H24   S    
C24   H17   S    
C90   H3    S    
C80   C85   A    
C8    C57   S    
Cr6   O10   S    
C47   C48   A    
C13   C76   A    
Cr2   O20   S    
Cr6   O17   S    
C96   C97   A    
C62   C63   A    
C86   H25   S    
C17   C18   A    
C73   C79   A    
C98   H35   S    
C17   H36   S    
Cr1   O25   S    
C42   C48   A    
C65   O4    A    
C84   C85   A    
C89   C92   A    
Cr2   O26   S    
C75   C77   A    
C76   C87   A    
C6    O8    A    
C32   O23   A    
C70   C71   T    
C29   H12   S    
C8    O6    A    
C22   H1    S    
C54   O3    A    
C20   C22   A    
C28   H10   S    
C94   C95   A    
Cr5   O16   S    
C63   F10   S    
Cr6   O11   S    
Cr5   O19   S    
C49   F5    S    
C10   C72   S    
C103  H31   S    
C44   F7    S    
C21   O21   A    
C32   O1    A    
C3    C4    A    
C89   F16   S    
Cr1   O12   S    
C52   C53   A    
Cr1   O1    S    
C96   C105  S    
C5    C107  A    
C9    O14   A    
C58   C63   A    
C31   H8    S    
C30   C40   S    
C46   C47   A    
C28   C29   A    
Cr6   O18   S    
C87   H5    S    
C66   H16   S    
C27   C32   S    
C34   C38   A    
C50   C57   A    
Cr4   O19   S    
C9    C73   S    
Cr1   O5    S    
C44   C45   A    
C10   O16   A    
C6    O7    A    
C80   C81   A    
C3    F20   S    
C7    C76   S    
Cr5   O9    S    
C3    C108  A    
C64   C69   A    
C15   H4    S    
C7    O9    A    
C97   H34   S    
C10   O17   A    
C11   O18   A    
C65   O24   A    
C61   C71   S    
C90   C91   A    
C30   C31   A    
C4    C106  A    
C49   C53   A    
C100  C101  A    
C35   H7    S    
C99   F19   S    
Cr4   O13   S    
C69   C70   S    
C75   F15   S    
C8    O11   A    
Cr3   O23   S    
C22   C26   A    
C1    C42   S    
C12   C13   A    
C2    C98   A    
C36   C37   A    
C49   C50   A    
C20   C25   A    
C46   C56   S    
C18   F23   S    
C20   F24   S    
C14   C15   A    
C21   O22   A    
Cr4   O7    S    
C89   C90   A    
C59   H19   S    
C107  H33   S    
C1    O20   A    
C2    C19   S    
C52   F8    S    
C27   C28   A    
C5    C108  A    
C9    O15   A    
