data_mof_unit_27781.cif
_audit_creation_date              2012-12-10T18:23:04-0500
_audit_creation_method            fapswitch 2.2
_symmetry_space_group_name_H-M    P1
_symmetry_Int_Tables_number       1
_space_group_crystal_system       triclinic
_cell_length_a                    15.012978
_cell_length_b                    14.014871
_cell_length_c                    10.5053
_cell_angle_alpha                 90.386756
_cell_angle_beta                  89.917929
_cell_angle_gamma                 89.994218
_cell_volume                      2210.31448291

loop_
_atom_site_label
_atom_site_type_symbol
_atom_type_description
_atom_site_fract_x
_atom_site_fract_y
_atom_site_fract_z
_atom_type_partial_charge
C1    C     C_R   0.326471 0.500005 0.500210 0.891687
C2    C     C_R   0.673529 0.499995 0.499790 0.891687
C3    C     C_R   0.953661 0.499995 0.499838 0.060919
C4    C     C_R   0.046339 0.500004 0.500162 0.060919
C5    C     C_R   0.907327 0.587488 0.495497 0.118738
C6    C     C_R   0.092673 0.412512 0.504503 0.118738
C7    C     C_R   0.953735 0.325939 0.508177 -0.221825
C8    C     C_R   0.046265 0.674061 0.491823 -0.221825
C9    C     C_R   0.046279 0.325948 0.508513 -0.221836
C10   C     C_R   0.953721 0.674052 0.491487 -0.221836
C11   C     C_R   0.557276 0.797747 0.421811 -0.062032
C12   C     C_R   0.442724 0.202253 0.578189 -0.062032
C13   C     C_R   0.442748 0.798545 0.578225 -0.068933
C14   C     C_R   0.557252 0.201455 0.421775 -0.068933
C15   C     C_R   0.441357 0.899215 0.580099 0.016213
C16   C     C_R   0.558643 0.100785 0.419901 0.016213
C17   C     C_R   0.558658 0.898394 0.419925 0.015264
C18   C     C_R   0.441342 0.101605 0.580075 0.015264
C19   C     C_R   0.500003 0.949391 0.500005 0.085308
C20   C     C_R   0.499997 0.050609 0.499995 0.085308
C21   C     C_R   0.383025 0.950672 0.659735 -0.210741
C22   C     C_R   0.616975 0.049328 0.340265 -0.210741
C23   C     C_R   0.616985 0.949033 0.340280 -0.210275
C24   C     C_R   0.383015 0.050967 0.659719 -0.210275
C25   C     C_R   0.500006 0.499630 0.257091 0.868221
C26   C     C_R   0.499994 0.500370 0.742909 0.868221
C27   C     C_3   0.426397 0.544446 0.042994 -0.176199
C28   C     C_3   0.573603 0.455554 0.957006 -0.176200
C29   C     C_3   0.499424 0.591165 0.960812 -0.138472
C30   C     C_3   0.500576 0.408834 0.039188 -0.138472
C31   C     C_3   0.426959 0.454512 0.957302 -0.180674
C32   C     C_3   0.573041 0.545488 0.042698 -0.180674
C33   C     C_3   0.499988 0.501116 0.877829 0.027624
C34   C     C_3   0.500012 0.498884 0.122171 0.027624
C35   C     C_R   0.815193 0.586833 0.495333 -0.264670
C36   C     C_R   0.184807 0.413166 0.504667 -0.264670
C37   C     C_R   0.769413 0.499987 0.499538 -0.077317
C38   C     C_R   0.230587 0.500013 0.500461 -0.077317
C39   C     C_R   0.815200 0.413137 0.503632 -0.265317
C40   C     C_R   0.184800 0.586863 0.496368 -0.265317
C41   C     C_R   0.907334 0.412494 0.503868 0.118574
C42   C     C_R   0.092666 0.587506 0.496132 0.118574
H1    H     H_    0.366568 0.580424 0.082916 0.136562
H2    H     H_    0.633431 0.419576 0.917084 0.136562
H3    H     H_    0.498925 0.665466 0.924780 0.143792
H4    H     H_    0.501075 0.334534 0.075220 0.143792
H5    H     H_    0.779339 0.346007 0.506875 0.162018
H6    H     H_    0.220661 0.653993 0.493124 0.162018
H7    H     H_    0.918500 0.258498 0.511292 0.145369
H8    H     H_    0.081500 0.741502 0.488708 0.145369
H9    H     H_    0.081519 0.258514 0.511861 0.145114
H10   H     H_    0.918481 0.741486 0.488139 0.145114
H11   H     H_    0.337414 0.913376 0.722018 0.139482
H12   H     H_    0.662586 0.086624 0.277982 0.139482
H13   H     H_    0.662603 0.911095 0.278009 0.139109
H14   H     H_    0.337397 0.088904 0.721991 0.139109
N1    N     N_R   0.500000 0.750030 0.500000 -0.101969
N2    N     N_R   0.500000 0.249970 0.500000 -0.101969
O1    O     O_R   0.367850 0.580280 0.500030 -0.628562
O2    O     O_R   0.632150 0.419720 0.499970 -0.628562
O3    O     O_R   0.632150 0.580280 0.499970 -0.628602
O4    O     O_R   0.367850 0.419720 0.500030 -0.628602
O5    O     O_R   0.499970 0.580260 0.313950 -0.622734
O6    O     O_R   0.500030 0.419740 0.686050 -0.622734
O7    O     O_R   0.500030 0.580260 0.686050 -0.628054
O8    O     O_R   0.499970 0.419740 0.313950 -0.628054
Zn1   Zn    Zn3+2 0.500000 0.607200 0.500000 0.939918
Zn2   Zn    Zn3+2 0.500000 0.392800 0.500000 0.939918
H15   H     H_    0.367602 0.417674 0.917591 0.132264
H16   H     H_    0.632398 0.582326 0.082409 0.132264
H17   H     H_    0.779326 0.653959 0.491905 0.161058
H18   H     H_    0.220674 0.346041 0.508095 0.161058
H19   H     H_    0.601826 0.757198 0.360980 0.130148
H20   H     H_    0.398174 0.242802 0.639020 0.130148
H21   H     H_    0.398224 0.758615 0.639086 0.130829
H22   H     H_    0.601776 0.241385 0.360914 0.130829

loop_
_geom_bond_atom_site_label_1
_geom_bond_atom_site_label_2
_ccdc_geom_bond_type
O8    Zn2   S    
C12   H20   S    
C27   C29   S    
C19   C20   A    
C9    H9    S    
C10   H10   S    
C1    O4    A    
C6    C9    A    
C39   C41   A    
C15   C19   A    
C17   C23   A    
C18   C24   A    
O6    Zn2   S    
C35   C37   A    
C8    C42   A    
C29   C32   S    
C1    O1    A    
C30   C31   S    
C2    O2    A    
C13   N1    A    
C29   C33   S    
C40   H6    S    
C25   O5    A    
C26   O6    A    
O1    Zn1   S    
C11   C17   A    
C13   H21   S    
O7    Zn1   S    
C31   C33   S    
C2    O3    A    
C25   C34   S    
C12   N2    A    
C40   C42   A    
C35   H17   S    
C38   C40   A    
C22   H12   S    
N1    Zn1   S    
C27   C34   S    
C14   N2    A    
O5    Zn1   S    
C30   C34   S    
C27   C31   S    
C28   C32   S    
C7    H7    S    
C4    C6    A    
C11   H19   S    
C32   H16   S    
C28   H2    S    
C29   H3    S    
C14   H22   S    
O3    Zn1   S    
C26   C33   S    
C15   C21   A    
C16   C20   A    
C1    C38   S    
N2    Zn2   S    
C28   C33   S    
C13   C15   A    
C14   C16   A    
C3    C4    A    
C8    H8    S    
C39   H5    S    
C7    C9    A    
C3    C41   A    
C16   C22   A    
C26   O7    A    
C30   H4    S    
C25   O8    A    
C3    C5    A    
C23   H13   S    
C24   H14   S    
O4    Zn2   S    
C36   C38   A    
C5    C10   A    
C37   C39   A    
C21   H11   S    
C2    C37   S    
C4    C42   A    
C5    C35   A    
C28   C30   S    
C17   C19   A    
C6    C36   A    
C18   C20   A    
C7    C41   A    
C27   H1    S    
C31   H15   S    
O2    Zn2   S    
C8    C10   A    
C21   C24   A    
C12   C18   A    
C22   C23   A    
C11   N1    A    
C36   H18   S    
C32   C34   S    
