data_mof_unit_45384.cif
_audit_creation_date              2012-10-26T19:22:52-0400
_audit_creation_method            fapswitch 2.2
_symmetry_space_group_name_H-M    P1
_symmetry_Int_Tables_number       1
_space_group_crystal_system       triclinic
_cell_length_a                    17.291229
_cell_length_b                    12.999899
_cell_length_c                    11.844417
_cell_angle_alpha                 99.277064
_cell_angle_beta                  88.125443
_cell_angle_gamma                 94.395159
_cell_volume                      2619.32644314

loop_
_atom_site_label
_atom_site_type_symbol
_atom_type_description
_atom_site_fract_x
_atom_site_fract_y
_atom_site_fract_z
_atom_type_partial_charge
C1    C     C_R   0.499552 0.299573 0.478876 0.539877
C2    C     C_R   0.490771 0.860632 0.436494 -0.080603
C3    C     C_R   0.507060 0.031372 0.553462 0.046496
C4    C     C_R   0.494204 0.968773 0.445762 0.045424
C5    C     C_R   0.416435 0.412058 0.037382 -0.023547
C6    C     C_R   0.579865 0.596538 0.963663 -0.044230
C7    C     C_R   0.428698 0.414108 0.155407 0.132075
C8    C     C_R   0.568964 0.589880 0.844612 0.159010
C9    C     C_R   0.530423 0.547685 0.152278 0.130448
C10   C     C_R   0.470467 0.452592 0.848654 0.114502
C11   C     C_R   0.528294 0.537140 0.029747 -0.076194
C12   C     C_R   0.500598 0.700467 0.521057 0.583369
C13   C     C_R   0.471246 0.466434 0.971398 -0.038949
C14   C     C_R   0.350960 0.506523 0.517317 0.573452
C15   C     C_R   0.648438 0.488214 0.482057 0.578032
C16   C     C_R   0.266924 0.524266 0.531485 -0.003715
C17   C     C_R   0.732352 0.467429 0.466813 -0.025316
C18   C     C_R   0.229962 0.572393 0.450202 0.021366
C19   C     C_R   0.775878 0.455390 0.562731 0.013983
C20   C     C_R   0.149711 0.575470 0.454406 -0.126298
C21   C     C_R   0.856296 0.468221 0.556914 -0.122395
C22   C     C_R   0.105383 0.540803 0.543062 -0.021629
C23   C     C_R   0.500741 0.814052 0.533134 0.022560
C24   C     C_R   0.895596 0.481736 0.454728 -0.014578
C25   C     C_R   0.140831 0.502424 0.631369 0.036089
C26   C     C_R   0.854019 0.472418 0.352878 0.032108
C27   C     C_R   0.221727 0.491166 0.623856 0.006518
C28   C     C_R   0.771665 0.464439 0.358204 0.001555
C29   C     C_2   0.021019 0.544828 0.541663 -0.144869
C30   C     C_2   0.981143 0.492019 0.453222 -0.137783
C31   C     C_2   0.271896 0.625276 0.361847 0.278960
C32   C     C_2   0.741357 0.420878 0.667987 0.306361
C33   C     C_2   0.621617 0.654961 0.779499 0.362477
C34   C     C_R   0.499776 0.186068 0.466463 0.008941
C35   C     C_2   0.375281 0.349887 0.220224 0.354861
C36   C     C_2   0.341538 0.364187 0.987566 0.314939
C37   C     C_2   0.648783 0.660852 0.014585 0.250647
C38   C     C_2   0.727539 0.447965 0.250411 0.346301
C39   C     C_2   0.257339 0.440186 0.709844 0.280085
C40   C     C_2   0.092048 0.472115 0.728905 0.288616
C41   C     C_2   0.897832 0.470100 0.242242 0.293866
C42   C     C_2   0.431484 0.357071 0.784204 0.275435
C43   C     C_2   0.569020 0.643311 0.216711 0.293656
C44   C     C_R   0.485383 0.015306 0.348920 -0.110079
C45   C     C_R   0.515176 0.984894 0.650492 -0.099806
C46   C     C_R   0.488211 0.123515 0.359193 -0.118934
C47   C     C_R   0.511482 0.876702 0.640517 -0.122886
C48   C     C_R   0.510848 0.139493 0.562674 -0.083102
Cu1   Cu    Cu3+1 0.505800 0.507690 0.615350 0.994077
Cu2   Cu    Cu3+1 0.494200 0.492310 0.384650 1.032903
H1    H     H_    0.012512 0.453201 0.379409 0.147383
H2    H     H_    0.394859 0.282616 0.250724 0.109728
H3    H     H_    0.309590 0.406527 0.935183 0.116207
H4    H     H_    0.689181 0.626550 0.062841 0.204647
H5    H     H_    0.679024 0.389467 0.238171 0.119584
H6    H     H_    0.299929 0.484257 0.767161 0.085612
H7    H     H_    0.031672 0.444430 0.716355 0.109884
H8    H     H_    0.948189 0.524228 0.235890 0.109335
H9    H     H_    0.888901 0.461609 0.631764 0.107571
H10   H     H_    0.121268 0.609083 0.390070 0.120386
H11   H     H_    0.480048 0.813098 0.353999 0.137384
H12   H     H_    0.991508 0.583617 0.617237 0.142482
H13   H     H_    0.522493 0.187074 0.644840 0.195008
H14   H     H_    0.396043 0.360451 0.712055 0.157249
H15   H     H_    0.549687 0.718451 0.205920 0.086259
H16   H     H_    0.517153 0.842556 0.716951 0.127732
H17   H     H_    0.481128 0.157832 0.283172 0.131034
H18   H     H_    0.476052 0.968165 0.265643 0.126972
H19   H     H_    0.524131 0.032066 0.733845 0.153532
H20   H     H_    0.245574 0.623871 0.279591 0.117414
H21   H     H_    0.769246 0.446554 0.749539 0.140704
H22   H     H_    0.601463 0.721923 0.749364 0.110046
N1    N     N_R   0.514530 0.519260 0.788680 -0.288705
N2    N     N_R   0.485470 0.480740 0.211320 -0.276782
O1    O     O_R   0.504120 0.354440 0.581590 -0.499029
O2    O     O_2   0.684882 0.358010 0.663621 -0.475062
O3    O     O_2   0.690128 0.638380 0.766514 -0.496062
O4    O     O_2   0.307437 0.369558 0.235813 -0.480579
O5    O     O_2   0.316497 0.276567 0.001395 -0.409482
O6    O     O_2   0.659812 0.752937 0.004708 -0.482813
O7    O     O_2   0.744464 0.499921 0.174943 -0.463902
O8    O     O_2   0.237997 0.349360 0.718252 -0.455155
O9    O     O_2   0.117814 0.480999 0.825026 -0.457626
O10   O     O_2   0.880399 0.404730 0.159214 -0.436968
O11   O     O_2   0.440414 0.271714 0.810386 -0.495055
O12   O     O_R   0.495880 0.645560 0.418410 -0.460585
O13   O     O_2   0.625779 0.640743 0.274122 -0.461618
O14   O     O_R   0.494320 0.341440 0.386760 -0.554649
O15   O     O_R   0.505680 0.658560 0.613240 -0.550053
O16   O     O_R   0.391870 0.507230 0.608700 -0.566144
O17   O     O_R   0.608130 0.492770 0.391300 -0.482318
O18   O     O_R   0.382070 0.494240 0.413880 -0.444365
O19   O     O_R   0.617930 0.505760 0.586120 -0.440772
O20   O     O_2   0.333296 0.676683 0.382407 -0.502502

loop_
_geom_bond_atom_site_label_1
_geom_bond_atom_site_label_2
_ccdc_geom_bond_type
C30   H1    S    
C22   C29   S    
C10   C42   S    
Cu1   O16   S    
C12   C23   S    
C19   C21   A    
C24   C26   A    
C41   H8    S    
C21   H9    S    
Cu2   N2    S    
C25   C40   S    
C10   N1    A    
C5    C36   S    
C3    C48   A    
C18   C20   A    
C14   O16   A    
C36   H3    S    
C33   H22   S    
C31   H20   S    
C38   H5    S    
C27   C39   S    
C22   C25   A    
Cu1   O1    S    
C34   C46   A    
C7    N2    A    
C47   H16   S    
C5    C13   A    
C2    H11   S    
Cu2   O14   S    
C1    O14   A    
C40   O9    D    
C19   C32   S    
C44   C46   A    
C1    C34   S    
C32   H21   S    
C45   C47   A    
C37   O6    D    
C9    C43   S    
C23   C47   A    
C45   H19   S    
C1    O1    A    
C12   O15   A    
C6    C11   A    
C5    C7    A    
C48   H13   S    
C6    C8    A    
C4    C44   A    
C41   O10   D    
C36   O5    D    
C2    C4    A    
C15   O19   A    
C29   C30   D    
C39   H6    S    
C28   C38   S    
C43   H15   S    
C6    C37   S    
C42   O11   D    
C9    C11   A    
C14   O18   A    
C37   H4    S    
Cu2   O18   S    
C20   C22   A    
C38   O7    D    
C14   C16   S    
C44   H18   S    
C34   C48   A    
C9    N2    A    
C3    C4    A    
C42   H14   S    
C35   H2    S    
C15   C17   S    
C29   H12   S    
C40   H7    S    
C17   C28   A    
C7    C35   S    
C39   O8    D    
Cu1   O15   S    
C10   C13   A    
C32   O2    D    
C25   C27   A    
C31   O20   D    
C35   O4    D    
C26   C28   A    
C12   O12   A    
C43   O13   D    
C46   H17   S    
C11   C13   A    
C33   O3    D    
C16   C27   A    
C8    N1    A    
C17   C19   A    
C3    C45   A    
Cu1   N1    S    
C8    C33   S    
C24   C30   S    
Cu2   O12   S    
C15   O17   A    
Cu2   O17   S    
C16   C18   A    
Cu1   Cu2   S    
C21   C24   A    
C2    C23   A    
C18   C31   S    
Cu1   O19   S    
C20   H10   S    
C26   C41   S    
