data_mof_unit_50210.cif
_audit_creation_date              2012-12-11T17:37:48-0500
_audit_creation_method            fapswitch 2.2
_symmetry_space_group_name_H-M    P1
_symmetry_Int_Tables_number       1
_space_group_crystal_system       triclinic
_cell_length_a                    13.004903
_cell_length_b                    13.043891
_cell_length_c                    15.296128
_cell_angle_alpha                 116.117811
_cell_angle_beta                  64.2269
_cell_angle_gamma                 96.791467
_cell_volume                      2089.43726153

loop_
_atom_site_label
_atom_site_type_symbol
_atom_type_description
_atom_site_fract_x
_atom_site_fract_y
_atom_site_fract_z
_atom_type_partial_charge
C1    C     C_R   0.022407 0.833883 0.030714 -0.052358
C2    C     C_R   0.319826 0.533543 0.780414 -0.193892
C3    C     C_R   0.245057 0.479009 0.106285 -0.257718
C4    C     C_R   0.699744 0.409731 0.210555 -0.167681
C5    C     C_R   0.984676 0.302546 0.697843 -0.161182
C6    C     C_R   0.335428 0.542728 0.076731 0.109310
C7    C     C_R   0.925637 0.209345 0.699007 0.047094
C8    C     C_R   0.325099 0.466700 0.678821 0.086163
C9    C     C_R   0.075202 0.144528 0.980174 0.185976
C10   C     C_R   0.301065 0.744679 0.347091 -0.106137
C11   C     C_R   0.190750 0.794167 0.387591 -0.108525
C12   C     C_R   0.702427 0.443441 0.308177 0.048418
C13   C     C_R   0.175812 0.895875 0.382478 0.113697
C14   C     C_R   0.272322 0.945456 0.333464 -0.149762
C15   C     C_R   0.382483 0.894706 0.291540 -0.051537
C16   C     C_R   0.740187 0.575355 0.944548 -0.150867
C17   C     C_R   0.396845 0.795526 0.300026 -0.067658
C18   C     C_R   0.042940 0.057474 0.536559 -0.210777
C19   C     C_R   0.933940 0.115213 0.603084 0.049040
C20   C     C_R   0.839458 0.079199 0.578975 0.044821
C21   C     C_R   0.858650 0.980810 0.484239 -0.195653
C22   C     C_R   0.968533 0.922985 0.418299 0.051448
C23   C     C_R   0.638741 0.555901 0.016076 0.108561
C24   C     C_R   0.061380 0.960103 0.444025 0.000220
C25   C     C_R   0.625744 0.081840 0.676972 -0.361698
C26   C     C_R   0.515295 0.140737 0.744112 0.604323
C27   C     C_R   0.502877 0.260014 0.783602 -0.128088
C28   C     C_R   0.960396 0.717754 0.315749 -0.154732
C29   C     C_R   0.598729 0.320185 0.756538 -0.243753
C30   C     C_R   0.707894 0.261662 0.689827 -0.099217
C31   C     C_R   0.722919 0.141927 0.649841 0.108400
C32   C     C_R   0.926246 0.278201 0.359274 -0.043414
C33   C     C_R   0.818747 0.301677 0.368590 -0.079290
C34   C     C_R   0.985638 0.824823 0.321829 0.063615
C35   C     C_R   0.738975 0.386446 0.464464 0.096423
C36   C     C_R   0.768726 0.447122 0.551099 -0.163102
C37   C     C_R   0.876304 0.423580 0.541428 -0.146412
C38   C     C_R   0.954640 0.338507 0.445895 -0.137402
C39   C     C_R   0.527895 0.419542 0.565105 -0.247152
C40   C     C_R   0.662127 0.478708 0.044781 -0.098938
C41   C     C_R   0.421058 0.454942 0.581942 0.041865
C42   C     C_R   0.407812 0.485488 0.509542 0.147246
C43   C     C_R   0.502243 0.470619 0.416290 -0.154890
C44   C     C_R   0.609737 0.436507 0.399113 0.020436
C45   C     C_R   0.317955 0.584912 0.016410 0.447849
C46   C     C_R   0.625031 0.413305 0.474785 0.031038
C47   C     C_R   0.246816 0.498929 0.464285 0.751020
C48   C     C_R   0.148221 0.557269 0.486836 -0.405185
C49   C     C_R   0.103416 0.661744 0.578154 -0.383297
C50   C     C_R   0.157961 0.709185 0.646530 0.854445
C51   C     C_R   0.257028 0.651777 0.624040 -0.392080
C52   C     C_R   0.048279 0.818163 0.219983 -0.054023
C53   C     C_R   0.301582 0.545433 0.533463 -0.175821
C54   C     C_2   0.434161 0.557293 0.098555 -0.166733
C55   C     C_2   0.527481 0.591358 0.037980 -0.192982
C56   C     C_R   0.904133 0.201500 0.791785 -0.100198
C57   C     C_2   0.890550 0.963565 0.027994 -0.374603
C58   C     C_2   0.859326 0.048967 0.126775 0.573163
C59   C     C_R   0.798726 0.499153 0.307646 -0.128836
C60   C     C_R   0.925749 0.748474 0.931285 -0.120209
C61   C     C_R   0.947745 0.853866 0.995612 0.279025
C62   C     C_R   0.216453 0.443939 0.685981 -0.096162
C63   C     C_R   0.091987 0.250766 0.050354 -0.150903
C64   C     C_R   0.993266 0.166935 0.953349 -0.172022
F1    F     F_    0.288083 0.396830 0.375906 -0.730475
F2    F     F_    0.115285 0.811361 0.734304 -0.720978
F3    F     F_    0.881735 0.040448 0.202358 -0.721945
H1    H     H_    0.064349 0.897826 0.074463 0.128592
H2    H     H_    0.312474 0.667600 0.353154 0.118289
H3    H     H_    0.117269 0.756111 0.426883 0.113101
H4    H     H_    0.641463 0.354306 0.181873 0.115942
H5    H     H_    0.262146 0.024959 0.330533 0.129316
H6    H     H_    0.456736 0.933641 0.254635 0.116057
H7    H     H_    0.113328 0.086626 0.559332 0.151587
H8    H     H_    0.789175 0.949804 0.460770 0.146618
H9    H     H_    0.636059 0.989645 0.646998 0.124560
H10   H     H_    0.418576 0.306218 0.835304 0.136547
H11   H     H_    0.588376 0.412403 0.787007 0.136508
H12   H     H_    0.854254 0.140401 0.819381 0.095519
H13   H     H_    0.780520 0.309991 0.669012 0.127909
H14   H     H_    0.037618 0.319859 0.438748 0.147574
H15   H     H_    0.748485 0.621344 0.898477 0.090402
H16   H     H_    0.987831 0.213560 0.284805 0.155806
H17   H     H_    0.797661 0.254977 0.301070 0.127492
H18   H     H_    0.709170 0.513578 0.625728 0.112149
H19   H     H_    0.898686 0.470952 0.608276 0.119503
H20   H     H_    0.535387 0.399098 0.623725 0.144144
H21   H     H_    0.493346 0.496057 0.360991 0.138598
H22   H     H_    0.106661 0.521779 0.433224 0.187071
H23   H     H_    0.191156 0.397749 0.621107 0.107597
H24   H     H_    0.026903 0.706314 0.595365 0.174545
H25   H     H_    0.921520 0.692793 0.380997 0.100686
H26   H     H_    0.299072 0.689947 0.677176 0.180972
H27   H     H_    0.436073 0.521259 0.149639 0.128477
H28   H     H_    0.527342 0.626598 0.986074 0.194464
H29   H     H_    0.862883 0.971667 0.973722 0.111047
H30   H     H_    0.603765 0.437880 0.092694 0.095579
H31   H     H_    0.092184 0.885327 0.199204 0.106165
H32   H     H_    0.830794 0.528381 0.368250 0.105407
H33   H     H_    0.880173 0.734009 0.883162 0.103205
H34   H     H_    0.150240 0.265846 0.087103 0.120402
H35   H     H_    0.441411 0.001098 0.738275 0.314885
H36   H     H_    0.309719 0.709917 0.984012 0.309720
H37   H     H_    0.960668 0.104208 0.899063 0.128191
H38   H     H_    0.389688 0.569597 0.801317 0.124823
H39   H     H_    0.225072 0.446178 0.165113 0.144177
H40   H     H_    0.009468 0.336036 0.638843 0.100778
H41   H     H_    0.482236 0.757621 0.269546 0.114946
N1    N     N_R   0.037320 0.720000 0.995830 -0.070448
N2    N     N_R   0.824900 0.517970 0.936430 -0.040046
N3    N     N_R   0.003190 0.648180 0.211390 -0.037948
N4    N     N_R   0.774330 0.457010 0.995830 -0.044348
N5    N     N_R   0.053760 0.709130 0.151980 -0.052635
N6    N     N_R   0.853840 0.498830 0.211390 -0.036439
N7    N     N_R   0.974250 0.667320 0.936430 -0.053799
N8    N     N_R   0.225670 0.542990 0.004170 -0.100137
N9    N     N_R   0.946240 0.290870 0.848020 -0.038866
N10   N     N_R   0.146160 0.501170 0.788610 -0.041505
N11   N     N_R   0.025750 0.332680 0.063570 -0.042503
N12   N     N_R   0.962680 0.280000 0.004170 -0.049431
N13   N     N_R   0.209230 0.553860 0.848010 -0.047522
N14   N     N_R   0.175100 0.482030 0.063570 -0.057072
N15   N     N_R   0.996810 0.351820 0.788610 -0.037377
N16   N     N_R   0.790770 0.446140 0.151990 -0.038856
Ni1   Ni    Ni4+2 0.130310 0.630310 0.000000 0.219784
Ni2   Ni    Ni4+2 0.869690 0.369690 0.000000 0.211666
Ni3   Ni    Ni4+2 0.985660 0.509480 0.863750 0.216473
Ni4   Ni    Ni4+2 0.014340 0.490520 0.136250 0.214500
O1    O     O_3   0.418446 0.084397 0.772569 -0.757148
O2    O     O_3   0.355269 0.686160 0.010847 -0.791002

loop_
_geom_bond_atom_site_label_1
_geom_bond_atom_site_label_2
_ccdc_geom_bond_type
C25   C31   A    
C6    C45   A    
C27   C29   A    
C9    C64   A    
C59   H32   S    
C56   N9    A    
C19   C20   A    
H35   O1    S    
C39   H20   S    
C63   H34   S    
C3    C6    A    
C11   H3    S    
C16   N2    A    
C39   C41   A    
C52   N5    A    
C26   C27   A    
C29   C30   A    
C56   H12   S    
N8    N14   A    
C18   C24   A    
C43   H21   S    
C36   C37   A    
C6    C54   S    
C42   C53   S    
C30   C31   A    
N12   Ni2   S    
N5    Ni1   S    
C10   C17   A    
C23   C40   A    
C1    H1    S    
C63   N11   A    
C4    N16   A    
C15   C17   A    
C18   C19   A    
C41   C42   A    
C1    N1    A    
C12   C59   A    
N3    N5    A    
C35   C36   A    
C57   H29   S    
C32   C38   A    
C4    C12   A    
N9    Ni2   S    
N4    Ni2   S    
C3    N14   A    
N2    Ni3   S    
C47   C53   A    
C30   H13   S    
N11   Ni4   S    
N7    Ni3   S    
C28   C34   A    
C45   O2    S    
C18   H7    S    
C13   C14   A    
C7    C56   A    
C49   H24   S    
H36   O2    S    
C44   C46   A    
C28   N3    A    
C22   C34   S    
C62   N10   A    
C29   H11   S    
C37   H19   S    
C8    C41   S    
C40   N4    A    
C17   H41   S    
C40   H30   S    
C5    C7    A    
C27   H10   S    
C25   C26   A    
C13   C24   S    
C60   C61   A    
C51   C53   A    
N10   N13   A    
C43   C44   A    
N13   Ni1   S    
C37   C38   A    
N6    Ni4   S    
N15   Ni3   S    
C47   C48   A    
C16   H15   S    
C50   C51   A    
C28   H25   S    
C57   C61   S    
C50   F2    S    
C26   O1    S    
C51   H26   S    
C39   C46   A    
C55   H28   S    
C48   C49   A    
C15   H6    S    
C16   C23   A    
C7    C19   S    
N8    Ni1   S    
C38   H14   S    
C22   C24   A    
C42   C43   A    
N16   Ni2   S    
C5    H40   S    
C2    N13   A    
N1    Ni1   S    
C64   H37   S    
C32   H16   S    
C5    N15   A    
C54   C55   D    
C9    C63   A    
C14   H5    S    
C2    C8    A    
C60   H33   S    
C1    C61   A    
N11   N12   A    
C23   C55   S    
C36   H18   S    
C21   H8    S    
C2    H38   S    
C34   C52   A    
C64   N12   A    
C48   H22   S    
C25   H9    S    
C32   C33   A    
C3    H39   S    
N9    N15   A    
N6    N16   A    
C12   C44   S    
C11   C13   A    
C45   N8    A    
C57   C58   D    
C59   N6    A    
C62   H23   S    
C52   H31   S    
C33   C35   A    
N14   Ni4   S    
C33   H17   S    
N2    N4    A    
C54   H27   S    
C10   C11   A    
N1    N7    A    
C10   H2    S    
C58   F3    S    
C20   C21   A    
C49   C50   A    
N10   Ni3   S    
N3    Ni4   S    
C14   C15   A    
C60   N7    A    
C21   C22   A    
C35   C46   S    
C47   F1    S    
C4    H4    S    
C8    C62   A    
C20   C31   S    
