data_mof_unit_63293.cif
_audit_creation_date              2012-12-10T17:27:03-0500
_audit_creation_method            fapswitch 2.2
_symmetry_space_group_name_H-M    P1
_symmetry_Int_Tables_number       1
_space_group_crystal_system       triclinic
_cell_length_a                    21.452271
_cell_length_b                    29.412291
_cell_length_c                    29.410793
_cell_angle_alpha                 90.000047
_cell_angle_beta                  89.999989
_cell_angle_gamma                 90.0
_cell_volume                      18557.0468115

loop_
_atom_site_label
_atom_site_type_symbol
_atom_type_description
_atom_site_fract_x
_atom_site_fract_y
_atom_site_fract_z
_atom_type_partial_charge
C1    C     C_R   0.000000 0.999999 0.085535 0.826062
C2    C     C_1   0.000000 0.000031 0.770711 0.004047
C3    C     C_3   0.310823 0.499820 0.500000 -0.011525
C4    C     C_1   0.000000 0.000021 0.136662 -0.210518
C5    C     C_1   0.000000 0.000021 0.863338 -0.210518
C6    C     C_1   0.500000 0.500021 0.636662 -0.210518
C7    C     C_1   0.500000 0.500021 0.363338 -0.210519
C8    C     C_3   0.205970 0.045272 0.079090 -0.875413
C9    C     C_3   0.794030 0.045277 0.920913 -0.875409
C10   C     C_3   0.794030 0.045266 0.079092 -0.875413
C11   C     C_3   0.205970 0.045272 0.920911 -0.875412
C12   C     C_3   0.705970 0.545272 0.579090 -0.875413
C13   C     C_1   0.500000 0.500031 0.729289 0.004047
C14   C     C_3   0.294030 0.545277 0.420913 -0.875409
C15   C     C_3   0.294030 0.545266 0.579093 -0.875413
C16   C     C_3   0.705970 0.545272 0.420911 -0.875412
C17   C     C_1   0.500000 0.500031 0.270711 0.004047
C18   C     C_1   0.000000 0.000025 0.271668 0.003194
C19   C     C_1   0.000000 0.000025 0.728331 0.003194
C20   C     C_1   0.500000 0.500025 0.771668 0.003194
C21   C     C_1   0.500000 0.500025 0.228331 0.003194
C22   C     C_1   0.000000 0.000014 0.321920 0.002539
C23   C     C_1   0.000000 0.000014 0.678079 0.002539
C24   C     C_1   0.500000 0.500014 0.821920 0.002539
C25   C     C_R   0.000000 0.999999 0.914465 0.826060
C26   C     C_1   0.500000 0.500014 0.178080 0.002539
C27   C     C_1   0.000000 0.000003 0.364301 -0.187685
C28   C     C_1   0.000000 0.000003 0.635699 -0.187686
C29   C     C_1   0.500000 0.500004 0.864301 -0.187685
C30   C     C_1   0.500000 0.500004 0.135699 -0.187686
C31   C     C_R   0.500000 0.085497 0.000000 0.824314
C32   C     C_R   0.000000 0.585497 0.500000 0.824314
C33   C     C_R   0.378623 0.999493 0.000000 0.831311
C34   C     C_R   0.621377 0.999493 0.000000 0.831311
C35   C     C_R   0.878623 0.499493 0.500000 0.831311
C36   C     C_R   0.500000 0.499999 0.585535 0.826063
C37   C     C_R   0.121377 0.499493 0.500000 0.831311
C38   C     C_R   0.500000 0.914390 1.000000 0.822899
C39   C     C_R   0.000000 0.414390 0.500000 0.822899
C40   C     C_R   0.000000 0.084536 0.500000 0.796954
C41   C     C_R   0.500000 0.584536 0.000000 0.796954
C42   C     C_R   0.000000 0.999993 0.415439 0.796890
C43   C     C_R   0.000000 0.999993 0.584561 0.796890
C44   C     C_R   0.500000 0.499993 0.915439 0.796890
C45   C     C_R   0.500000 0.499993 0.084561 0.796890
C46   C     C_R   0.121394 0.999958 0.000000 0.837896
C47   C     C_R   0.500000 0.499999 0.414465 0.826061
C48   C     C_R   0.878606 0.999958 1.000000 0.837896
C49   C     C_R   0.621394 0.499958 0.500000 0.837897
C50   C     C_R   0.378606 0.499958 0.500000 0.837897
C51   C     C_R   1.000000 0.915432 0.500000 0.796963
C52   C     C_R   0.500000 0.415432 0.000000 0.796963
C53   C     C_1   0.500000 0.136634 0.000000 -0.210181
C54   C     C_1   1.000000 0.636634 0.500000 -0.210181
C55   C     C_1   0.500000 0.179015 0.000000 0.000393
C56   C     C_1   1.000000 0.679015 0.500000 0.000393
C57   C     C_1   0.500000 0.229270 0.000000 0.003426
C58   C     C_1   0.000000 0.000031 0.179039 0.001077
C59   C     C_1   1.000000 0.729270 0.500000 0.003426
C60   C     C_1   1.000000 0.771652 0.500000 0.003021
C61   C     C_1   0.500000 0.271652 0.000000 0.003021
C62   C     C_1   1.000000 0.821908 0.500000 0.002491
C63   C     C_1   0.500000 0.321908 0.000000 0.002491
C64   C     C_1   1.000000 0.864290 0.500000 -0.187821
C65   C     C_1   0.500000 0.364291 0.000000 -0.187821
C66   C     C_1   0.500000 0.863266 1.000000 -0.208412
C67   C     C_1   0.000000 0.363266 0.500000 -0.208412
C68   C     C_1   0.500000 0.820893 1.000000 -0.000216
C69   C     C_1   0.000000 0.000030 0.820961 0.001077
C70   C     C_1   0.000000 0.320893 0.500000 -0.000216
C71   C     C_1   0.500000 0.770652 1.000000 0.003013
C72   C     C_1   0.000000 0.270652 0.500000 0.003013
C73   C     C_3   0.229997 0.021091 0.036906 0.184857
C74   C     C_3   0.770003 0.021093 0.963095 0.184856
C75   C     C_3   0.770003 0.021088 0.036908 0.184859
C76   C     C_3   0.229997 0.021091 0.963094 0.184857
C77   C     C_3   0.729997 0.521091 0.536906 0.184857
C78   C     C_3   0.270003 0.521093 0.463095 0.184856
C79   C     C_3   0.270003 0.521088 0.536908 0.184859
C80   C     C_1   0.500000 0.500031 0.679039 0.001077
C81   C     C_3   0.729997 0.521091 0.463094 0.184857
C82   C     C_1   0.000000 0.228279 0.500000 0.002822
C83   C     C_1   0.500000 0.728279 1.000000 0.002822
C84   C     C_1   0.000000 0.178037 0.500000 0.002247
C85   C     C_1   0.500000 0.678037 1.000000 0.002247
C86   C     C_1   0.000000 0.135663 0.500000 -0.187773
C87   C     C_1   0.500000 0.635663 0.000000 -0.187773
C88   C     C_3   0.271228 0.043117 0.000000 -0.159340
C89   C     C_3   0.728772 0.043117 0.000003 -0.159340
C90   C     C_3   0.771228 0.543117 0.500000 -0.159340
C91   C     C_1   0.500000 0.500031 0.320961 0.001077
C92   C     C_3   0.228772 0.543117 0.500003 -0.159340
C93   C     C_3   0.310923 0.999618 0.000000 -0.064416
C94   C     C_3   0.689077 0.999618 1.000000 -0.064416
C95   C     C_3   0.810923 0.499618 0.500000 -0.064416
C96   C     C_3   0.189077 0.499618 0.500000 -0.064416
C97   C     C_3   0.270806 0.977986 0.037494 -0.157627
C98   C     C_3   0.729194 0.977989 0.962504 -0.157628
C99   C     C_3   0.729194 0.977984 0.037493 -0.157627
C100  C     C_3   0.270806 0.977986 0.962506 -0.157628
C101  C     C_3   0.770806 0.477986 0.537494 -0.157627
C102  C     C_1   0.000000 0.000031 0.229288 0.004047
C103  C     C_3   0.229194 0.477989 0.462504 -0.157628
C104  C     C_3   0.229194 0.477984 0.537493 -0.157627
C105  C     C_3   0.770806 0.477986 0.462506 -0.157627
C106  C     C_3   0.229431 0.956522 1.000000 -0.238121
C107  C     C_3   0.770569 0.956522 0.999997 -0.238121
C108  C     C_3   0.729431 0.456522 0.500000 -0.238121
C109  C     C_3   0.270569 0.456522 0.499997 -0.238121
C110  C     C_3   0.189176 0.999820 0.000000 -0.011525
C111  C     C_3   0.810823 0.999820 1.000000 -0.011525
C112  C     C_3   0.689177 0.499820 0.500000 -0.011525
Cu1   Cu    Cu3+1 1.000000 0.957510 0.000000 0.947237
Cu2   Cu    Cu3+1 0.937230 0.999990 0.500000 0.963633
Cu3   Cu    Cu3+1 0.562770 0.499990 0.000000 0.963633
Cu4   Cu    Cu3+1 0.437230 0.499990 0.000000 0.963633
Cu5   Cu    Cu3+1 0.500000 0.457510 0.500000 0.947237
Cu6   Cu    Cu3+1 0.000000 0.042470 0.000000 0.946989
Cu7   Cu    Cu3+1 0.500000 0.542470 0.500000 0.946989
Cu8   Cu    Cu3+1 0.500000 0.999950 0.957510 0.948989
Cu9   Cu    Cu3+1 0.500000 0.999950 0.042490 0.948989
Cu10  Cu    Cu3+1 0.000000 0.499950 0.457510 0.948989
Cu11  Cu    Cu3+1 0.000000 0.499950 0.542490 0.948989
Cu12  Cu    Cu3+1 0.062770 0.999990 0.500000 0.963633
H1    H     H_    0.289485 0.078440 0.000000 0.130303
H2    H     H_    0.211121 0.460494 0.431762 0.147466
H3    H     H_    0.211121 0.460484 0.568232 0.147464
H4    H     H_    0.788879 0.460489 0.431764 0.147465
H5    H     H_    0.211301 0.921172 1.000000 0.159630
H6    H     H_    0.788699 0.921172 0.999994 0.159630
H7    H     H_    0.711301 0.421172 0.499999 0.159630
H8    H     H_    0.288699 0.421172 0.499994 0.159630
H9    H     H_    0.245929 0.056652 0.100171 0.239157
H10   H     H_    0.177867 0.075275 0.068933 0.241844
H11   H     H_    0.176449 0.021702 0.099213 0.227969
H12   H     H_    0.710515 0.078440 0.000005 0.130303
H13   H     H_    0.754070 0.056659 0.899833 0.239156
H14   H     H_    0.822132 0.075280 0.931072 0.241845
H15   H     H_    0.823550 0.021709 0.900788 0.227969
H16   H     H_    0.754071 0.056645 0.100175 0.239157
H17   H     H_    0.823551 0.021695 0.099215 0.227969
H18   H     H_    0.822133 0.075271 0.068937 0.241842
H19   H     H_    0.245929 0.056653 0.899829 0.239157
H20   H     H_    0.176449 0.021703 0.900787 0.227969
H21   H     H_    0.177867 0.075276 0.931068 0.241844
H22   H     H_    0.745929 0.556652 0.600171 0.239157
H23   H     H_    0.789485 0.578440 0.500000 0.130303
H24   H     H_    0.677867 0.575275 0.568933 0.241844
H25   H     H_    0.676449 0.521702 0.599213 0.227969
H26   H     H_    0.254070 0.556659 0.399833 0.239156
H27   H     H_    0.322132 0.575280 0.431072 0.241844
H28   H     H_    0.323551 0.521709 0.400788 0.227969
H29   H     H_    0.254071 0.556645 0.600175 0.239157
H30   H     H_    0.323551 0.521695 0.599215 0.227969
H31   H     H_    0.322133 0.575271 0.568937 0.241842
H32   H     H_    0.745929 0.556652 0.399829 0.239157
H33   H     H_    0.676449 0.521702 0.400787 0.227969
H34   H     H_    0.210515 0.578440 0.500005 0.130303
H35   H     H_    0.677867 0.575276 0.431068 0.241844
H36   H     H_    0.288879 0.960489 0.068235 0.147465
H37   H     H_    0.711121 0.960494 0.931762 0.147466
H38   H     H_    0.711121 0.960484 0.068232 0.147464
H39   H     H_    0.288879 0.960489 0.931764 0.147465
H40   H     H_    0.788879 0.460488 0.568235 0.147465
O1    O     O_R   0.000000 0.964120 0.061970 -0.565310
O2    O     O_R   0.000000 0.035860 0.938050 -0.564396
O3    O     O_R   0.500000 0.535860 0.561950 -0.564396
O4    O     O_R   0.500000 0.535860 0.438050 -0.564396
O5    O     O_R   0.091580 0.964120 0.000000 -0.589818
O6    O     O_R   0.908420 0.964120 0.000000 -0.589819
O7    O     O_R   0.591580 0.464120 0.500000 -0.589818
O8    O     O_R   0.408420 0.464120 0.500000 -0.589818
O9    O     O_R   0.091590 0.035860 0.000000 -0.581128
O10   O     O_R   0.908410 0.035860 0.000000 -0.581128
O11   O     O_R   0.591590 0.535860 0.500000 -0.581128
O12   O     O_R   0.000000 0.964120 0.938030 -0.565310
O13   O     O_R   0.408410 0.535860 0.500000 -0.581129
O14   O     O_R   0.500000 0.061920 0.964120 -0.564483
O15   O     O_R   0.500000 0.061920 0.035880 -0.564483
O16   O     O_R   0.000000 0.561920 0.464120 -0.564483
O17   O     O_R   0.000000 0.561920 0.535880 -0.564483
O18   O     O_R   0.408440 0.999940 0.964130 -0.584636
O19   O     O_R   0.591560 0.999940 0.035870 -0.584636
O20   O     O_R   0.591560 0.999940 0.964130 -0.584636
O21   O     O_R   0.408440 0.999940 0.035870 -0.584636
O22   O     O_R   0.908440 0.499940 0.464130 -0.584636
O23   O     O_R   0.500000 0.464120 0.561970 -0.565310
O24   O     O_R   0.091560 0.499940 0.535870 -0.584636
O25   O     O_R   0.091560 0.499940 0.464130 -0.584636
O26   O     O_R   0.908440 0.499940 0.535870 -0.584636
O27   O     O_R   0.500000 0.937960 0.964120 -0.566816
O28   O     O_R   0.500000 0.937960 0.035880 -0.566816
O29   O     O_R   0.000000 0.437960 0.464120 -0.566816
O30   O     O_R   0.000000 0.437960 0.535880 -0.566816
O31   O     O_R   0.053020 0.061970 0.500000 -0.557140
O32   O     O_R   0.946980 0.061970 0.500000 -0.557140
O33   O     O_R   0.553020 0.561970 0.000000 -0.557140
O34   O     O_R   0.500000 0.464120 0.438030 -0.565310
O35   O     O_R   0.446980 0.561970 0.000000 -0.557140
O36   O     O_R   0.053020 0.999990 0.438010 -0.557101
O37   O     O_R   0.946980 0.999990 0.561990 -0.557101
O38   O     O_R   0.946980 0.999990 0.438010 -0.557101
O39   O     O_R   0.053020 0.999990 0.561990 -0.557101
O40   O     O_R   0.553020 0.499990 0.938010 -0.557101
O41   O     O_R   0.446980 0.499990 0.061990 -0.557101
O42   O     O_R   0.446980 0.499990 0.938010 -0.557101
O43   O     O_R   0.553020 0.499990 0.061990 -0.557101
O44   O     O_R   0.053000 0.938010 0.500000 -0.557088
O45   O     O_R   0.947000 0.938010 0.500000 -0.557088
O46   O     O_R   0.553000 0.438010 0.000000 -0.557088
O47   O     O_R   0.447000 0.438010 0.000000 -0.557088
O48   O     O_R   0.000000 0.035860 0.061950 -0.564396

loop_
_geom_bond_atom_site_label_1
_geom_bond_atom_site_label_2
_ccdc_geom_bond_type
C106  H5    S    
C37   O25   A    
C21   C26   S    
C63   C65   T    
Cu3   O43   S    
C30   C45   S    
C77   C101  S    
C17   C91   S    
C41   O35   A    
C3    C79   S    
Cu9   O28   S    
C90   C95   S    
Cu9   O15   S    
C107  C111  S    
C73   C97   S    
C39   O29   A    
C90   H23   S    
Cu2   O32   S    
Cu2   O45   S    
C60   C62   S    
C36   O23   A    
C84   C86   T    
Cu4   O47   S    
C11   C76   S    
Cu5   Cu7   S    
C18   C102  T    
C104  C109  S    
Cu10  O22   S    
C37   O24   A    
C66   C68   T    
C94   C98   S    
C12   H22   S    
Cu3   Cu4   S    
C92   C96   S    
C35   O22   A    
C92   H34   S    
C10   H18   S    
C40   C86   S    
C89   C94   S    
C61   C63   S    
C103  H2    S    
Cu8   O14   S    
C24   C29   T    
C16   C81   S    
C15   H30   S    
C62   C64   T    
C95   C105  S    
Cu7   O11   S    
C9    H13   S    
C15   C79   S    
C38   C66   S    
Cu6   O9    S    
C108  H7    S    
C14   H27   S    
C43   O37   A    
C52   O47   A    
C5    C69   T    
Cu2   O38   S    
C47   O34   A    
C34   O20   A    
C58   C102  S    
C100  H39   S    
C2    C69   S    
C11   H20   S    
C76   C88   S    
C71   C83   T    
Cu4   O41   S    
C105  H4    S    
C75   C111  S    
Cu9   O19   S    
Cu2   Cu12  S    
C101  C108  S    
C53   C55   T    
C2    C19   T    
C13   C80   S    
C59   C60   T    
C45   O43   A    
C89   H12   S    
Cu12  O44   S    
C1    O48   A    
C52   O46   A    
Cu5   O7    S    
C52   C65   S    
C10   H16   S    
C107  H6    S    
C32   C54   S    
C39   O30   A    
C3    C50   S    
C48   O10   A    
C85   C87   T    
C41   C87   S    
C105  C108  S    
C81   C105  S    
C77   C90   S    
Cu2   O37   S    
C70   C72   S    
C31   O14   A    
C8    H10   S    
C97   H36   S    
C20   C24   S    
C32   O17   A    
C73   C110  S    
C50   O13   A    
C27   C42   S    
C74   C98   S    
Cu5   O23   S    
Cu8   O27   S    
C74   C111  S    
C49   O7    A    
Cu4   O35   S    
C51   O44   A    
C11   H21   S    
Cu1   O5    S    
Cu12  O39   S    
C78   C92   S    
C16   H35   S    
Cu9   O21   S    
Cu6   O2    S    
C36   O3    A    
C17   C21   T    
C98   C107  S    
C108  C112  S    
C37   C96   S    
C31   O15   A    
C10   H17   S    
C7    C47   S    
C77   C112  S    
C19   C23   S    
C73   C88   S    
C16   H32   S    
C88   H1    S    
C99   H38   S    
Cu3   O33   S    
C9    H14   S    
C51   O45   A    
C6    C80   T    
C81   C112  S    
C1    O1    A    
Cu6   O48   S    
C7    C91   T    
C12   C77   S    
C14   H26   S    
C109  H8    S    
C75   C99   S    
C46   O9    A    
C34   O19   A    
Cu11  O30   S    
C23   C28   T    
C31   C53   S    
Cu11  O26   S    
Cu8   O20   S    
C93   C100  S    
C79   C92   S    
Cu10  O16   S    
C49   C112  S    
C48   O6    A    
C81   C90   S    
C41   O33   A    
C83   C85   S    
C26   C30   T    
C35   O26   A    
C82   C84   S    
C22   C27   T    
C55   C57   S    
C29   C44   S    
C43   O39   A    
C5    C25   S    
C79   C104  S    
C42   O38   A    
C9    C74   S    
C97   C106  S    
Cu10  O29   S    
C14   H28   S    
C15   H31   S    
C93   C97   S    
C49   O11   A    
C98   H37   S    
Cu8   Cu9   S    
C74   C89   S    
Cu10  O25   S    
C40   O32   A    
C106  C110  S    
C25   O12   A    
C88   C93   S    
C45   O41   A    
C13   C20   T    
C16   H33   S    
C18   C22   S    
C39   C67   S    
C12   H25   S    
C101  H40   S    
C51   C64   S    
C34   C94   S    
C33   C93   S    
C33   O21   A    
C56   C59   S    
C54   C56   T    
C57   C61   T    
Cu1   O6    S    
C35   C95   S    
C25   O2    A    
C76   C100  S    
C99   C107  S    
C44   O42   A    
Cu12  O36   S    
C28   C43   S    
C38   O28   A    
C46   O5    A    
C103  C109  S    
C1    C4    S    
C67   C70   T    
C40   O31   A    
C96   C104  S    
C8    H9    S    
Cu11  O17   S    
C46   C110  S    
Cu1   O1    S    
C47   O4    A    
C9    H15   S    
Cu5   O8    S    
C12   H24   S    
C104  H3    S    
Cu8   O18   S    
C94   C99   S    
C3    C109  S    
C68   C71   S    
C78   C103  S    
Cu12  O31   S    
C42   O36   A    
C8    C73   S    
C6    C36   S    
Cu7   O3    S    
C14   C78   S    
Cu1   O12   S    
C72   C82   T    
C15   H29   S    
C75   C89   S    
C100  C106  S    
Cu1   Cu6   S    
C48   C111  S    
Cu6   O10   S    
Cu3   O40   S    
C76   C110  S    
C38   O27   A    
Cu11  O24   S    
C96   C103  S    
C4    C58   T    
C33   O18   A    
C44   O40   A    
C32   O16   A    
C50   O8    A    
Cu7   O13   S    
Cu10  Cu11  S    
C3    C78   S    
C11   H19   S    
Cu7   O4    S    
Cu3   O46   S    
Cu4   O42   S    
Cu5   O34   S    
C95   C101  S    
C8    H11   S    
C10   C75   S    
