data_mof_unit_8803.cif
_audit_creation_date              2012-12-11T15:45:45-0500
_audit_creation_method            fapswitch 2.2
_symmetry_space_group_name_H-M    P1
_symmetry_Int_Tables_number       1
_space_group_crystal_system       triclinic
_cell_length_a                    8.272036
_cell_length_b                    19.01908
_cell_length_c                    22.869884
_cell_angle_alpha                 95.32032
_cell_angle_beta                  89.461983
_cell_angle_gamma                 94.482406
_cell_volume                      3571.57238599

loop_
_atom_site_label
_atom_site_type_symbol
_atom_type_description
_atom_site_fract_x
_atom_site_fract_y
_atom_site_fract_z
_atom_type_partial_charge
Ba1   Ba    Ba6+2 0.850680 0.532880 0.472010 1.670596
Ba2   Ba    Ba6+2 0.339140 0.467180 0.527990 1.656289
C1    C     C_3   0.519734 0.739186 0.256501 -0.258062
C2    C     C_R   0.084901 0.564959 0.940176 -0.061303
C3    C     C_R   0.041562 0.560643 0.879565 0.621640
C4    C     C_3   0.090901 0.676393 0.309647 0.388703
C5    C     C_R   0.941341 0.439071 0.881799 0.585189
C6    C     C_R   0.988979 0.440083 0.941061 -0.012653
C7    C     C_R   0.059777 0.503238 0.970556 -0.073705
C8    C     C_R   0.151743 0.628368 0.972055 0.204888
C9    C     C_R   0.190517 0.628957 0.031610 -0.061774
C10   C     C_R   0.168571 0.567673 0.061527 -0.041701
C11   C     C_R   0.104402 0.504474 0.030893 -0.046477
C12   C     C_3   0.595777 0.717667 0.312544 0.508038
C13   C     C_R   0.966748 0.378948 0.971541 -0.054576
C14   C     C_R   0.015065 0.379933 0.030011 -0.051570
C15   C     C_R   0.084248 0.442467 0.060539 -0.018954
C16   C     C_3   0.048493 0.691802 0.247602 -0.242092
C17   C     C_R   0.134645 0.444174 0.119868 0.623154
C18   C     C_R   0.210192 0.568592 0.121532 0.640829
C19   C     C_2   0.770453 0.476768 0.771742 -0.068158
C20   C     C_3   0.722408 0.482033 0.708556 -0.069109
C21   C     C_1   0.004366 0.512809 0.685972 0.048829
C22   C     C_2   0.047845 0.516122 0.742422 -0.096986
C23   C     C_3   0.499565 0.364433 0.351220 0.235319
C24   C     C_2   0.925826 0.495752 0.788990 0.197941
C25   C     C_R   0.408380 0.535927 0.229216 0.124920
C26   C     C_R   0.447402 0.545408 0.289723 -0.051574
C27   C     C_R   0.188327 0.487098 0.314183 0.031315
C28   C     C_3   0.196891 0.682888 0.595245 0.305360
C29   C     C_R   0.142112 0.482581 0.254609 -0.123219
C30   C     C_R   0.249508 0.508638 0.211379 0.199755
C31   C     C_2   0.867594 0.477348 0.668261 -0.268400
C32   C     C_R   0.398234 0.700275 0.472074 -0.286835
C33   C     C_R   0.538138 0.723526 0.503910 0.089083
C34   C     C_3   0.494319 0.346321 0.284774 -0.250638
C35   C     C_R   0.586424 0.796132 0.511898 -0.091773
C36   C     C_R   0.494424 0.845791 0.487944 -0.005127
C37   C     C_R   0.349754 0.821472 0.457804 -0.067101
C38   C     C_R   0.300448 0.748949 0.451233 0.017782
C39   C     C_R   0.548982 0.961879 0.445113 -0.113101
C40   C     C_3   0.207229 0.762801 0.609673 -0.368436
C41   C     C_R   0.609430 0.033301 0.448576 -0.044671
C42   C     C_R   0.662876 0.068039 0.503693 0.053486
C43   C     C_R   0.662935 0.028125 0.552514 -0.088988
C44   C     C_R   0.608875 0.956207 0.547614 -0.069951
C45   C     C_3   0.022883 0.273855 0.687546 0.298562
C46   C     C_R   0.549762 0.922529 0.494000 0.071933
C47   C     C_R   0.855182 0.172137 0.541577 -0.143990
C48   C     C_R   0.898402 0.245442 0.548607 -0.015951
C49   C     C_R   0.657348 0.266593 0.495971 0.035843
C50   C     C_R   0.609839 0.194158 0.490783 -0.054367
C51   C     C_R   0.709668 0.145786 0.512521 0.033231
C52   C     C_3   0.003274 0.316211 0.405336 0.281179
C53   C     C_R   0.797145 0.292038 0.526862 -0.278471
C54   C     C_3   0.024212 0.237475 0.393488 -0.299107
C55   C     C_3   0.705692 0.629933 0.648566 0.289067
C56   C     C_3   0.096643 0.312509 0.743714 -0.245501
C57   C     C_3   0.742633 0.660097 0.711477 -0.344520
C58   C     C_2   0.410862 0.799141 0.266239 0.472143
C59   C     C_2   0.661891 0.340292 0.260156 0.601275
C60   C     C_2   0.937598 0.203242 0.698519 0.521820
C61   C     C_2   0.621209 0.067223 0.392676 0.498576
C62   C     C_3   0.548429 0.285072 0.660361 0.347368
C63   C     C_3   0.520953 0.212031 0.682352 -0.341527
C64   C     C_R   0.336402 0.521956 0.331201 -0.323779
H1    H     H_    0.294339 0.778427 0.646103 0.138488
H2    H     H_    0.616400 0.583296 0.648588 0.036946
H3    H     H_    0.618464 0.755255 0.226057 0.108886
H4    H     H_    0.823716 0.709492 0.711447 0.149325
H5    H     H_    0.804385 0.622077 0.735524 0.078372
H6    H     H_    0.628303 0.672196 0.734794 0.134287
H7    H     H_    0.499578 0.699246 0.343237 -0.043255
H8    H     H_    0.375057 0.374247 0.366498 0.027770
H9    H     H_    0.580610 0.413451 0.361333 0.034029
H10   H     H_    0.418291 0.295917 0.274409 0.153401
H11   H     H_    0.437690 0.388555 0.263767 0.011511
H12   H     H_    0.248599 0.789971 0.570887 0.045647
H13   H     H_    0.448433 0.692645 0.234406 0.104195
H14   H     H_    0.152566 0.719779 0.226737 0.110986
H15   H     H_    0.932158 0.308296 0.672283 -0.093273
H16   H     H_    0.144388 0.366694 0.735241 0.118751
H17   H     H_    0.002713 0.316733 0.778252 0.152785
H18   H     H_    0.197111 0.283782 0.759600 0.143522
H19   H     H_    0.669489 0.289909 0.639407 -0.068500
H20   H     H_    0.453643 0.289487 0.627170 0.112541
H21   H     H_    0.606105 0.206742 0.718571 0.147193
H22   H     H_    0.540236 0.170725 0.645882 0.062016
H23   H     H_    0.085943 0.780061 0.622974 0.129132
H24   H     H_    0.006607 0.631670 0.321272 0.092740
H25   H     H_    0.395128 0.203840 0.699056 0.154965
H26   H     H_    0.997005 0.331418 0.051385 0.140840
H27   H     H_    0.913087 0.329609 0.950003 0.138508
H28   H     H_    0.240292 0.678173 0.054546 0.148964
H29   H     H_    0.171737 0.533127 0.755187 0.124994
H30   H     H_    0.677376 0.464648 0.803861 0.112458
H31   H     H_    0.023737 0.458096 0.241807 0.133130
H32   H     H_    0.370106 0.526804 0.377084 0.084696
H33   H     H_    0.217288 0.660587 0.310218 -0.092302
H34   H     H_    0.874497 0.324110 0.414222 0.003472
H35   H     H_    0.863897 0.441198 0.628579 0.069594
H36   H     H_    0.499081 0.175318 0.467536 0.069707
H37   H     H_    0.507558 0.935734 0.403185 0.123050
H38   H     H_    0.695342 0.813729 0.536704 0.082054
H39   H     H_    0.702420 0.053096 0.595030 0.077724
H40   H     H_    0.610053 0.927193 0.586157 0.070790
H41   H     H_    0.936701 0.135889 0.556782 0.076483
H42   H     H_    0.273462 0.858812 0.441128 0.106787
H43   H     H_    0.833571 0.348164 0.530114 0.060864
H44   H     H_    0.014457 0.641352 0.220599 0.115089
H45   H     H_    0.077643 0.336788 0.444223 0.068944
H46   H     H_    0.358977 0.644428 0.467324 0.062626
H47   H     H_    0.945529 0.725809 0.247994 0.168340
H48   H     H_    0.318900 0.666158 0.583882 0.003620
H49   H     H_    0.113753 0.668931 0.557421 0.058195
H50   H     H_    0.371745 0.824094 0.228580 0.043453
H51   H     H_    0.748821 0.386213 0.263255 0.011608
H52   H     H_    0.871137 0.172409 0.663095 -0.068460
H53   H     H_    0.545393 0.045741 0.355766 0.025764
H54   H     H_    0.952434 0.215237 0.354357 0.189039
H55   H     H_    0.982675 0.209206 0.431723 0.094900
H56   H     H_    0.154161 0.229014 0.385272 0.113476
H57   H     H_    0.819748 0.614289 0.627410 0.020946
I1    I     I_    0.730899 0.808081 0.356118 -0.364428
I2    I     I_    0.594092 0.553049 0.165125 -0.422356
I3    I     I_    0.200754 0.728279 0.937417 -0.296603
N1    N     N_R   0.971757 0.498219 0.851014 -0.431348
N2    N     N_R   0.197628 0.506913 0.150036 -0.416752
O1    O     O_2   0.896730 0.461690 0.361000 -0.467514
O2    O     O_2   0.230972 0.251099 0.538123 -0.489543
O3    O     O_3   0.149509 0.261960 0.647275 -0.619643
O4    O     O_3   0.137170 0.462400 0.432040 -0.493615
O5    O     O_3   0.560670 0.583970 0.528500 -0.485192
O6    O     O_2   0.373560 0.329680 0.473470 -0.461510
O7    O     O_3   0.554926 0.307306 0.378051 -0.617476
O8    O     O_2   0.385386 0.449454 0.704700 -0.484044
O9    O     O_3   0.540112 0.336969 0.707951 -0.586066
O10   O     O_2   0.063216 0.612640 0.852242 -0.546639
O11   O     O_2   0.872415 0.385224 0.857592 -0.595755
O12   O     O_3   0.639647 0.682338 0.619692 -0.636667
O13   O     O_2   0.124132 0.389533 0.144320 -0.569120
O14   O     O_2   0.258634 0.624637 0.148360 -0.613849
O15   O     O_3   0.657500 0.588540 0.395070 -0.466398
O16   O     O_2   0.779066 0.537040 0.293339 -0.484383
O17   O     O_3   0.050837 0.348927 0.355034 -0.620962
O18   O     O_3   0.708317 0.667349 0.296232 -0.598614
O19   O     O_2   0.816140 0.670340 0.526560 -0.467383
O20   O     O_3   0.069580 0.624410 0.423530 -0.508291
O21   O     O_2   0.965003 0.750381 0.456928 -0.453640
O22   O     O_2   0.363579 0.819683 0.315119 -0.564402
O23   O     O_3   0.073544 0.736932 0.348676 -0.534359
O24   O     O_2   0.701226 0.284075 0.236309 -0.522129
O25   O     O_2   0.941599 0.179621 0.746338 -0.563268
O26   O     O_2   0.720194 0.116819 0.385963 -0.584004
O27   O     O_2   0.292960 0.538340 0.639040 -0.459378
O28   O     O_3   0.052540 0.537650 0.567960 -0.496161
O29   O     O_3   0.532200 0.411510 0.604930 -0.485534
O30   O     O_3   0.139691 0.651134 0.644884 -0.624004
O31   O     O_3   0.629030 0.416090 0.471500 -0.476837
O32   O     O_3   0.120120 0.375640 0.576470 -0.465242
P1    P     P_3+3 0.067040 0.441110 0.370020 0.994135
P2    P     P_3+3 0.640420 0.660110 0.543790 0.994984
P3    P     P_3+3 0.101713 0.715879 0.420696 1.012461
P4    P     P_3+3 0.122660 0.558950 0.629980 1.002006
P5    P     P_3+3 0.097180 0.282897 0.577392 0.942681
P6    P     P_3+3 0.645622 0.583829 0.318297 0.976824
P7    P     P_3+3 0.555614 0.327901 0.454246 0.969933
P8    P     P_3+3 0.546030 0.420848 0.681587 0.978306

loop_
_geom_bond_atom_site_label_1
_geom_bond_atom_site_label_2
_ccdc_geom_bond_type
C19   C24   D    
Ba2   O27   S    
C54   H55   S    
C32   H46   S    
C49   P7    S    
Ba1   O4    S    
C1    H13   S    
O5    P2    S    
C45   C60   S    
C41   C61   S    
C3    O10   D    
C47   H41   S    
C43   C44   A    
C42   C43   A    
C50   H36   S    
Ba2   O6    S    
C32   C38   A    
C57   H4    S    
C1    H3    S    
C22   C24   S    
C18   N2    Am   
Ba1   O1    S    
C34   H11   S    
C56   H16   S    
C36   C37   A    
Ba1   O5    S    
C55   C57   S    
O12   P2    S    
C13   C14   A    
C44   H40   S    
C17   N2    Am   
C16   H47   S    
C63   H25   S    
C32   C33   A    
C7    C11   A    
O4    P1    S    
C34   H10   S    
C42   C51   S    
C6    C7    A    
C21   C31   D    
Ba2   O4    S    
C21   C22   D    
O21   P3    D    
C36   C46   S    
C26   P6    S    
C57   H6    S    
C28   H49   S    
C20   P8    S    
C1    C58   S    
C29   H31   S    
O18   P6    S    
Ba1   P1    S    
C17   O13   D    
C19   C20   S    
C53   H43   S    
C39   C41   A    
C52   H34   S    
C4    C16   S    
O29   P8    S    
C62   H20   S    
C43   H39   S    
C63   H21   S    
C44   C46   A    
C62   O9    S    
C37   H42   S    
C23   H8    S    
C52   C54   S    
Ba2   O5    S    
C12   I1    S    
C59   H51   S    
C49   C50   A    
C33   P2    S    
C12   H7    S    
C18   O14   D    
C5    C6    A    
C38   P3    S    
C22   H29   S    
Ba2   P4    S    
C37   C38   A    
C14   C15   A    
O8    P8    D    
C4    H24   S    
C39   H37   S    
C55   O12   S    
C45   O3    S    
C23   H9    S    
C54   H56   S    
Ba1   O28   S    
C26   C64   A    
C41   C42   A    
O15   P6    S    
C35   C36   A    
Ba1   O15   S    
C56   H18   S    
C55   H57   S    
C61   H53   S    
C29   C30   A    
Ba1   O31   S    
C10   C18   A    
C48   P5    S    
O1    P1    D    
C58   O22   D    
O32   P5    S    
O3    P5    S    
C1    C12   S    
C52   O17   S    
C4    O23   S    
C9    H28   S    
Ba2   O32   S    
Ba1   P2    S    
C40   H12   S    
C6    C13   A    
O23   P3    S    
C40   H1    S    
C31   H35   S    
C58   H50   S    
Ba2   O31   S    
C55   H2    S    
C2    C8    A    
C34   C59   S    
C62   H19   S    
C50   C51   A    
C63   H22   S    
C21   P4    S    
C28   H48   S    
C28   O30   S    
C20   C31   S    
Ba2   O28   S    
C3    N1    Am   
C33   C35   A    
C25   C30   A    
O20   P3    S    
C16   H44   S    
C61   O26   D    
C2    C3    A    
O19   P2    D    
C13   H27   S    
C35   H38   S    
C9    C10   A    
C14   H26   S    
C54   H54   S    
C19   H30   S    
O30   P4    S    
O27   P4    D    
C12   O18   S    
C48   C53   A    
C60   O25   D    
C11   C15   A    
C40   H23   S    
C4    H33   S    
C30   N2    S    
C27   C29   A    
C56   H17   S    
C62   C63   S    
C45   C56   S    
C5    O11   D    
C25   I2    S    
O2    P5    D    
C64   H32   S    
O17   P1    S    
Ba2   O29   S    
C47   C51   A    
Ba1   Ba2   S    
C15   C17   A    
C39   C46   A    
O31   P7    S    
C52   H45   S    
C49   C53   A    
C24   N1    S    
C45   H15   S    
C23   O7    S    
C59   O24   D    
C60   H52   S    
Ba1   O19   S    
C8    C9    A    
C23   C34   S    
C27   C64   A    
C10   C11   A    
O28   P4    S    
C16   H14   S    
C47   C48   A    
O16   P6    D    
C25   C26   A    
O7    P7    S    
O6    P7    D    
C28   C40   S    
Ba1   O20   S    
C27   P1    S    
C5    N1    Am   
C2    C7    A    
C8    I3    S    
O9    P8    S    
C57   H5    S    
