data_mof_unit_16132.cif
_audit_creation_date              2012-12-10T18:57:43-0500
_audit_creation_method            fapswitch 2.2
_symmetry_space_group_name_H-M    P1
_symmetry_Int_Tables_number       1
_space_group_crystal_system       triclinic
_cell_length_a                    10.927405
_cell_length_b                    10.831906
_cell_length_c                    9.552455
_cell_angle_alpha                 90.34212
_cell_angle_beta                  90.656131
_cell_angle_gamma                 90.146907
_cell_volume                      1130.57453169

loop_
_atom_site_label
_atom_site_type_symbol
_atom_type_description
_atom_site_fract_x
_atom_site_fract_y
_atom_site_fract_z
_atom_type_partial_charge
C1    C     C_R   0.497141 0.262406 0.499522 0.796030
C2    C     C_R   0.484023 0.129455 0.498277 -0.094522
C3    C     C_R   0.473714 0.063682 0.371361 -0.218579
C4    C     C_R   0.474438 0.934910 0.371887 -0.221052
C5    C     C_R   0.485434 0.871016 0.499328 -0.095990
C6    C     C_R   0.477723 0.937726 0.624406 0.132476
C7    C     C_3   0.556609 0.934072 0.753038 -0.488054
C8    C     C_3   0.555201 0.074061 0.752407 -0.457096
C9    C     C_R   0.604863 0.524437 0.075150 0.255806
C10   C     C_R   0.400223 0.462430 0.072699 -0.086714
C11   C     C_R   0.400076 0.462598 0.924144 -0.084956
C12   C     C_R   0.265112 0.498829 0.498985 0.882463
C13   C     C_R   0.605147 0.523483 0.927904 0.259413
C14   C     C_3   0.681166 0.637601 0.923344 -0.510167
C15   C     C_3   0.679657 0.639594 0.082277 -0.496097
C16   C     C_R   0.497862 0.737773 0.500142 0.794468
C17   C     C_R   0.734688 0.496690 0.500950 0.883534
C18   C     C_2   0.931156 0.476782 0.387269 -0.261665
C19   C     C_2   0.866374 0.482775 0.505054 -0.405206
C20   C     C_2   0.065033 0.458791 0.388451 0.537903
C21   C     C_2   0.132431 0.502691 0.496984 -0.410998
C22   C     C_R   0.476971 0.064820 0.623731 0.125175
Cu1   Cu    Cu3+1 0.499990 0.499980 0.640670 0.936398
Cu2   Cu    Cu3+1 0.500010 0.500020 0.359330 0.955664
H1    H     H_    0.885309 0.482284 0.286126 0.173862
H2    H     H_    0.646358 0.115821 0.732202 0.197660
H3    H     H_    0.319041 0.433011 0.126291 0.199980
H4    H     H_    0.318444 0.433460 0.868179 0.149834
H5    H     H_    0.773441 0.619821 0.879900 0.195047
H6    H     H_    0.631382 0.715703 0.875480 0.212838
H7    H     H_    0.771375 0.623967 0.130136 0.193083
H8    H     H_    0.628428 0.719142 0.126353 0.211482
H9    H     H_    0.908879 0.470749 0.607206 0.149345
H10   H     H_    0.090567 0.545135 0.587574 0.108863
H11   H     H_    0.471525 0.110980 0.271786 0.166460
H12   H     H_    0.472561 0.886214 0.272520 0.164491
H13   H     H_    0.507497 0.894483 0.843686 0.197826
H14   H     H_    0.648743 0.894922 0.732713 0.195366
H15   H     H_    0.505068 0.114702 0.842138 0.197687
N1    N     N_R   0.500780 0.500930 0.147930 -0.192600
N2    N     N_R   0.500780 0.500890 0.852020 -0.185577
O1    O     O_R   0.500000 0.319640 0.618810 -0.583513
O2    O     O_R   0.500010 0.319680 0.381230 -0.586072
O3    O     O_R   0.321940 0.499980 0.618760 -0.603325
O4    O     O_R   0.321950 0.500020 0.381180 -0.533726
O5    O     O_R   0.499990 0.680320 0.618770 -0.577872
O6    O     O_R   0.500000 0.680360 0.381190 -0.587857
O7    O     O_R   0.678050 0.499980 0.618820 -0.588116
O8    O     O_R   0.678060 0.500020 0.381240 -0.581335
O9    O     O_3   0.123281 0.409256 0.272159 -0.577307
C23   C     C_3   0.063500 0.300868 0.224935 -0.357081
H16   H     H_    0.980429 0.323686 0.162301 0.165271
H17   H     H_    0.040312 0.238122 0.312833 0.165985
H18   H     H_    0.126403 0.249921 0.155049 0.181073

loop_
_geom_bond_atom_site_label_1
_geom_bond_atom_site_label_2
_ccdc_geom_bond_type
C10   H3    S    
C2    C22   A    
C8    C22   S    
Cu1   Cu2   S    
C4    H12   S    
C15   H7    S    
C6    C7    S    
Cu1   O7    S    
C8    H15   S    
C8    H2    S    
Cu1   N2    S    
C17   O7    A    
C3    H11   S    
C23   H18   S    
C13   N2    A    
O9    C23   S    
C7    H13   S    
C15   H8    S    
C12   O3    A    
Cu1   O5    S    
C13   C14   S    
Cu1   O1    S    
C18   H1    S    
C11   H4    S    
C14   H6    S    
C20   O9    S    
Cu2   O4    S    
C16   O6    A    
C17   C19   S    
C7    H14   S    
C11   N2    A    
C18   C20   S    
C9    C15   S    
C5    C6    A    
C10   C11   A    
C14   H5    S    
C16   O5    A    
C3    C4    A    
C6    C22   A    
C1    O1    A    
C7    C8    S    
C20   C21   D    
C10   N1    A    
C1    C2    S    
C19   H9    S    
C17   O8    A    
Cu2   O8    S    
C12   O4    A    
Cu2   O2    S    
C9    C13   A    
C14   C15   S    
C18   C19   D    
C5    C16   S    
C2    C3    A    
C21   H10   S    
Cu2   N1    S    
Cu2   O6    S    
C12   C21   S    
C1    O2    A    
C9    N1    A    
Cu1   O3    S    
C23   H16   S    
C4    C5    A    
C23   H17   S    
