data_mof_unit_58591.cif
_audit_creation_date              2012-12-11T14:46:09-0500
_audit_creation_method            fapswitch 2.2
_symmetry_space_group_name_H-M    P1
_symmetry_Int_Tables_number       1
_space_group_crystal_system       triclinic
_cell_length_a                    10.91525
_cell_length_b                    10.944807
_cell_length_c                    18.845361
_cell_angle_alpha                 90.034645
_cell_angle_beta                  90.006221
_cell_angle_gamma                 119.987594
_cell_volume                      1949.98395306

loop_
_atom_site_label
_atom_site_type_symbol
_atom_type_description
_atom_site_fract_x
_atom_site_fract_y
_atom_site_fract_z
_atom_type_partial_charge
C1    C     C_R   0.864754 0.637197 0.603662 0.541066
C2    C     C_R   0.961445 0.170469 0.711004 0.010671
C3    C     C_R   0.961668 0.182281 0.786109 -0.003758
C4    C     C_R   0.270193 0.632588 0.603808 0.547631
C5    C     C_R   0.715684 0.115971 0.707664 0.009905
C6    C     C_R   0.724020 0.150842 0.779754 0.027566
C7    C     C_R   0.585062 0.063565 0.671758 -0.067550
C8    C     C_R   0.474028 0.072370 0.702658 -0.118807
C9    C     C_R   0.490935 0.130691 0.769825 -0.141396
C10   C     C_R   0.615263 0.172032 0.807648 -0.072878
C11   C     C_R   0.841062 0.149907 0.671306 -0.041981
C12   C     C_R   0.422737 0.625180 0.777374 -0.118981
C13   C     C_R   0.727314 0.534311 0.713741 -0.138579
C14   C     C_R   0.718230 0.545730 0.786829 -0.155753
C15   C     C_R   0.803069 0.675928 0.819606 0.028113
C16   C     C_R   0.860646 0.221362 0.601565 0.533677
C17   C     C_R   0.887389 0.796469 0.778444 -0.129664
C18   C     C_R   0.894608 0.785745 0.706112 -0.144487
C19   C     C_R   0.820393 0.653888 0.673733 0.023207
C20   C     C_R   0.436951 0.681360 0.298170 -0.078496
C21   C     C_R   0.465593 0.699777 0.226150 -0.136273
C22   C     C_R   0.365854 0.698709 0.178693 0.052664
C23   C     C_R   0.401286 0.616454 0.705125 -0.128651
C24   C     C_R   0.239049 0.684817 0.203219 0.233121
C25   C     C_R   0.212615 0.671576 0.275780 -0.047673
C26   C     C_R   0.310768 0.667946 0.322951 0.051649
C27   C     C_R   0.712317 0.095480 0.294204 0.206087
C28   C     C_R   0.863537 0.639839 0.398644 0.539124
C29   C     C_R   0.702080 0.081819 0.221483 -0.098363
C30   C     C_R   0.823541 0.131785 0.179264 -0.028411
C31   C     C_R   0.955692 0.186339 0.210351 -0.071601
C32   C     C_R   0.968930 0.196211 0.284051 -0.036462
C33   C     C_R   0.846729 0.162075 0.326222 -0.018475
C34   C     C_R   0.322650 0.671781 0.675397 0.027708
C35   C     C_R   0.906669 0.789307 0.296600 -0.107958
C36   C     C_R   0.910701 0.798424 0.224085 0.246711
C37   C     C_R   0.808995 0.682667 0.182996 0.051376
C38   C     C_R   0.709110 0.558788 0.217183 -0.162924
C39   C     C_R   0.715861 0.546808 0.290370 -0.137689
C40   C     C_R   0.269863 0.633768 0.396184 0.562746
C41   C     C_R   0.818788 0.661208 0.329670 -0.034007
C42   C     C_R   0.807613 0.105688 0.895060 0.528841
C43   C     C_R   0.400117 0.702391 0.895270 0.553364
C44   C     C_R   0.794212 0.696375 0.894954 0.551459
C45   C     C_R   0.838924 0.161894 0.821217 -0.031300
C46   C     C_R   0.803677 0.100915 0.104215 0.551218
C47   C     C_R   0.397893 0.705551 0.104200 0.597112
C48   C     C_R   0.795281 0.701292 0.107447 0.591714
C49   C     C_R   0.862169 0.226179 0.396405 0.561620
C50   C     C_R   0.270670 0.741427 0.718254 -0.126760
C51   C     C_R   0.295355 0.753186 0.790848 -0.127710
C52   C     C_R   0.367663 0.691026 0.820586 0.039015
C53   C     C_2   0.110029 0.237113 0.314406 0.299633
C54   C     C_R   0.087666 0.222673 0.824087 -0.087202
C55   C     C_R   0.208960 0.243401 0.789260 -0.123193
C56   C     C_R   0.205296 0.218289 0.716740 -0.130451
C57   C     C_R   0.082432 0.180131 0.678016 -0.081037
Cl1   Cl    Cl    0.108764 0.671861 0.143968 -0.569438
Cl2   Cl    Cl    0.552608 0.027166 0.342393 -0.600178
Cl3   Cl    Cl    0.056191 0.955126 0.190717 -0.532331
Cr1   Cr    Cr6+3 0.791660 0.390250 0.499930 1.055797
Cr2   Cr    Cr6+3 0.098520 0.708290 0.500540 1.039627
Cr3   Cr    Cr6+3 0.109770 0.401430 0.499480 1.014242
Cr4   Cr    Cr6+3 0.874790 0.925890 0.000070 1.080484
Cr5   Cr    Cr6+3 0.574120 0.948670 0.999300 1.056353
Cr6   Cr    Cr6+3 0.551420 0.625320 0.000920 1.032771
H1    H     H_    0.205937 0.781486 0.696242 0.138351
H2    H     H_    0.564516 0.712133 0.206899 0.114044
H3    H     H_    0.254988 0.806469 0.823691 0.127627
H4    H     H_    0.112455 0.656591 0.295081 0.150765
H5    H     H_    0.597393 0.029502 0.197980 0.185011
H6    H     H_    0.047363 0.216163 0.177043 0.210294
H7    H     H_    0.985302 0.878985 0.326594 0.168646
H8    H     H_    0.628880 0.470460 0.187216 0.167228
H9    H     H_    0.646162 0.446492 0.315439 0.182849
H10   H     H_    0.482503 0.579900 0.799613 0.138950
H11   H     H_    0.440731 0.561304 0.673031 0.129196
H12   H     H_    0.376611 0.037953 0.673631 0.107309
H13   H     H_    0.305765 0.278635 0.818906 0.106812
H14   H     H_    0.298398 0.229809 0.690189 0.105015
H15   H     H_    0.095117 0.244629 0.880403 0.137189
H16   H     H_    0.082613 0.155481 0.622487 0.128650
H17   H     H_    0.626001 0.223230 0.858203 0.138240
H18   H     H_    0.118883 0.198468 0.366011 0.127978
H19   H     H_    0.571186 0.021622 0.618418 0.134493
H20   H     H_    0.406902 0.141786 0.793266 0.103705
H21   H     H_    0.668286 0.431054 0.689439 0.146682
H22   H     H_    0.647905 0.453656 0.817707 0.111361
H23   H     H_    0.948738 0.900099 0.802075 0.152558
H24   H     H_    0.965346 0.879242 0.676179 0.129872
H25   H     H_    0.512102 0.677170 0.334221 0.133223
O1    O     O_R   0.766500 0.250040 0.579790 -0.512614
O2    O     O_R   0.413330 0.603360 0.920440 -0.527463
O3    O     O_R   0.676110 0.626250 0.926750 -0.510951
O4    O     O_R   0.798570 0.516780 0.574780 -0.506190
O5    O     O_R   0.895350 0.809870 0.080950 -0.415136
O6    O     O_R   0.872490 0.049760 0.073800 -0.480270
O7    O     O_R   0.691680 0.088070 0.079070 -0.515909
O8    O     O_R   0.451720 0.825250 0.074050 -0.482585
O9    O     O_R   0.413580 0.606370 0.080960 -0.503997
O10   O     O_R   0.676340 0.629040 0.075550 -0.523143
O11   O     O_3   0.666780 0.833290 0.000090 -0.281233
O12   O     O_R   0.218690 0.701900 0.425960 -0.477729
O13   O     O_R   0.984000 0.732950 0.581090 -0.532282
O14   O     O_R   0.218600 0.700890 0.574760 -0.508950
O15   O     O_R   0.249390 0.515350 0.579940 -0.516429
O16   O     O_R   0.982790 0.280900 0.573700 -0.508096
O17   O     O_R   0.766600 0.251130 0.419260 -0.440109
O18   O     O_R   0.798660 0.517790 0.425980 -0.498111
O19   O     O_R   0.984100 0.734040 0.420570 -0.521281
O20   O     O_2   0.218272 0.311271 0.281031 -0.484006
O21   O     O_R   0.249490 0.516440 0.419420 -0.509336
O22   O     O_R   0.982880 0.281910 0.424890 -0.543818
O23   O     O_3   0.999980 0.499990 0.499980 -0.255416
O24   O     O_R   0.895110 0.806860 0.920430 -0.514363
O25   O     O_R   0.872260 0.046970 0.925000 -0.509949
O26   O     O_R   0.691430 0.085060 0.918550 -0.521880
O27   O     O_R   0.451490 0.822460 0.925250 -0.490655

loop_
_geom_bond_atom_site_label_1
_geom_bond_atom_site_label_2
_ccdc_geom_bond_type
C49   O22   A    
C55   C56   A    
Cr4   O25   S    
C6    C45   A    
C27   C29   A    
Cr6   O11   S    
C35   C36   A    
Cr1   O18   S    
C2    C57   A    
C7    C8    A    
C39   C41   A    
Cr2   O14   S    
C7    H19   S    
C27   C33   A    
Cr4   O11   S    
C12   C23   A    
C29   C30   A    
C53   H18   S    
C36   C37   A    
Cr5   O7    S    
Cr2   O23   S    
C30   C31   A    
C3    C54   A    
C43   C52   S    
C33   C49   S    
C28   C41   S    
C47   O8    A    
C56   C57   A    
C18   C19   A    
Cr6   O9    S    
Cr3   O21   S    
Cr1   O17   S    
C16   O16   A    
Cr3   O23   S    
C44   O24   A    
C8    C9    A    
Cr5   O27   S    
C31   H6    S    
C39   H9    S    
C9    C10   A    
Cr1   O1    S    
Cr6   O3    S    
C53   O20   D    
C22   C47   S    
C46   O7    A    
Cr4   O24   S    
C13   C14   A    
C8    H12   S    
Cr6   O10   S    
Cr5   O11   S    
C2    C11   A    
C12   C52   A    
C50   C51   A    
C49   O17   A    
Cr2   O13   S    
C38   C39   A    
C20   H25   S    
C4    C34   S    
C1    C19   S    
C34   C50   A    
C13   C19   A    
C51   C52   A    
C18   H24   S    
C17   H23   S    
C24   C25   A    
Cr5   O8    S    
C40   O21   A    
C5    C7    A    
C28   O19   A    
C25   C26   A    
C4    O15   A    
C3    C45   A    
C10   H17   S    
C50   H1    S    
C37   C48   S    
C42   C45   S    
C6    C10   A    
C37   C38   A    
C9    H20   S    
C55   H13   S    
C11   C16   S    
C31   C32   A    
Cr2   O19   S    
C1    O4    A    
C23   C34   A    
C13   H21   S    
C17   C18   A    
C23   H11   S    
Cr3   O15   S    
C1    O13   A    
Cr4   O5    S    
Cr6   O2    S    
C42   O25   A    
Cr4   O6    S    
C46   O6    A    
C16   O1    A    
C12   H10   S    
C21   H2    S    
C22   C24   A    
Cr3   O16   S    
C32   C53   S    
Cr2   O12   S    
C38   H8    S    
C15   C17   A    
C54   C55   A    
C35   H7    S    
C48   O5    A    
C57   H16   S    
C30   C46   S    
C36   Cl3   S    
C15   C44   S    
Cr1   O4    S    
C42   O26   A    
C5    C11   A    
C28   O18   A    
C4    O14   A    
C56   H14   S    
C32   C33   A    
C2    C3    A    
C14   H22   S    
C27   Cl2   S    
C40   O12   A    
C26   C40   S    
C5    C6    A    
C20   C26   A    
C48   O10   A    
C43   O2    A    
C35   C41   A    
C44   O3    A    
C47   O9    A    
C43   O27   A    
Cr3   O22   S    
C20   C21   A    
C24   Cl1   S    
Cr1   O23   S    
Cr5   O26   S    
C14   C15   A    
C25   H4    S    
C51   H3    S    
C21   C22   A    
C54   H15   S    
C29   H5    S    
