data_mof_unit_9972.cif
_audit_creation_date              2012-10-26T20:12:43-0400
_audit_creation_method            fapswitch 2.2
_symmetry_space_group_name_H-M    P1
_symmetry_Int_Tables_number       1
_space_group_crystal_system       triclinic
_cell_length_a                    15.13483
_cell_length_b                    13.839471
_cell_length_c                    11.018447
_cell_angle_alpha                 90.182347
_cell_angle_beta                  90.226751
_cell_angle_gamma                 89.998174
_cell_volume                      2307.87256039

loop_
_atom_site_label
_atom_site_type_symbol
_atom_type_description
_atom_site_fract_x
_atom_site_fract_y
_atom_site_fract_z
_atom_type_partial_charge
C1    C     C_R   0.329858 0.500004 0.500063 0.548549
C2    C     C_R   0.423996 0.790746 0.475996 0.019789
C3    C     C_R   0.461627 0.209778 0.406787 0.005776
C4    C     C_R   0.575659 0.791066 0.525239 0.026216
C5    C     C_R   0.499277 0.055549 0.501436 0.072303
C6    C     C_R   0.499429 0.945919 0.501634 0.071189
C7    C     C_R   0.499908 0.500093 0.261889 0.543045
C8    C     C_R   0.498858 0.500452 0.737974 0.542304
C9    C     C_R   0.465686 0.679460 0.117775 -0.081799
C10   C     C_R   0.451173 0.328089 0.886111 -0.099251
C11   C     C_R   0.531623 0.679810 0.884726 -0.083115
C12   C     C_R   0.670141 0.499997 0.500063 0.550067
C13   C     C_R   0.535706 0.324261 0.108946 -0.103717
C14   C     C_R   0.482419 0.767350 0.061123 0.140568
C15   C     C_R   0.464820 0.238233 0.943235 0.149638
C16   C     C_R   0.515829 0.767527 0.942967 0.141032
C17   C     C_R   0.519185 0.236213 0.047967 0.147135
C18   C     C_R   0.507580 0.590284 0.938067 -0.032749
C19   C     C_R   0.506784 0.413442 0.060375 -0.032889
C20   C     C_R   0.488985 0.589995 0.062985 -0.032062
C21   C     C_R   0.484245 0.414686 0.937468 -0.032313
C22   C     C_R   0.496775 0.502005 0.871965 -0.021596
C23   C     C_R   0.048561 0.499958 0.500592 0.034211
C24   C     C_R   0.498794 0.501111 0.127684 -0.021732
C25   C     C_R   0.095057 0.582536 0.463835 -0.121413
C26   C     C_R   0.904702 0.417384 0.463051 -0.123693
C27   C     C_R   0.904878 0.582456 0.537954 -0.120502
C28   C     C_R   0.095367 0.417426 0.537293 -0.123628
C29   C     C_R   0.186877 0.582783 0.464498 -0.133537
C30   C     C_R   0.812871 0.417195 0.463676 -0.135288
C31   C     C_R   0.813056 0.582702 0.536974 -0.131805
C32   C     C_R   0.187195 0.417236 0.536362 -0.135429
C33   C     C_R   0.233420 0.500011 0.500301 0.015604
C34   C     C_R   0.951442 0.499916 0.500569 0.033849
C35   C     C_R   0.766580 0.499976 0.500212 0.014974
C36   C     C_3   0.634453 0.148142 0.163790 -0.321080
C37   C     C_3   0.446349 0.879654 0.809782 -0.294210
C38   C     C_3   0.355330 0.155225 0.809490 -0.314410
C39   C     C_3   0.553399 0.877649 0.195987 -0.294053
C40   C     C_3   0.648015 0.100872 0.748828 -0.086585
C41   C     C_3   0.283033 0.923142 0.556993 -0.150660
C42   C     C_3   0.349332 0.097637 0.256250 -0.083185
C43   C     C_3   0.699457 0.957413 0.433793 -0.152753
C44   C     C_R   0.539805 0.108352 0.597283 0.233600
C45   C     C_R   0.420701 0.892722 0.481868 0.242040
C46   C     C_R   0.459326 0.107482 0.404715 0.233114
C47   C     C_R   0.578183 0.892704 0.522056 0.237838
C48   C     C_R   0.538329 0.210673 0.593661 0.005855
Cu1   Cu    Cu3+1 0.500000 0.596430 0.500000 0.916384
Cu2   Cu    Cu3+1 0.500000 0.403570 0.500000 0.906852
H1    H     H_    0.431159 0.684506 0.202772 0.168924
H2    H     H_    0.778141 0.352825 0.433978 0.117528
H3    H     H_    0.778514 0.647074 0.566615 0.117924
H4    H     H_    0.221972 0.352853 0.565409 0.117530
H5    H     H_    0.566471 0.252648 0.666816 0.143894
H6    H     H_    0.364664 0.751605 0.452747 0.139777
H7    H     H_    0.433778 0.250951 0.333013 0.143004
H8    H     H_    0.635745 0.752507 0.546170 0.146929
H9    H     H_    0.554138 0.090588 0.029919 0.256485
H10   H     H_    0.659775 0.073432 0.175182 0.115252
H11   H     H_    0.621378 0.177745 0.255672 0.154431
H12   H     H_    0.411772 0.331087 0.804688 0.146732
H13   H     H_    0.686115 0.191299 0.117351 0.132510
H14   H     H_    0.550715 0.911940 0.925757 0.260147
H15   H     H_    0.456404 0.947476 0.759330 0.205072
H16   H     H_    0.389968 0.890595 0.872679 0.114540
H17   H     H_    0.429568 0.821580 0.743797 0.155428
H18   H     H_    0.418980 0.096457 0.958476 0.248828
H19   H     H_    0.331180 0.081175 0.789180 0.123078
H20   H     H_    0.377315 0.187241 0.722580 0.162325
H21   H     H_    0.299876 0.197709 0.848341 0.129364
H22   H     H_    0.449149 0.912061 0.081053 0.262356
H23   H     H_    0.565910 0.685209 0.799690 0.170483
H24   H     H_    0.544071 0.945157 0.247798 0.198700
H25   H     H_    0.609725 0.888365 0.133043 0.115191
H26   H     H_    0.569775 0.818871 0.260661 0.156711
H27   H     H_    0.629268 0.159707 0.812464 0.111898
H28   H     H_    0.694809 0.127342 0.678566 0.114543
H29   H     H_    0.683306 0.045337 0.802825 0.151227
H30   H     H_    0.312384 0.944548 0.645645 0.093442
H31   H     H_    0.261298 0.846454 0.559047 0.102893
H32   H     H_    0.223239 0.968160 0.543077 0.136146
H33   H     H_    0.365957 0.156575 0.192153 0.110303
H34   H     H_    0.574990 0.323103 0.190428 0.150491
H35   H     H_    0.303389 0.123622 0.328070 0.118805
H36   H     H_    0.313939 0.041237 0.203370 0.149299
H37   H     H_    0.661426 0.011114 0.380172 0.104044
H38   H     H_    0.709971 0.890023 0.380258 0.097850
H39   H     H_    0.765339 0.989239 0.452820 0.136421
H40   H     H_    0.060496 0.646513 0.433118 0.102868
H41   H     H_    0.939071 0.353409 0.431792 0.099691
H42   H     H_    0.939387 0.646416 0.569340 0.103707
H43   H     H_    0.061051 0.353433 0.568089 0.099751
H44   H     H_    0.221353 0.647191 0.435349 0.113036
N1    N     N_R   0.500000 0.258690 0.500000 -0.295693
N2    N     N_R   0.500000 0.741310 0.500000 -0.296681
N3    N     N_2   0.553959 0.146316 0.092174 -0.503609
N4    N     N_2   0.525578 0.854686 0.876567 -0.502260
N5    N     N_2   0.428012 0.150286 0.895252 -0.507841
N6    N     N_2   0.473736 0.854168 0.129139 -0.501421
O1    O     O_R   0.371460 0.581430 0.500010 -0.517436
O2    O     O_3   0.341834 0.940554 0.460614 -0.543280
O3    O     O_3   0.426973 0.056269 0.305014 -0.540505
O4    O     O_3   0.657636 0.938460 0.545111 -0.541821
O5    O     O_R   0.628540 0.418570 0.499990 -0.503223
O6    O     O_R   0.628540 0.581430 0.499990 -0.516278
O7    O     O_R   0.371460 0.418570 0.500010 -0.504138
O8    O     O_R   0.499990 0.581440 0.319660 -0.507537
O9    O     O_R   0.500010 0.418560 0.680340 -0.518633
O10   O     O_R   0.500010 0.581440 0.680340 -0.508664
O11   O     O_R   0.499990 0.418560 0.319660 -0.519176
O12   O     O_3   0.571947 0.057897 0.697383 -0.539840

loop_
_geom_bond_atom_site_label_1
_geom_bond_atom_site_label_2
_ccdc_geom_bond_type
C48   H5    S    
C38   H20   S    
C11   C18   A    
C48   N1    A    
C9    H1    S    
C42   O3    S    
C41   H30   S    
C1    C33   S    
C40   O12   S    
C13   H34   S    
C25   H40   S    
C43   H39   S    
C30   C35   A    
C43   H38   S    
C6    C45   A    
C10   C15   A    
Cu1   O1    S    
C12   O5    A    
Cu2   N1    S    
C7    C24   S    
C29   C33   A    
C41   O2    S    
C39   H24   S    
C43   O4    S    
C4    N2    A    
C26   C34   A    
C20   C24   A    
C7    O11   A    
C3    H7    S    
C37   H15   S    
Cu2   O5    S    
C8    C22   S    
C36   N3    S    
C42   H36   S    
C39   H25   S    
C36   H13   S    
C18   C20   A    
H14   N4    S    
C38   H19   S    
C2    C45   A    
C21   C22   A    
C27   C34   A    
C10   H12   S    
C32   H4    S    
C37   N4    S    
Cu1   O8    S    
C10   C21   A    
C25   C29   A    
C6    C47   A    
C13   C19   A    
C27   C31   A    
C28   C32   A    
C11   H23   S    
C26   H41   S    
C23   C28   A    
Cu2   O9    S    
C28   H43   S    
C9    C14   A    
C7    O8    A    
C8    O10   A    
C11   C16   A    
C9    C20   A    
C23   C34   S    
C41   H31   S    
C37   H16   S    
C40   H29   S    
C27   H42   S    
C42   H35   S    
C39   H26   S    
C31   H3    S    
C12   C35   S    
C1    O7    A    
C44   O12   S    
C5    C44   A    
C26   C30   A    
Cu2   O7    S    
H9    N3    S    
C14   C16   A    
C36   H11   S    
C1    O1    A    
H22   N6    S    
C15   C17   A    
C30   H2    S    
C38   H21   S    
C47   O4    S    
C19   C21   A    
C18   C22   A    
C46   O3    S    
C42   H33   S    
C15   N5    S    
C38   N5    S    
C36   H10   S    
C14   N6    S    
Cu1   O6    S    
C5    C46   A    
C3    C46   A    
C13   C17   A    
C43   H37   S    
C32   C33   A    
C2    N2    A    
C19   C24   A    
H18   N5    S    
C2    H6    S    
C8    O9    A    
C12   O6    A    
C16   N4    S    
C39   N6    S    
C5    C6    S    
C41   H32   S    
C37   H17   S    
C31   C35   A    
Cu2   O11   S    
C29   H44   S    
C40   H28   S    
C23   C25   A    
Cu1   N2    S    
C45   O2    S    
Cu1   Cu2   S    
C4    H8    S    
C40   H27   S    
C3    N1    A    
C17   N3    S    
C44   C48   A    
Cu1   O10   S    
C4    C47   A    
