data_mof_unit_22694.cif
_audit_creation_date              2013-03-05T15:41:12-0500
_audit_creation_method            fapswitch 2.2
_symmetry_space_group_name_H-M    P1
_symmetry_Int_Tables_number       1
_space_group_crystal_system       triclinic
_cell_length_a                    15.8569
_cell_length_b                    8.719564
_cell_length_c                    7.55002
_cell_angle_alpha                 103.479937
_cell_angle_beta                  94.270023
_cell_angle_gamma                 93.613374
_cell_volume                      1008.84622993

loop_
_atom_site_label
_atom_site_type_symbol
_atom_site_description
_atom_site_fract_x
_atom_site_fract_y
_atom_site_fract_z
_atom_type_partial_charge
O1    O     O_R   0.506050 0.286130 0.619770 -0.594144
O2    O     O_R   0.490330 0.256780 0.308370 -0.584086
C1    C     C_R   0.497255 0.199873 0.452990 0.863591
O3    O     O_R   0.387300 0.514690 0.655770 -0.619828
O4    O     O_R   0.371580 0.485340 0.344370 -0.574222
C2    C     C_R   0.340648 0.500300 0.502039 0.796151
Cu1   Cu    Cu3+1 0.509300 0.517380 0.684380 0.959296
Cu2   Cu    Cu3+1 0.490700 0.482620 0.315620 0.959176
O5    O     O_R   0.509670 0.743220 0.691630 -0.583339
O6    O     O_R   0.493950 0.713870 0.380230 -0.584045
O7    O     O_R   0.628420 0.514660 0.655630 -0.557002
O8    O     O_R   0.612700 0.485310 0.344230 -0.583696
C3    C     C_R   0.502593 0.800125 0.546985 0.873392
C4    C     C_R   0.659377 0.499686 0.497940 0.818076
C5    C     C_3   0.049979 0.408295 0.637243 -0.394069
C6    C     C_3   0.040833 0.434818 0.304156 0.227339
C7    C     C_3   0.942638 0.420822 0.304538 -0.470572
H1    H     H_    0.925825 0.280631 0.576311 0.113694
H2    H     H_    0.069314 0.285462 0.602902 0.199921
H3    H     H_    0.057352 0.521793 0.222272 0.140366
H4    H     H_    0.916729 0.294703 0.266271 0.212551
H5    H     H_    0.913648 0.476691 0.200023 0.247964
C8    C     C_1   0.748838 0.498738 0.493733 -0.116343
C9    C     C_3   0.083446 0.503362 0.503252 0.078126
C10   C     C_3   0.951742 0.405505 0.630963 0.215911
C11   C     C_3   0.917080 0.502691 0.495914 0.053509
C12   C     C_3   0.959089 0.677273 0.552029 -0.001912
C13   C     C_3   0.057854 0.675042 0.567586 -0.442563
C14   C     C_1   0.824413 0.499287 0.493025 -0.016417
C15   C     C_1   0.175799 0.503797 0.506794 -0.005173
C16   C     C_1   0.251288 0.502482 0.506328 -0.136641
H6    H     H_    0.083501 0.725912 0.712203 0.208911
H7    H     H_    0.087638 0.750735 0.485379 0.190284
H8    H     H_    0.939454 0.734505 0.688391 0.229591
H9    H     H_    0.079843 0.462065 0.778025 0.221223
C17   C     C_2   0.495721 0.031383 0.427434 -0.353911
H10   H     H_    0.487912 0.958682 0.288204 0.179406
C18   C     C_2   0.503885 0.968607 0.572428 -0.357391
H11   H     H_    0.511806 0.041367 0.711545 0.180249
N1    N     N_2   0.476670 0.456430 0.038530 -0.085641
N2    N     N_2   0.523330 0.543570 0.961470 -0.203379
H12   H     H_    0.573212 0.609334 0.046046 0.219815
N3    N     N_R   0.923149 0.458245 0.814045 0.124728
O9    O     O_R   0.955158 0.589940 0.925076 -0.435179
O10   O     O_R   0.864242 0.372285 0.866162 -0.385060
C19   C     C_3   0.928936 0.778729 0.419084 -0.402700
C20   C     C_3   0.945643 0.955641 0.504607 -0.767175
H13   H     H_    0.910292 0.989908 0.627572 0.255986
H14   H     H_    0.014402 0.988737 0.543805 0.273064
H15   H     H_    0.923311 0.021379 0.403102 0.261735
H16   H     H_    0.961256 0.749816 0.291266 0.260139
H17   H     H_    0.859635 0.754547 0.379828 0.220504
C21   C     C_3   0.397974 0.370840 0.941954 -0.028065
C22   C     C_3   0.375112 0.216233 0.996291 -0.787777
H18   H     H_    0.430015 0.142687 0.987559 0.241484
H19   H     H_    0.351456 0.235492 0.132936 0.279881
H20   H     H_    0.322574 0.147251 0.898852 0.210256
H21   H     H_    0.344850 0.448319 0.964201 0.170192
H22   H     H_    0.402740 0.326933 0.797831 0.209176
N4    N     N_R   0.072002 0.283488 0.214868 0.144657
O11   O     O_R   0.056431 0.156406 0.273115 -0.395513
O12   O     O_R   0.113465 0.274306 0.070868 -0.374500

loop_
_geom_bond_atom_site_label_1
_geom_bond_atom_site_label_2
_geom_bond_distance
_ccdc_geom_bond_type
C4    C8    1.421793 S    
O4    Cu2   1.918287 S    
Cu1   O7    1.918287 S    
C21   H21   1.110915 S    
C9    C13   1.551929 S    
N2    H12   1.029140 S    
C22   H18   1.110285 S    
C7    H5    1.106673 S    
Cu2   O8    1.928564 S    
C6    H3    1.115181 S    
C10   N3    1.466626 S    
C17   C18   1.334905 D    
C2    C16   1.420966 S    
C21   H22   1.076103 S    
Cu1   Cu2   2.720911 S    
C6    C9    1.565999 S    
C12   H8    1.110728 S    
C21   C22   1.528230 S    
N4    O12   1.301217 A    
C5    H2    1.110024 S    
N3    O10   1.301191 A    
C11   C12   1.571634 S    
O4    C2    1.302795 A    
H1    C10   1.110677 S    
C1    C17   1.434883 S    
C19   H16   1.110855 S    
O3    Cu1   1.928562 S    
C7    C11   1.550590 S    
C8    C14   1.198503 T    
C12   C19   1.553878 S    
C5    H9    1.112917 S    
C17   H10   1.087303 S    
O8    C4    1.304954 A    
C13   H7    1.113213 S    
O2    C1    1.300801 A    
C20   H15   1.109616 S    
C22   H19   1.103659 S    
Cu1   N2    2.044459 S    
N3    O9    1.301296 A    
C15   C16   1.198050 T    
O7    C4    1.303109 A    
C9    C15   1.462439 S    
C5    C10   1.553400 S    
O3    C2    1.304875 A    
C19   H17   1.110419 S    
C13   H6    1.113390 S    
C18   H11   1.086793 S    
C11   C14   1.466281 S    
C20   H14   1.110012 S    
N1    C21   1.462616 S    
C6    N4    1.468676 S    
C12   C13   1.563456 S    
Cu1   O5    1.956815 S    
O5    C3    1.301083 A    
C19   C20   1.524913 S    
N1    N2    1.289415 D    
Cu2   N1    2.044460 S    
N4    O11   1.300427 A    
C10   C11   1.561385 S    
O1    Cu1   1.957310 S    
C5    C9    1.551655 S    
O6    C3    1.299765 A    
Cu2   O6    1.957310 S    
O2    Cu2   1.956815 S    
C3    C18   1.435134 S    
C20   H13   1.111169 S    
C6    C7    1.554426 S    
O1    C1    1.299924 A    
C22   H20   1.111893 S    
C7    H4    1.113043 S    
