data_mof_unit_44778.cif
_audit_creation_date              2012-12-10T18:12:32-0500
_audit_creation_method            fapswitch 2.2
_symmetry_space_group_name_H-M    P1
_symmetry_Int_Tables_number       1
_space_group_crystal_system       triclinic
_cell_length_a                    12.759768
_cell_length_b                    12.831942
_cell_length_c                    15.716593
_cell_angle_alpha                 92.85397
_cell_angle_beta                  102.645255
_cell_angle_gamma                 81.330116
_cell_volume                      2481.83313904

loop_
_atom_site_label
_atom_site_type_symbol
_atom_type_description
_atom_site_fract_x
_atom_site_fract_y
_atom_site_fract_z
_atom_type_partial_charge
C1    C     C_R   0.438482 0.692497 0.492055 0.868383
C2    C     C_R   0.594017 0.203880 0.549002 -0.180875
C3    C     C_R   0.330696 0.830487 0.394479 -0.259533
C4    C     C_R   0.502060 0.498425 0.661592 0.876304
C5    C     C_R   0.310339 0.934618 0.367950 -0.151914
C6    C     C_R   0.365112 0.009801 0.418761 0.649499
C7    C     C_R   0.437705 0.981041 0.498915 0.003811
C8    C     C_R   0.434507 0.884173 0.534644 -0.065793
C9    C     C_R   0.510151 0.046942 0.545609 0.072757
C10   C     C_R   0.543820 0.038494 0.638194 -0.021477
C11   C     C_R   0.520418 0.949698 0.678532 -0.133953
C12   C     C_3   0.505971 0.503621 0.917461 -0.316072
C13   C     C_R   0.465946 0.872681 0.626116 -0.221670
C14   C     C_R   0.550899 0.120053 0.501627 -0.060576
C15   C     C_R   0.622948 0.200701 0.639674 -0.201330
C16   C     C_R   0.560612 0.308343 0.512750 0.935162
C17   C     C_R   0.396083 0.803872 0.476649 -0.094832
C18   C     C_R   0.085382 0.376410 0.348471 -0.261517
C19   C     C_R   0.809701 0.615360 0.615882 -0.042627
C20   C     C_R   0.920251 0.605544 0.658087 -0.284540
C21   C     C_R   0.995635 0.546874 0.615602 0.631394
C22   C     C_R   0.963292 0.513355 0.528215 -0.081936
C23   C     C_3   0.430269 0.444226 0.012013 0.523540
C24   C     C_R   0.852532 0.503054 0.498556 0.026371
C25   C     C_R   0.038833 0.479203 0.473980 -0.072923
C26   C     C_R   0.005393 0.426067 0.393634 -0.157221
C27   C     C_R   0.894919 0.417694 0.364898 0.598694
C28   C     C_R   0.498391 0.500312 0.338439 0.918187
C29   C     C_R   0.825049 0.438517 0.422873 -0.121584
C30   C     C_R   0.145878 0.502715 0.493767 0.018516
C31   C     C_R   0.194556 0.380413 0.385945 0.730399
C32   C     C_3   0.469677 0.605509 0.025029 -0.312096
C33   C     C_3   0.572751 0.568067 0.988912 -0.302749
C34   C     C_3   0.496657 0.508153 0.083596 -0.321683
C35   C     C_1   0.505636 0.497917 0.751079 0.009745
C36   C     C_1   0.494743 0.502783 0.249090 -0.030489
C37   C     C_3   0.403266 0.541034 0.953005 0.585096
C38   C     C_2   0.654138 0.636207 0.977448 1.103412
C39   C     C_2   0.561009 0.102956 0.408867 0.992754
C40   C     C_2   0.422602 0.792632 0.668427 1.003533
C41   C     C_2   0.060674 0.319015 0.264145 1.148853
C42   C     C_2   0.166388 0.606256 0.533819 1.022611
C43   C     C_2   0.733118 0.702241 0.638946 1.057756
C44   C     C_2   0.432734 0.716735 0.050769 1.096252
C45   C     C_3   0.532804 0.407015 0.976306 0.492150
C46   C     C_2   0.959347 0.656444 0.744460 1.025608
C47   C     C_2   0.775376 0.343782 0.427222 1.033117
C48   C     C_2   0.565048 0.926949 0.772252 1.008051
C49   C     C_2   0.614718 0.137755 0.780586 0.950308
C50   C     C_3   0.599381 0.470960 0.048070 0.582791
C51   C     C_1   0.506938 0.499612 0.826644 0.280612
C52   C     C_1   0.494259 0.505592 0.173877 0.268331
C53   C     C_R   0.598583 0.120037 0.685246 -0.026506
F1    F     F_    0.342466 0.111193 0.391904 -0.604338
F2    F     F_    0.273241 0.331021 0.346277 -0.559473
F3    F     F_    0.858580 0.367188 0.288388 -0.573365
F4    F     F_    0.099186 0.519267 0.660394 -0.581703
F5    F     F_    0.700288 0.434276 0.098352 -0.521500
F6    F     F_    0.565773 0.304926 0.951030 -0.564086
F7    F     F_    0.356696 0.380827 0.024704 -0.532562
F8    F     F_    0.302155 0.576511 0.902543 -0.544190
H1    H     H_    0.297788 0.770312 0.350125 0.194138
H2    H     H_    0.395942 0.818348 0.145499 0.357457
H3    H     H_    0.070851 0.650690 0.857862 0.387004
H4    H     H_    0.787766 0.205790 0.487517 0.347714
H5    H     H_    0.698171 0.896000 0.868581 0.371410
H6    H     H_    0.718303 0.165254 0.893400 0.404633
H7    H     H_    0.256609 0.955994 0.305962 0.203050
H8    H     H_    0.652675 0.268662 0.675605 0.166085
H9    H     H_    0.732260 0.693959 0.895880 0.373743
H10   H     H_    0.586872 0.998271 0.312799 0.375347
H11   H     H_    0.267131 0.853915 0.619208 0.307656
H12   H     H_    0.083049 0.182452 0.196891 0.366319
H13   H     H_    0.117997 0.763457 0.533216 0.358561
H14   H     H_    0.681624 0.856647 0.619417 0.355469
N1    N     N_R   0.222180 0.444680 0.455580 -0.212384
N2    N     N_R   0.776980 0.554790 0.543960 -0.147020
O1    O     O_R   0.366730 0.627160 0.478790 -0.625895
O2    O     O_R   0.675174 0.646614 0.894965 -0.733249
O3    O     O_2   0.552736 0.177753 0.361435 -0.524053
O4    O     O_R   0.581845 0.000193 0.376360 -0.779290
O5    O     O_2   0.484048 0.728657 0.717290 -0.523948
O6    O     O_R   0.310840 0.794068 0.657116 -0.697018
O7    O     O_2   0.006996 0.365618 0.199353 -0.488088
O8    O     O_R   0.103829 0.212806 0.258034 -0.715273
O9    O     O_2   0.238315 0.612348 0.598327 -0.475620
O10   O     O_R   0.098515 0.697173 0.499568 -0.809054
O11   O     O_2   0.698139 0.699962 0.705052 -0.549278
O12   O     O_R   0.544830 0.662520 0.507160 -0.582714
O13   O     O_R   0.710663 0.792160 0.588090 -0.760362
O14   O     O_2   0.412957 0.786068 0.996612 -0.514538
O15   O     O_R   0.421219 0.740676 0.136228 -0.803055
O16   O     O_2   0.911882 0.740445 0.765602 -0.578906
O17   O     O_R   0.052160 0.608626 0.801636 -0.623531
O18   O     O_2   0.704054 0.320112 0.366892 -0.528351
O19   O     O_R   0.820797 0.273605 0.495331 -0.780710
O20   O     O_2   0.503795 0.921487 0.821318 -0.500144
O21   O     O_R   0.677429 0.910492 0.803796 -0.747231
O22   O     O_2   0.537587 0.144462 0.815986 -0.512446
O23   O     O_R   0.410960 0.482330 0.609040 -0.563021
O24   O     O_R   0.717155 0.153097 0.829006 -0.722550
O25   O     O_R   0.589060 0.517690 0.637410 -0.604163
O26   O     O_R   0.455170 0.337480 0.492840 -0.532702
O27   O     O_R   0.633270 0.372840 0.521210 -0.624089
O28   O     O_R   0.410940 0.482310 0.362590 -0.562819
O29   O     O_R   0.589040 0.517670 0.390960 -0.610818
O30   O     O_2   0.701899 0.682287 0.040649 -0.557113
Zn1   Zn    Zn3+2 0.381080 0.476390 0.481050 1.083567
Zn2   Zn    Zn3+2 0.618920 0.523610 0.518950 1.028401

loop_
_geom_bond_atom_site_label_1
_geom_bond_atom_site_label_2
_ccdc_geom_bond_type
C8    C13   A    
C23   C45   S    
C27   C29   A    
C19   C20   A    
C18   C26   A    
C7    C8    A    
C48   O20   D    
C26   C27   A    
C29   C47   S    
C43   O11   D    
C15   C53   A    
C49   O24   S    
O27   Zn2   S    
C38   O2    S    
O12   Zn2   S    
C12   C37   S    
O1    Zn1   S    
C38   O30   D    
C19   N2    A    
C10   C53   A    
C24   C29   A    
C13   C40   S    
H14   O13   S    
C14   C39   S    
C16   O27   A    
H4    O19   S    
C28   O29   A    
C22   C25   A    
C4    O25   A    
H2    O15   S    
C47   O19   S    
O26   Zn1   S    
C42   O9    D    
H13   O10   S    
C2    C16   S    
C9    C10   A    
C36   C52   T    
C4    C35   S    
N1    Zn1   S    
C21   C22   A    
C1    O1    A    
C40   O6    S    
C11   C48   S    
C6    F1    S    
C5    H7    S    
C19   C43   S    
C23   F7    S    
C15   H8    S    
O28   Zn1   S    
O23   Zn1   S    
C43   O13   S    
C34   C50   S    
C50   F5    S    
C40   O5    D    
C39   O4    S    
C18   C41   S    
C27   F3    S    
C33   C50   S    
C23   C37   S    
C41   O7    D    
C32   C34   S    
C9    C14   A    
C21   F4    S    
C49   O22   D    
C30   N1    A    
C16   O26   A    
C46   O17   S    
C28   O28   A    
C23   C34   S    
C32   C44   S    
C32   C37   S    
N2    Zn2   S    
C2    C15   A    
H12   O8    S    
C44   O14   D    
C4    O23   A    
C35   C51   T    
C22   C24   A    
C12   C51   S    
C41   O8    S    
H6    O24   S    
C3    H1    S    
C25   C30   A    
C7    C9    A    
C45   F6    S    
C1    O12   A    
H9    O2    S    
C34   C52   S    
C8    C17   A    
C12   C45   S    
C3    C5    A    
C44   O15   S    
C37   F8    S    
C6    C7    A    
C42   O10   S    
C48   O21   S    
C1    C17   S    
C33   C38   S    
C32   C33   S    
H5    O21   S    
C25   C26   A    
H3    O17   S    
C39   O3    D    
C11   C13   A    
C31   N1    A    
C5    C6    A    
C46   O16   D    
C45   C50   S    
C49   C53   S    
C3    C17   A    
C2    C14   A    
H11   O6    S    
C10   C11   A    
C24   N2    A    
C20   C21   A    
C28   C36   S    
C47   O18   D    
C30   C42   S    
O25   Zn2   S    
C18   C31   A    
C31   F2    S    
C12   C33   S    
C20   C46   S    
H10   O4    S    
O29   Zn2   S    
