data_mof_unit_28396.cif
_audit_creation_date              2012-12-10T16:50:04-0500
_audit_creation_method            fapswitch 2.2
_symmetry_space_group_name_H-M    P1
_symmetry_Int_Tables_number       1
_space_group_crystal_system       triclinic
_cell_length_a                    7.782771
_cell_length_b                    8.561734
_cell_length_c                    10.631253
_cell_angle_alpha                 90.795623
_cell_angle_beta                  85.794057
_cell_angle_gamma                 93.609677
_cell_volume                      705.063075755

loop_
_atom_site_label
_atom_site_type_symbol
_atom_type_description
_atom_site_fract_x
_atom_site_fract_y
_atom_site_fract_z
_atom_type_partial_charge
C1    C     C_R   0.545771 0.794682 0.497573 0.937843
C2    C     C_R   0.450358 0.642642 0.937150 0.106630
C3    C     C_R   0.507188 0.508028 0.871639 -0.164390
C4    C     C_R   0.563581 0.378252 0.933341 -0.044543
C5    C     C_R   0.559266 0.383139 0.062785 -0.184106
C6    C     C_R   0.497019 0.511436 0.128794 -0.129698
C7    C     C_2   0.569977 0.958228 0.497148 -0.377584
C8    C     C_2   0.430616 0.041908 0.510026 -0.318110
C9    C     C_R   0.502156 0.501000 0.739253 0.819862
C10   C     C_R   0.454378 0.205365 0.504695 0.976785
C11   C     C_R   0.498889 0.504852 0.260853 0.884868
C12   C     C_R   0.403669 0.776774 0.874241 -0.135153
C13   C     C_R   0.344763 0.905789 0.941671 -0.188574
C14   C     C_R   0.334852 0.906916 0.073199 0.078480
C15   C     C_R   0.386077 0.776806 0.136657 -0.153382
C16   C     C_R   0.442853 0.643495 0.068962 0.044326
H1    H     H_    0.986492 0.617701 0.594433 0.198792
H2    H     H_    0.413291 0.784497 0.772583 0.147694
H3    H     H_    0.307949 0.005681 0.890645 0.125141
H4    H     H_    0.382329 0.781368 0.238469 0.180802
H5    H     H_    0.600166 0.284493 0.113707 0.192740
H6    H     H_    0.701639 0.009196 0.484725 0.192885
H7    H     H_    0.299009 0.990901 0.522935 0.198736
H8    H     H_    0.013525 0.382296 0.405572 0.212249
N1    N     N_2   0.950330 0.457950 0.466250 -0.167205
N2    N     N_2   0.049670 0.542050 0.533750 -0.168926
O1    O     O_R   0.389250 0.738570 0.508280 -0.621974
O2    O     O_R   0.678390 0.711630 0.486650 -0.618382
O3    O     O_R   0.355400 0.513470 0.694050 -0.617620
O4    O     O_R   0.644540 0.486530 0.672420 -0.628677
O5    O     O_R   0.321610 0.288370 0.513350 -0.609205
O6    O     O_R   0.610750 0.261430 0.491720 -0.623908
O7    O     O_R   0.355460 0.513470 0.327580 -0.620788
O8    O     O_R   0.644600 0.486530 0.305950 -0.604076
Zn1   Zn    Zn3+2 0.306930 0.517990 0.514440 0.964671
Zn2   Zn    Zn3+2 0.693070 0.482010 0.485560 0.966357
C17   C     C_2   0.621053 0.235020 0.865164 0.386516
H9    H     H_    0.598645 0.215439 0.766638 0.071754
O9    O     O_2   0.694104 0.135870 0.918917 -0.573714
C18   C     C_2   0.271556 0.045430 0.142386 0.384612
H10   H     H_    0.239345 0.146863 0.090771 0.073564
O10   O     O_2   0.253270 0.047947 0.257359 -0.595292

loop_
_geom_bond_atom_site_label_1
_geom_bond_atom_site_label_2
_ccdc_geom_bond_type
C1    O2    A    
C17   H9    S    
C3    C9    S    
C9    O3    A    
C7    H6    S    
C2    C16   A    
O3    Zn1   S    
O4    Zn2   S    
C2    C12   A    
C18   O10   D    
C2    C3    A    
C7    C8    D    
C17   O9    D    
C13   C14   A    
H8    N1    S    
C5    C6    A    
C9    O4    A    
H1    N2    S    
O6    Zn2   S    
C18   H10   S    
O7    Zn1   S    
O8    Zn2   S    
C15   H4    S    
O5    Zn1   S    
C13   H3    S    
N1    Zn2   S    
C14   C18   S    
C3    C4    A    
C10   O6    A    
N2    Zn1   S    
C11   O7    A    
C8    H7    S    
C5    H5    S    
C12   C13   A    
O2    Zn2   S    
C8    C10   S    
C12   H2    S    
C6    C11   S    
C1    O1    A    
C14   C15   A    
C4    C5    A    
O1    Zn1   S    
N1    N2    D    
C1    C7    S    
C6    C16   A    
C10   O5    A    
C11   O8    A    
C15   C16   A    
C4    C17   S    
