data_mof_unit_40466.cif
_audit_creation_date              2012-12-10T20:34:50-0500
_audit_creation_method            fapswitch 2.2
_symmetry_space_group_name_H-M    P1
_symmetry_Int_Tables_number       1
_space_group_crystal_system       triclinic
_cell_length_a                    10.674822
_cell_length_b                    10.708077
_cell_length_c                    9.872057
_cell_angle_alpha                 90.002352
_cell_angle_beta                  89.155876
_cell_angle_gamma                 90.060489
_cell_volume                      1128.32030905

loop_
_atom_site_label
_atom_site_type_symbol
_atom_type_description
_atom_site_fract_x
_atom_site_fract_y
_atom_site_fract_z
_atom_type_partial_charge
C1    C     C_R   0.506376 0.260107 0.499430 0.965868
C2    C     C_3   0.879352 0.496703 0.498542 0.017946
C3    C     C_3   0.928663 0.622909 0.440017 -0.448009
C4    C     C_3   0.933373 0.382663 0.412624 -0.045348
C5    C     C_R   0.501913 0.063516 0.619126 0.083942
C6    C     C_R   0.526213 0.128252 0.498987 -0.103563
C7    C     C_R   0.570565 0.062092 0.382855 -0.062166
C8    C     C_R   0.564287 0.932366 0.385581 -0.140147
C9    C     C_R   0.520548 0.870882 0.501768 -0.118309
C10   C     C_R   0.502709 0.936476 0.621562 0.040628
C11   C     C_3   0.398872 0.928863 0.724295 -0.401867
C12   C     C_R   0.257868 0.502705 0.501174 0.914377
C13   C     C_3   0.395918 0.070644 0.720369 0.207119
C14   C     C_R   0.437279 0.409372 0.072335 0.136059
C15   C     C_R   0.576198 0.578070 0.069558 0.427321
C16   C     C_R   0.574997 0.578723 0.925922 -0.143938
C17   C     C_R   0.436512 0.409981 0.929993 0.151645
C18   C     C_3   0.299296 0.384291 0.928134 -0.499777
C19   C     C_3   0.301205 0.380362 0.081946 0.183618
C20   C     C_R   0.502614 0.739805 0.500188 0.895748
C21   C     C_R   0.742439 0.499382 0.499249 0.916586
C22   C     C_3   0.068526 0.503272 0.651382 0.221025
C23   C     C_3   0.926573 0.488767 0.647845 -0.374558
C24   C     C_3   0.072072 0.617783 0.425779 -0.363767
C25   C     C_3   0.077236 0.380925 0.432715 -0.566352
C26   C     C_3   0.121683 0.502374 0.503355 0.035845
H1    H     H_    0.099346 0.611624 0.316763 0.180531
H2    H     H_    0.886952 0.645297 0.340587 0.222268
H3    H     H_    0.590076 0.879817 0.296102 0.245936
H4    H     H_    0.313744 0.882487 0.684270 0.257267
H5    H     H_    0.431663 0.891209 0.822539 0.206167
H6    H     H_    0.423491 0.115133 0.817211 0.161254
H7    H     H_    0.107003 0.422738 0.708531 0.146181
H8    H     H_    0.633775 0.643540 0.869804 0.184357
H9    H     H_    0.245669 0.464904 0.889418 0.226098
H10   H     H_    0.277104 0.293504 0.880047 0.264085
H11   H     H_    0.244698 0.455127 0.131354 0.124636
H12   H     H_    0.899700 0.398427 0.695378 0.219620
H13   H     H_    0.882032 0.562727 0.711531 0.226676
H14   H     H_    0.113502 0.705700 0.465233 0.224772
H15   H     H_    0.901721 0.700811 0.509261 0.221258
H16   H     H_    0.127037 0.368027 0.334079 0.228567
H17   H     H_    0.105968 0.299972 0.495743 0.231723
N1    N     N_R   0.499150 0.499140 0.142800 -0.169175
N2    N     N_R   0.499150 0.499180 0.857150 -0.127607
O1    O     O_R   0.500020 0.316790 0.614690 -0.589750
O2    O     O_R   0.500000 0.316760 0.385350 -0.629621
O3    O     O_R   0.314800 0.500000 0.614670 -0.588656
O4    O     O_R   0.314790 0.499960 0.385330 -0.634744
O5    O     O_R   0.500000 0.683240 0.614650 -0.618646
O6    O     O_R   0.499980 0.683210 0.385310 -0.587678
O7    O     O_R   0.685210 0.500040 0.614670 -0.620751
O8    O     O_R   0.685200 0.500000 0.385330 -0.590773
Zn1   Zn    Zn3+2 0.500010 0.500020 0.653130 1.010531
Zn2   Zn    Zn3+2 0.499990 0.499980 0.346870 1.023750
Cl1   Cl    Cl    0.108943 0.643789 0.741901 -0.629539
C27   C     C_2   0.909702 0.400126 0.261022 0.434539
H18   H     H_    0.947903 0.480517 0.208013 0.107389
O9    O     O_2   0.852273 0.323364 0.194775 -0.570175
C28   C     C_2   0.621428 0.123136 0.258434 0.526369
H19   H     H_    0.657176 0.217273 0.261568 0.132687
O10   O     O_2   0.626203 0.067494 0.150455 -0.520638
Cl2   Cl    Cl    0.253616 0.128466 0.650448 -0.627033
Cl3   Cl    Cl    0.680215 0.679053 0.150101 -0.615971
Cl4   Cl    Cl    0.275966 0.227118 0.148335 -0.552396
C29   C     C_2   0.881512 0.255353 0.456294 0.413603
H20   H     H_    0.917311 0.171793 0.406886 0.137245
O11   O     O_2   0.801357 0.243741 0.544821 -0.614281

loop_
_geom_bond_atom_site_label_1
_geom_bond_atom_site_label_2
_ccdc_geom_bond_type
C25   H16   S    
C4    C27   S    
C29   O11   D    
C15   Cl3   S    
C6    C7    A    
C23   H12   S    
C18   H9    S    
C9    C20   S    
C2    C4    S    
C13   Cl2   S    
C24   H1    S    
C22   Cl1   S    
C12   O3    A    
O1    Zn1   S    
C2    C21   S    
C12   O4    A    
C3    C24   S    
C11   H5    S    
C5    C10   A    
C28   O10   D    
C21   O8    A    
C5    C6    A    
C11   C13   S    
N1    Zn2   S    
C25   H17   S    
C27   H18   S    
O5    Zn1   S    
C18   H10   S    
C28   H19   S    
C23   H13   S    
C8    H3    S    
C9    C10   A    
C14   N1    A    
C3    H2    S    
C24   H14   S    
O7    Zn1   S    
N2    Zn1   S    
C19   Cl4   S    
C20   O6    A    
C2    C3    S    
O8    Zn2   S    
C17   C18   S    
C15   N1    A    
C24   C26   S    
C1    O1    A    
C27   O9    D    
C10   C11   S    
C16   N2    A    
C15   C16   A    
C4    C25   S    
C7    C28   S    
C7    C8    A    
C29   H20   S    
C4    C29   S    
O2    Zn2   S    
C18   C19   S    
C22   C26   S    
C12   C26   S    
C2    C23   S    
O3    Zn1   S    
C22   H7    S    
C22   C23   S    
C1    O2    A    
C20   O5    A    
C19   H11   S    
O6    Zn2   S    
C16   H8    S    
C25   C26   S    
O4    Zn2   S    
C13   H6    S    
C5    C13   S    
C14   C19   S    
C21   O7    A    
C3    H15   S    
C1    C6    S    
C11   H4    S    
C17   N2    A    
C8    C9    A    
C14   C17   A    
