data_mof_unit_39150.cif
_audit_creation_date              2013-03-05T15:56:26-0500
_audit_creation_method            fapswitch 2.2
_symmetry_space_group_name_H-M    P1
_symmetry_Int_Tables_number       1
_space_group_crystal_system       triclinic
_cell_length_a                    6.9271
_cell_length_b                    14.678724
_cell_length_c                    15.942054
_cell_angle_alpha                 90.344252
_cell_angle_beta                  89.838612
_cell_angle_gamma                 90.132527
_cell_volume                      1620.96385505

loop_
_atom_site_label
_atom_site_type_symbol
_atom_site_description
_atom_site_fract_x
_atom_site_fract_y
_atom_site_fract_z
_atom_type_partial_charge
O1    O     O_R   0.494400 0.415640 0.412830 -0.589240
O2    O     O_R   0.823920 0.405510 0.586560 -0.561443
O3    O     O_R   0.994250 0.584360 0.587170 -0.598343
C1    C     C_R   0.653395 0.382894 0.615433 1.028098
O4    O     O_R   0.824110 0.404610 0.413450 -0.563871
O5    O     O_R   0.994440 0.583460 0.412820 -0.574661
C2    C     C_R   0.655504 0.381258 0.385021 0.989702
O6    O     O_R   0.494210 0.416540 0.587180 -0.555713
O7    O     O_3   0.660810 0.558680 0.500000 -0.271584
V1    V     V_3+5 0.935650 0.489110 0.500000 1.322045
O8    O     O_R   0.324150 0.594490 0.413440 -0.594277
C3    C     C_R   0.154846 0.614797 0.382910 1.024567
O9    O     O_R   0.323970 0.595390 0.586550 -0.574131
C4    C     C_R   0.155122 0.615890 0.617017 1.036407
V2    V     V_3+5 0.435660 0.510890 0.500000 1.310604
O10   O     O_3   0.160630 0.441320 0.500000 -0.224324
C5    C     C_3   0.967715 0.666720 0.748255 0.256553
H1    H     H_    0.832521 0.681052 0.713137 0.094501
C6    C     C_3   0.972903 0.731838 0.825138 -0.419934
H2    H     H_    0.010637 0.693899 0.882975 0.218126
H3    H     H_    0.825776 0.760392 0.834838 0.158945
H4    H     H_    0.966152 0.780835 0.618207 0.106346
H5    H     H_    0.935015 0.882412 0.724532 0.159387
C7    C     C_3   0.106532 0.783058 0.652266 0.166452
C8    C     C_3   0.335552 0.688156 0.741478 0.263045
C9    C     C_3   0.144199 0.685334 0.688467 -0.381384
H6    H     H_    0.458119 0.704123 0.698901 0.114740
C10   C     C_3   0.122717 0.809518 0.811568 -0.025628
C11   C     C_3   0.084168 0.854348 0.725121 -0.459053
C12   C     C_3   0.327110 0.766047 0.807945 -0.441324
H7    H     H_    0.369849 0.742367 0.871275 0.196878
H8    H     H_    0.435078 0.819171 0.790824 0.173517
H9    H     H_    0.183247 0.913249 0.716177 0.200806
C13   C     C_R   0.975003 0.751186 0.194438 -0.174429
H10   H     H_    0.852924 0.751110 0.152099 0.185971
C14   C     C_R   0.982763 0.684951 0.257335 0.362284
C15   C     C_R   0.141947 0.682071 0.313208 -0.280284
C16   C     C_R   0.290407 0.746306 0.302891 -0.114508
H11   H     H_    0.412460 0.746387 0.345246 0.200188
C17   C     C_R   0.282567 0.812588 0.240038 0.363561
C18   C     C_R   0.123492 0.815404 0.184100 -0.290326
C19   C     C_R   0.791754 0.252007 0.696142 -0.059095
H12   H     H_    0.916665 0.253160 0.655464 0.186090
C20   C     C_R   0.785674 0.187674 0.760753 -0.101243
H13   H     H_    0.907578 0.142577 0.769117 0.128421
C21   C     C_R   0.622379 0.180453 0.812697 -0.174518
C22   C     C_R   0.466751 0.238386 0.798763 -0.235614
H14   H     H_    0.339330 0.233487 0.838117 0.169580
C23   C     C_R   0.471629 0.304132 0.735590 0.419256
C24   C     C_R   0.637523 0.312602 0.682956 -0.294067
C25   C     C_R   0.790095 0.243846 0.305479 0.372024
C26   C     C_R   0.776540 0.180806 0.239053 -0.174420
H15   H     H_    0.887436 0.129289 0.232294 0.163638
C27   C     C_R   0.621000 0.182527 0.182779 -0.193678
C28   C     C_R   0.477023 0.248617 0.194345 -0.104070
H16   H     H_    0.355256 0.251727 0.151998 0.137770
C29   C     C_R   0.490803 0.312876 0.259520 -0.020282
H17   H     H_    0.379737 0.364366 0.265132 0.163266
C30   C     C_R   0.646651 0.311854 0.316073 -0.304882
O11   O     O_R   0.771300 0.080930 0.910090 -0.601981
O12   O     O_R   0.441270 0.092800 0.083770 -0.588941
O13   O     O_R   0.271080 0.913920 0.084380 -0.564448
C31   C     C_R   0.610122 0.114974 0.112971 1.017383
O14   O     O_R   0.441580 0.091910 0.910670 -0.606756
O15   O     O_R   0.271390 0.913020 0.910040 -0.603323
C32   C     C_R   0.611126 0.112822 0.881125 0.953242
O16   O     O_R   0.770990 0.081830 0.084440 -0.595171
O17   O     O_3   0.604750 0.938760 0.997250 -0.263387
V3    V     V_3+5 0.329850 0.008280 0.997210 1.199467
O18   O     O_R   0.941680 0.901940 0.910610 -0.607730
C33   C     C_R   0.110859 0.879787 0.881686 0.931846
O19   O     O_R   0.941370 0.902830 0.083720 -0.585424
C34   C     C_R   0.110658 0.882608 0.114323 1.013216
V4    V     V_3+5 0.829860 0.986420 0.997150 1.196025
O20   O     O_3   0.104830 0.056030 0.997180 -0.278331
N1    N     N_R   0.254772 0.811044 0.591395 0.248084
O21   O     O_R   0.212675 0.813136 0.511943 -0.390343
O22   O     O_R   0.422588 0.841066 0.615754 -0.411855
Br1   Br    Br    0.774476 0.598021 0.258698 -0.545937
Br2   Br    Br    0.490516 0.899686 0.238843 -0.486478
Br3   Br    Br    0.931913 0.541106 0.783482 -0.332841
N2    N     N_R   0.308111 0.362969 0.729673 0.246726
O23   O     O_R   0.197672 0.357895 0.664112 -0.392473
O24   O     O_R   0.236076 0.396223 0.798693 -0.299573
N3    N     N_R   0.945856 0.234726 0.363534 0.227343
O25   O     O_R   0.957233 0.161793 0.409167 -0.361474
O26   O     O_R   0.096158 0.287398 0.356856 -0.400927
N4    N     N_R   0.379480 0.599724 0.779606 0.263530
O27   O     O_R   0.490439 0.543021 0.739399 -0.374558
O28   O     O_R   0.334485 0.582183 0.857224 -0.321358

loop_
_geom_bond_atom_site_label_1
_geom_bond_atom_site_label_2
_geom_bond_distance
_ccdc_geom_bond_type
C12   H8    1.113842 S    
C28   H16   1.083081 S    
C6    H2    1.112128 S    
C1    O6    1.292555 A    
C25   N3    1.430545 S    
C22   C23   1.399324 A    
N3    O25   1.300621 A    
C20   H13   1.083205 S    
C5    C9    1.572495 S    
H5    C11   1.113263 S    
C10   C11   1.554790 S    
C6    H3    1.112917 S    
C7    C9    1.572053 S    
C21   C32   1.481148 S    
O5    C3    1.292634 A    
C12   H7    1.110934 S    
C29   C30   1.408638 A    
C27   C31   1.488048 S    
O17   V4    1.707624 S    
V2    O10   2.159510 S    
C11   H9    1.112252 S    
C13   H10   1.083472 S    
O11   V4    2.011055 S    
C3    C15   1.494004 S    
O12   C31   1.300087 A    
C7    C11   1.566252 S    
C27   C28   1.403966 A    
O8    V2    2.009361 S    
C26   C27   1.404346 A    
O17   V3    2.162537 S    
O18   V4    2.004733 S    
C17   Br2   1.923926 S    
O13   C34   1.292791 A    
O18   C33   1.299494 A    
O1    V2    2.006905 S    
O7    V1    2.162514 S    
C5    Br3   1.945830 S    
O11   C32   1.292798 A    
O9    C4    1.300443 A    
C13   C18   1.403631 A    
C19   C20   1.402062 A    
C2    C30   1.495482 S    
C20   C21   1.404181 A    
N3    O26   1.299914 A    
C31   O16   1.297051 A    
V4    O20   2.159420 S    
C25   C26   1.405308 A    
N1    O21   1.301134 A    
O19   V4    2.009379 S    
O4    C2    1.298564 A    
C7    N1    1.470425 S    
C8    C9    1.574347 S    
O15   C33   1.294811 A    
C8    N4    1.469489 S    
O13   V3    2.008161 S    
C1    C24   1.499203 S    
O14   C32   1.300919 A    
C23   N2    1.429665 S    
O2    C1    1.309339 A    
C15   C16   1.403605 A    
C22   H14   1.083970 S    
C5    H1    1.113560 S    
O16   V4    2.010032 S    
O14   V3    2.004815 S    
C4    C9    1.525833 S    
C6    C10   1.555682 S    
O3    C4    1.296302 A    
C19   C24   1.408777 A    
C17   C18   1.420348 A    
N4    O28   1.302244 A    
C23   C24   1.426635 A    
O6    V2    2.010738 S    
N2    O24   1.299820 A    
C28   C29   1.402412 A    
H4    C7    1.115396 S    
C10   C33   1.518619 S    
C25   C30   1.419166 A    
C19   H12   1.080007 S    
O2    V1    2.004764 S    
C26   H15   1.083889 S    
O12   V3    2.005031 S    
C8    C12   1.555256 S    
C21   C22   1.393757 A    
C14   C15   1.420310 A    
O1    C2    1.301457 A    
N1    O22   1.301720 A    
O19   C34   1.306856 A    
C14   Br1   1.924080 S    
O5    V1    2.008199 S    
O8    C3    1.306805 A    
C8    H6    1.110970 S    
O9    V2    2.004679 S    
O7    V2    1.708656 S    
O4    V1    2.005063 S    
O3    V1    2.006984 S    
V1    O10   1.710539 S    
C16   C17   1.402084 A    
C29   H17   1.082884 S    
C16   H11   1.083492 S    
O15   V3    2.006890 S    
C10   C12   1.555130 S    
C5    C6    1.550225 S    
V3    O20   1.710553 S    
C13   C14   1.402081 A    
C18   C34   1.494180 S    
N4    O27   1.299303 A    
N2    O23   1.298660 A    
