data_mof_unit_61702.cif
_audit_creation_date              2013-03-05T15:54:22-0500
_audit_creation_method            fapswitch 2.2
_symmetry_space_group_name_H-M    P1
_symmetry_Int_Tables_number       1
_space_group_crystal_system       triclinic
_cell_length_a                    24.503342
_cell_length_b                    24.503285
_cell_length_c                    32.79421
_cell_angle_alpha                 90.000517
_cell_angle_beta                  90.007143
_cell_angle_gamma                 90.000467
_cell_volume                      19690.0492752

loop_
_atom_site_label
_atom_site_type_symbol
_atom_site_description
_atom_site_fract_x
_atom_site_fract_y
_atom_site_fract_z
_atom_type_partial_charge
Zn1   Zn    Zn3+2 0.500000 0.934510 0.781550 1.025822
Zn2   Zn    Zn3+2 0.500000 0.065490 0.218450 1.027020
Zn3   Zn    Zn3+2 0.065490 0.500000 0.781550 1.026064
Zn4   Zn    Zn3+2 0.934510 0.500000 0.218450 1.025690
Zn5   Zn    Zn3+2 0.500000 0.065490 0.781550 1.026099
Zn6   Zn    Zn3+2 0.500000 0.934510 0.218450 1.025534
Zn7   Zn    Zn3+2 0.934510 0.500000 0.781550 1.025037
Zn8   Zn    Zn3+2 0.065490 0.500000 0.218450 1.024872
Zn9   Zn    Zn3+2 0.000000 0.434510 0.281550 1.024581
Zn10  Zn    Zn3+2 0.000000 0.565490 0.718450 1.025854
Zn11  Zn    Zn3+2 0.565490 0.000000 0.281550 1.026369
Zn12  Zn    Zn3+2 0.434510 0.000000 0.718450 1.026230
Zn13  Zn    Zn3+2 0.000000 0.565490 0.281550 1.026209
Zn14  Zn    Zn3+2 0.000000 0.434510 0.718450 1.025727
Zn15  Zn    Zn3+2 0.434510 0.000000 0.281550 1.026104
Zn16  Zn    Zn3+2 0.565490 0.000000 0.718450 1.025211
C1    C     C_1   0.500002 0.000001 0.981186 0.054780
C2    C     C_1   0.500002 0.000001 0.018813 0.055032
C3    C     C_1   0.000003 0.500001 0.981186 0.053733
C4    C     C_1   0.999998 0.500001 0.018813 0.053422
C5    C     C_1   0.999999 0.500000 0.481187 0.053432
C6    C     C_1   0.999998 0.500000 0.518813 0.053731
C7    C     C_1   0.500002 0.000001 0.481187 0.055093
C8    C     C_1   0.499997 0.000000 0.518813 0.054827
O1    O     O_3   0.500000 1.000000 0.750000 -0.485903
O2    O     O_3   0.500000 0.000000 0.250000 -0.486379
O3    O     O_3   0.000000 0.500000 0.750000 -0.485801
O4    O     O_3   0.000000 0.500000 0.250000 -0.485448
O5    O     O_R   0.454070 0.000000 0.666090 -0.611279
O6    O     O_R   0.545930 0.000000 0.333910 -0.612114
O7    O     O_R   0.000000 0.454070 0.666090 -0.614510
O8    O     O_R   0.000000 0.545930 0.333910 -0.613735
O9    O     O_R   0.545930 0.000000 0.666090 -0.617463
O10   O     O_R   0.454070 0.000000 0.333910 -0.614948
O11   O     O_R   0.000000 0.545930 0.666090 -0.614353
O12   O     O_R   0.000000 0.454070 0.333910 -0.616728
O13   O     O_R   0.954070 0.500000 0.166090 -0.613781
O14   O     O_R   0.045930 0.500000 0.833910 -0.611343
O15   O     O_R   0.500000 0.954070 0.166090 -0.615106
O16   O     O_R   0.500000 0.045930 0.833910 -0.614239
O17   O     O_R   0.045930 0.500000 0.166090 -0.616734
O18   O     O_R   0.954070 0.500000 0.833910 -0.617537
O19   O     O_R   0.500000 0.045930 0.166090 -0.611996
O20   O     O_R   0.500000 0.954070 0.833910 -0.614478
O21   O     O_R   0.610280 0.935490 0.728060 -0.633813
O22   O     O_R   0.389720 0.064510 0.271940 -0.632717
O23   O     O_R   0.064510 0.610280 0.728060 -0.635028
O24   O     O_R   0.935490 0.389720 0.271940 -0.633746
O25   O     O_R   0.389720 0.064510 0.728060 -0.634112
O26   O     O_R   0.610280 0.935490 0.271940 -0.633950
O27   O     O_R   0.935490 0.389720 0.728060 -0.632584
O28   O     O_R   0.064510 0.610280 0.271940 -0.632648
O29   O     O_R   0.389720 0.935490 0.271940 -0.634812
O30   O     O_R   0.610280 0.064510 0.728060 -0.633828
O31   O     O_R   0.935490 0.610280 0.271940 -0.635075
O32   O     O_R   0.064510 0.389720 0.728060 -0.635055
O33   O     O_R   0.610280 0.064510 0.271940 -0.634118
O34   O     O_R   0.389720 0.935490 0.728060 -0.634069
O35   O     O_R   0.064510 0.389720 0.271940 -0.633679
O36   O     O_R   0.935490 0.610280 0.728060 -0.632574
O37   O     O_R   0.110280 0.435490 0.228060 -0.633755
O38   O     O_R   0.889720 0.564510 0.771940 -0.633841
O39   O     O_R   0.564510 0.110280 0.228060 -0.634037
O40   O     O_R   0.435490 0.889720 0.771940 -0.635050
O41   O     O_R   0.889720 0.564510 0.228060 -0.632852
O42   O     O_R   0.110280 0.435490 0.771940 -0.634139
O43   O     O_R   0.435490 0.889720 0.228060 -0.632509
O44   O     O_R   0.564510 0.110280 0.771940 -0.632523
O45   O     O_R   0.889720 0.435490 0.771940 -0.633854
O46   O     O_R   0.110280 0.564510 0.228060 -0.633955
O47   O     O_R   0.435490 0.110280 0.771940 -0.634993
O48   O     O_R   0.564510 0.889720 0.228060 -0.634864
O49   O     O_R   0.110280 0.564510 0.771940 -0.634092
O50   O     O_R   0.889720 0.435490 0.228060 -0.634874
O51   O     O_R   0.564510 0.889720 0.771940 -0.632594
O52   O     O_R   0.435490 0.110280 0.228060 -0.633904
H1    H     H_    0.201354 0.604014 0.789856 0.208650
H2    H     H_    0.799715 0.394897 0.208682 0.208305
H3    H     H_    0.395484 0.200855 0.790556 0.208306
H4    H     H_    0.604314 0.798944 0.209709 0.208260
H5    H     H_    0.798609 0.396029 0.789819 0.208671
H6    H     H_    0.202050 0.603314 0.211089 0.208714
H7    H     H_    0.603796 0.798431 0.789550 0.209983
H8    H     H_    0.397116 0.202471 0.211713 0.208523
H9    H     H_    0.798775 0.604142 0.209965 0.210084
H10   H     H_    0.201021 0.395648 0.790313 0.208756
H11   H     H_    0.603519 0.201831 0.210797 0.208774
H12   H     H_    0.395825 0.798810 0.790104 0.208255
H13   H     H_    0.200964 0.395595 0.209601 0.208639
H14   H     H_    0.798595 0.603960 0.789803 0.208680
H15   H     H_    0.396811 0.797832 0.211306 0.209807
H16   H     H_    0.603808 0.201557 0.789567 0.209998
H17   H     H_    0.701859 0.103504 0.289185 0.208697
H18   H     H_    0.298633 0.896000 0.710163 0.208655
H19   H     H_    0.895667 0.701036 0.290311 0.208319
H20   H     H_    0.104516 0.299146 0.709443 0.208237
H21   H     H_    0.298037 0.896609 0.289029 0.208284
H22   H     H_    0.701393 0.103969 0.710184 0.208706
H23   H     H_    0.104408 0.299026 0.290405 0.208737
H24   H     H_    0.896204 0.701569 0.710450 0.209986
H25   H     H_    0.298978 0.104350 0.709688 0.208780
H26   H     H_    0.701201 0.895829 0.290066 0.208720
H27   H     H_    0.104162 0.701205 0.709916 0.208258
H28   H     H_    0.894935 0.299696 0.291278 0.208650
H29   H     H_    0.701405 0.896040 0.710198 0.208707
H30   H     H_    0.297521 0.102857 0.288263 0.209981
H31   H     H_    0.896192 0.298442 0.710434 0.209972
H32   H     H_    0.103222 0.702132 0.288741 0.209857
C9    C     C_1   0.500001 0.000001 0.899106 -0.108178
C10   C     C_1   0.500000 1.000000 0.100894 -0.106714
C11   C     C_1   0.000008 0.500000 0.899106 -0.108565
C12   C     C_1   0.999992 0.500000 0.100894 -0.110170
C13   C     C_1   1.000000 0.500001 0.399106 -0.110151
C14   C     C_1   0.999999 0.499999 0.600894 -0.108561
C15   C     C_1   0.500007 0.000000 0.399106 -0.106628
C16   C     C_1   0.499992 0.000000 0.600894 -0.108177
C17   C     C_1   0.500002 0.000001 0.936734 0.037549
C18   C     C_1   0.500001 0.000000 0.063266 0.038417
C19   C     C_1   0.000007 0.500000 0.936734 0.036953
C20   C     C_1   0.999994 0.500001 0.063266 0.035932
C21   C     C_1   0.999999 0.500001 0.436734 0.035946
C22   C     C_1   0.999998 0.500000 0.563266 0.036937
C23   C     C_1   0.500006 0.000000 0.436734 0.038500
C24   C     C_1   0.499993 0.000000 0.563266 0.037586
C25   C     C_R   0.499997 1.000000 0.646113 0.791267
C26   C     C_R   0.500003 0.000000 0.353887 0.791486
C27   C     C_R   0.999999 0.500000 0.646113 0.791110
C28   C     C_R   0.000000 0.500000 0.353887 0.790871
C29   C     C_R   0.999997 0.500000 0.146113 0.790881
C30   C     C_R   0.000003 0.500000 0.853887 0.791236
C31   C     C_R   0.500000 1.000000 0.146113 0.791418
C32   C     C_R   0.500000 0.000000 0.853887 0.791148
C33   C     C_R   0.606276 0.893740 0.750015 0.837796
C34   C     C_R   0.393733 0.106264 0.249997 0.835794
C35   C     C_R   0.106261 0.606278 0.750015 0.834121
C36   C     C_R   0.893734 0.393731 0.249997 0.836240
C37   C     C_R   0.393740 0.106278 0.749985 0.834209
C38   C     C_R   0.606259 0.893721 0.250016 0.834701
C39   C     C_R   0.893724 0.393740 0.749985 0.837754
C40   C     C_R   0.106279 0.606258 0.250018 0.837200
C41   C     C_R   0.393724 0.893740 0.249987 0.836326
C42   C     C_R   0.606276 0.106260 0.750015 0.837803
C43   C     C_R   0.893738 0.606276 0.249987 0.835663
C44   C     C_R   0.106260 0.393722 0.750015 0.834151
C45   C     C_R   0.606268 0.106265 0.250000 0.834214
C46   C     C_R   0.393739 0.893722 0.749985 0.834134
C47   C     C_R   0.106266 0.393732 0.250001 0.837955
C48   C     C_R   0.893723 0.606260 0.749985 0.837784
C49   C     C_R   0.196006 0.641732 0.773190 -0.136584
C50   C     C_R   0.803950 0.358311 0.226866 -0.137592
C51   C     C_R   0.358841 0.196578 0.772439 -0.137260
C52   C     C_R   0.641042 0.803306 0.227718 -0.137074
C53   C     C_R   0.803129 0.359138 0.772023 -0.135127
C54   C     C_R   0.197260 0.640473 0.228529 -0.135240
C55   C     C_R   0.641601 0.803864 0.773014 -0.133521
C56   C     C_R   0.359110 0.196833 0.227950 -0.136453
C57   C     C_R   0.804056 0.641793 0.226726 -0.133688
C58   C     C_R   0.195820 0.358079 0.773435 -0.136500
C59   C     C_R   0.641258 0.196461 0.227435 -0.136177
C60   C     C_R   0.359023 0.803243 0.772190 -0.137360
C61   C     C_R   0.196436 0.358706 0.227397 -0.135393
C62   C     C_R   0.803121 0.640855 0.772013 -0.135071
C63   C     C_R   0.358777 0.803491 0.227502 -0.133879
C64   C     C_R   0.641608 0.196129 0.773025 -0.133476
C65   C     C_R   0.696491 0.141236 0.272541 -0.136476
C66   C     C_R   0.303974 0.858289 0.726837 -0.136592
C67   C     C_R   0.858934 0.696670 0.272309 -0.137262
C68   C     C_R   0.141159 0.303423 0.727560 -0.137442
C69   C     C_R   0.302833 0.859436 0.271603 -0.136920
C70   C     C_R   0.696873 0.140859 0.727981 -0.135001
C71   C     C_R   0.141295 0.303558 0.272610 -0.135676
C72   C     C_R   0.858399 0.696136 0.726986 -0.133515
C73   C     C_R   0.304180 0.141920 0.726565 -0.136379
C74   C     C_R   0.695917 0.858177 0.273306 -0.136262
C75   C     C_R   0.140958 0.696777 0.727837 -0.137324
C76   C     C_R   0.858349 0.303923 0.273090 -0.135517
C77   C     C_R   0.696879 0.859145 0.727988 -0.134995
C78   C     C_R   0.303158 0.140871 0.272032 -0.133343
C79   C     C_R   0.858393 0.303870 0.726978 -0.133630
C80   C     C_R   0.141293 0.696439 0.272599 -0.133795
C81   C     C_R   0.148384 0.648936 0.750362 -0.095327
C82   C     C_R   0.851353 0.351332 0.249985 -0.094824
C83   C     C_R   0.351612 0.148933 0.749647 -0.095381
C84   C     C_R   0.648382 0.851061 0.250361 -0.095444
C85   C     C_R   0.851074 0.351608 0.749646 -0.096504
C86   C     C_R   0.148949 0.648369 0.250391 -0.096414
C87   C     C_R   0.648927 0.851608 0.750355 -0.096516
C88   C     C_R   0.351342 0.148647 0.249992 -0.095985
C89   C     C_R   0.851601 0.648921 0.249657 -0.096141
C90   C     C_R   0.148388 0.351067 0.750353 -0.095368
C91   C     C_R   0.648663 0.148646 0.249994 -0.095322
C92   C     C_R   0.351605 0.851075 0.749653 -0.095283
C93   C     C_R   0.148655 0.351341 0.250003 -0.095174
C94   C     C_R   0.851073 0.648392 0.749646 -0.096519
C95   C     C_R   0.351098 0.851585 0.249676 -0.096040
C96   C     C_R   0.648927 0.148391 0.750356 -0.096503
C97   C     C_R   0.180689 0.737995 0.727859 -0.024828
C98   C     C_R   0.818785 0.262552 0.272868 -0.025452
C99   C     C_R   0.263452 0.182141 0.725915 -0.024792
C100  C     C_R   0.736646 0.817957 0.273958 -0.024738
C101  C     C_R   0.818189 0.263123 0.726343 -0.024569
C102  C     C_R   0.181498 0.737183 0.273250 -0.024701
C103  C     C_R   0.738092 0.819408 0.728008 -0.024451
C104  C     C_R   0.262567 0.181223 0.272879 -0.025016
C105  C     C_R   0.819186 0.737871 0.272313 -0.024758
C106  C     C_R   0.180904 0.262219 0.727554 -0.024885
C107  C     C_R   0.737064 0.181607 0.273393 -0.024996
C108  C     C_R   0.263224 0.818088 0.726210 -0.024809
C109  C     C_R   0.180859 0.262185 0.272360 -0.024907
C110  C     C_R   0.818195 0.736883 0.726351 -0.024548
C111  C     C_R   0.261631 0.819685 0.271586 -0.024278
C112  C     C_R   0.738087 0.180596 0.728001 -0.024472
C113  C     C_R   0.681641 0.237019 0.226563 -0.025152
C114  C     C_R   0.319276 0.762040 0.772187 -0.024873
C115  C     C_R   0.763317 0.682003 0.226087 -0.024812
C116  C     C_R   0.236548 0.317858 0.774085 -0.024768
C117  C     C_R   0.318630 0.762686 0.226940 -0.024699
C118  C     C_R   0.681814 0.236874 0.773662 -0.024574
C119  C     C_R   0.237809 0.319143 0.227646 -0.025340
C120  C     C_R   0.761908 0.680592 0.771993 -0.024464
C121  C     C_R   0.319096 0.237781 0.772444 -0.024874
C122  C     C_R   0.680779 0.762093 0.227729 -0.024418
C123  C     C_R   0.236741 0.681947 0.773838 -0.024788
C124  C     C_R   0.762591 0.318734 0.227075 -0.025263
C125  C     C_R   0.681805 0.763118 0.773649 -0.024563
C126  C     C_R   0.318762 0.237428 0.227112 -0.024864
C127  C     C_R   0.761917 0.319400 0.772005 -0.024467
C128  C     C_R   0.238511 0.680175 0.228619 -0.024298
C129  C     C_R   0.229338 0.730059 0.750487 0.002129
C130  C     C_R   0.770329 0.270284 0.249972 0.003011
C131  C     C_R   0.270649 0.230046 0.749538 0.002158
C132  C     C_R   0.729335 0.769937 0.250485 0.002372
C133  C     C_R   0.769963 0.270641 0.749536 0.002596
C134  C     C_R   0.230099 0.729296 0.250569 0.002452
C135  C     C_R   0.730039 0.770643 0.750467 0.002589
C136  C     C_R   0.270306 0.229684 0.249997 0.002343
C137  C     C_R   0.770628 0.730024 0.249559 0.002135
C138  C     C_R   0.229352 0.269954 0.750461 0.002165
C139  C     C_R   0.729712 0.229670 0.249976 0.002266
C140  C     C_R   0.270628 0.769976 0.749559 0.002155
C141  C     C_R   0.229691 0.270304 0.250001 0.003334
C142  C     C_R   0.769961 0.729358 0.749534 0.002593
C143  C     C_R   0.270035 0.770570 0.249628 0.002425
C144  C     C_R   0.730040 0.229356 0.750469 0.002601
C145  C     C_R   0.173261 0.786183 0.704851 0.195169
C146  C     C_R   0.826312 0.214275 0.295751 0.194388
C147  C     C_R   0.215172 0.174613 0.703030 0.195897
C148  C     C_R   0.785037 0.825596 0.296691 0.195967
C149  C     C_R   0.826040 0.214520 0.703910 0.196196
C150  C     C_R   0.173299 0.786131 0.295192 0.195342
C151  C     C_R   0.786392 0.826950 0.705156 0.193801
C152  C     C_R   0.214034 0.173446 0.295406 0.196190
C153  C     C_R   0.826506 0.785947 0.295471 0.195306
C154  C     C_R   0.173697 0.214257 0.704246 0.195300
C155  C     C_R   0.785209 0.174227 0.296462 0.196730
C156  C     C_R   0.214724 0.825837 0.703628 0.195840
C157  C     C_R   0.172949 0.213511 0.294697 0.193899
C158  C     C_R   0.826053 0.785492 0.703927 0.196176
C159  C     C_R   0.212985 0.827567 0.293958 0.194872
C160  C     C_R   0.786379 0.173060 0.705140 0.193800
C161  C     C_R   0.674266 0.285147 0.203479 0.196103
C162  C     C_R   0.326686 0.713873 0.795222 0.195224
C163  C     C_R   0.714918 0.674355 0.203365 0.195757
C164  C     C_R   0.284828 0.325387 0.796969 0.195935
C165  C     C_R   0.326895 0.713678 0.205095 0.195926
C166  C     C_R   0.673965 0.285476 0.796098 0.196106
C167  C     C_R   0.286484 0.327065 0.205317 0.194276
C168  C     C_R   0.713609 0.673050 0.794845 0.193826
C169  C     C_R   0.326303 0.285744 0.795753 0.195225
C170  C     C_R   0.673451 0.714008 0.204582 0.194810
C171  C     C_R   0.285222 0.674219 0.796446 0.195855
C172  C     C_R   0.714319 0.326244 0.204178 0.195668
C173  C     C_R   0.673947 0.714508 0.796074 0.196195
C174  C     C_R   0.326541 0.285973 0.204597 0.196652
C175  C     C_R   0.713627 0.326934 0.794868 0.193850
C176  C     C_R   0.287228 0.672231 0.206341 0.193369
N1    N     N_R   0.123949 0.794901 0.682088 0.232731
O53   O     O_R   0.126069 0.803396 0.642957 -0.254432
O54   O     O_R   0.077518 0.799613 0.701014 -0.303775
N2    N     N_R   0.875350 0.205856 0.318900 0.231862
O55   O     O_R   0.872721 0.197339 0.358009 -0.255999
O56   O     O_R   0.922068 0.201405 0.300338 -0.292083
N3    N     N_R   0.207454 0.126282 0.678943 0.232426
O57   O     O_R   0.239191 0.116621 0.647967 -0.313247
O58   O     O_R   0.165666 0.094725 0.685508 -0.242444
N4    N     N_R   0.792872 0.874045 0.320625 0.232409
O59   O     O_R   0.761286 0.883859 0.351661 -0.313237
O60   O     O_R   0.834624 0.905572 0.313858 -0.242515
N5    N     N_R   0.874718 0.206458 0.680286 0.233906
O61   O     O_R   0.884818 0.237727 0.649121 -0.313325
O62   O     O_R   0.906200 0.164797 0.687474 -0.236077
N6    N     N_R   0.124249 0.794559 0.318310 0.234022
O63   O     O_R   0.113634 0.763760 0.349640 -0.312184
O64   O     O_R   0.092897 0.836114 0.310489 -0.236630
N7    N     N_R   0.795210 0.876365 0.682547 0.231777
O65   O     O_R   0.803819 0.874427 0.643427 -0.255519
O66   O     O_R   0.799863 0.922706 0.701609 -0.291644
N8    N     N_R   0.205670 0.124459 0.318612 0.234122
O67   O     O_R   0.236876 0.113687 0.349690 -0.312981
O68   O     O_R   0.163781 0.093382 0.311178 -0.234981
N9    N     N_R   0.875695 0.794539 0.318405 0.232753
O69   O     O_R   0.873373 0.802730 0.357564 -0.254582
O70   O     O_R   0.922216 0.799422 0.299627 -0.302972
N10   N     N_R   0.124621 0.205778 0.681154 0.232633
O71   O     O_R   0.127137 0.197784 0.641979 -0.255497
O72   O     O_R   0.078009 0.200804 0.699789 -0.303234
N11   N     N_R   0.793161 0.125664 0.320241 0.232410
O73   O     O_R   0.761398 0.115443 0.351102 -0.313790
O74   O     O_R   0.835202 0.094488 0.313567 -0.241873
N12   N     N_R   0.206763 0.874416 0.679867 0.232415
O75   O     O_R   0.238131 0.884363 0.648732 -0.312814
O76   O     O_R   0.165101 0.905956 0.686907 -0.243242
N13   N     N_R   0.123522 0.204689 0.317285 0.231832
O77   O     O_R   0.125490 0.195438 0.356323 -0.255249
O78   O     O_R   0.077119 0.200601 0.298233 -0.292982
N14   N     N_R   0.874739 0.793560 0.680313 0.233934
O79   O     O_R   0.884850 0.762298 0.649145 -0.313080
O80   O     O_R   0.906219 0.835220 0.687514 -0.235765
N15   N     N_R   0.203827 0.877316 0.316078 0.232718
O81   O     O_R   0.194621 0.875960 0.355135 -0.253415
O82   O     O_R   0.199454 0.923367 0.296593 -0.303881
N16   N     N_R   0.795191 0.123651 0.682523 0.231781
O83   O     O_R   0.803788 0.125597 0.643401 -0.255641
O84   O     O_R   0.799849 0.077305 0.701577 -0.291631
N17   N     N_R   0.625704 0.293087 0.179692 0.232542
O85   O     O_R   0.615472 0.261293 0.148847 -0.313098
O86   O     O_R   0.594538 0.335141 0.186344 -0.241596
N18   N     N_R   0.375967 0.705189 0.818027 0.232748
O87   O     O_R   0.373801 0.696834 0.857172 -0.254828
O88   O     O_R   0.422414 0.700390 0.799136 -0.303654
N19   N     N_R   0.707071 0.625893 0.179450 0.233954
O89   O     O_R   0.738628 0.616070 0.148399 -0.314140
O90   O     O_R   0.665339 0.594354 0.186255 -0.236017
N20   N     N_R   0.292546 0.373718 0.821056 0.232404
O91   O     O_R   0.260812 0.383376 0.852035 -0.313630
O92   O     O_R   0.334330 0.405279 0.814488 -0.242575
N21   N     N_R   0.376047 0.705165 0.182119 0.234086
O93   O     O_R   0.386628 0.735604 0.150589 -0.311955
O94   O     O_R   0.407598 0.663896 0.190344 -0.236620
N22   N     N_R   0.625290 0.293535 0.819727 0.233930
O95   O     O_R   0.615188 0.262253 0.850885 -0.312538
O96   O     O_R   0.593816 0.335206 0.812551 -0.235957
N23   N     N_R   0.295324 0.376518 0.182760 0.231974
O97   O     O_R   0.304638 0.374594 0.143729 -0.254449
O98   O     O_R   0.299379 0.422903 0.201839 -0.292200
N24   N     N_R   0.704791 0.623635 0.817454 0.231753
O99   O     O_R   0.696182 0.625574 0.856574 -0.255833
O100  O     O_R   0.700138 0.577295 0.798392 -0.291704
N25   N     N_R   0.375380 0.294223 0.818844 0.232707
O101  O     O_R   0.372866 0.302220 0.858020 -0.254858
O102  O     O_R   0.421992 0.299197 0.800208 -0.303136
N26   N     N_R   0.624254 0.705406 0.181658 0.232470
O103  O     O_R   0.626566 0.697178 0.142503 -0.255312
O104  O     O_R   0.577735 0.700558 0.200443 -0.302164
N27   N     N_R   0.293151 0.625675 0.820255 0.232375
O105  O     O_R   0.261694 0.615742 0.851342 -0.313337
O106  O     O_R   0.334872 0.594172 0.813321 -0.243165
N28   N     N_R   0.705911 0.375256 0.181003 0.232668
O107  O     O_R   0.697424 0.372586 0.141890 -0.254868
O108  O     O_R   0.701418 0.421989 0.199542 -0.304223
N29   N     N_R   0.625262 0.706441 0.819688 0.233927
O109  O     O_R   0.615151 0.737703 0.850856 -0.313205
O110  O     O_R   0.593782 0.664781 0.812488 -0.235834
N30   N     N_R   0.375532 0.294349 0.181401 0.232424
O111  O     O_R   0.386283 0.263193 0.150295 -0.312069
O112  O     O_R   0.406635 0.336205 0.188878 -0.242478
N31   N     N_R   0.704820 0.376341 0.817491 0.231735
O113  O     O_R   0.696238 0.374388 0.856614 -0.255831
O114  O     O_R   0.700153 0.422688 0.798441 -0.291692
N32   N     N_R   0.296514 0.622373 0.184382 0.231873
O115  O     O_R   0.306182 0.623552 0.145382 -0.254236
O116  O     O_R   0.300596 0.576391 0.203995 -0.292512

loop_
_geom_bond_atom_site_label_1
_geom_bond_atom_site_label_2
_geom_bond_distance
_ccdc_geom_bond_type
O45   C39   1.254824 A    
N16   O84   1.301190 A    
C111  C159  1.413028 A    
C164  C169  1.406418 A    
O33   C45   1.254654 A    
C72   C94   1.397524 A    
C3    C4    1.233941 T    
C153  N9    1.436158 S    
C10   C18   1.233981 T    
Zn12  O25   1.950016 S    
O47   C37   1.254750 A    
N9    O69   1.301043 A    
C76   C82   1.397512 A    
C67   C105  1.402789 A    
C71   C109  1.402725 A    
C158  N14   1.436023 S    
C146  C155  1.406371 A    
C69   C111  1.402854 A    
C68   C90   1.397486 A    
Zn7   O18   1.782687 S    
C127  C175  1.413018 A    
C161  C172  1.406350 A    
C162  C171  1.406416 A    
H31   C79   1.081679 S    
C163  C170  1.406425 A    
O49   C35   1.254639 A    
O50   C36   1.254680 A    
H20   C68   1.081674 S    
C12   C29   1.482928 S    
C38   C84   1.469055 S    
C2    C18   1.457775 S    
C102  C134  1.417415 A    
C155  N11   1.435970 S    
C5    C6    1.233941 T    
C100  C148  1.413015 A    
C156  N12   1.436025 S    
C6    C22   1.457778 S    
C127  C133  1.417492 A    
N12   O76   1.301084 A    
C57   C115  1.402760 A    
C15   C23   1.233981 T    
C34   C88   1.468848 S    
N22   O95   1.301140 A    
C110  C142  1.417426 A    
C74   C84   1.397523 A    
C12   C20   1.233981 T    
C163  N19   1.436018 S    
C119  C141  1.417462 A    
N14   O79   1.301130 A    
Zn9   O35   1.950028 S    
Zn1   O51   1.950028 S    
Zn10  O36   1.950030 S    
Zn7   O38   1.949977 S    
C123  C171  1.413012 A    
O22   C34   1.254698 A    
C11   C30   1.482925 S    
C109  C157  1.413027 A    
N27   O105  1.301132 A    
C166  C175  1.406440 A    
C149  N5    1.436024 S    
N26   O103  1.301039 A    
C9    C32   1.482925 S    
O9    C25   1.302224 A    
C10   C31   1.482925 S    
Zn2   O2    1.909364 S    
N2    O55   1.301033 A    
O11   C27   1.302228 A    
Zn5   O1    1.909347 S    
N18   O88   1.301185 A    
C61   C119  1.402721 A    
Zn8   O4    1.909468 S    
N8    O67   1.301116 A    
O43   C41   1.254712 A    
O14   C30   1.302240 A    
C98   C130  1.417452 A    
C4    C20   1.457778 S    
C154  N10   1.436143 S    
Zn16  O1    1.909468 S    
O40   C46   1.254756 A    
N20   O91   1.301133 A    
C125  C173  1.413023 A    
C53   C127  1.402811 A    
H29   C77   1.081668 S    
Zn16  O21   1.949979 S    
O26   C38   1.254646 A    
C159  N15   1.436162 S    
O20   C32   1.302232 A    
O21   C33   1.254831 A    
C116  C138  1.417411 A    
N6    O64   1.301042 A    
C104  C136  1.417464 A    
C55   C87   1.397525 A    
N4    O60   1.301059 A    
H8    C56   1.081674 S    
O15   C31   1.302233 A    
C128  C176  1.413097 A    
C97   C145  1.413032 A    
C118  C166  1.413026 A    
H11   C59   1.081693 S    
H12   C60   1.081667 S    
Zn16  O30   1.949958 S    
C70   C112  1.402808 A    
Zn9   O24   1.949952 S    
C54   C128  1.402890 A    
Zn10  O23   1.949950 S    
C100  C132  1.417417 A    
Zn9   O4    1.909365 S    
O35   C47   1.254741 A    
Zn10  O3    1.909364 S    
N15   O82   1.301178 A    
N25   O101  1.301041 A    
O25   C37   1.254641 A    
Zn12  O5    1.782802 S    
H24   C72   1.081683 S    
Zn13  O8    1.782748 S    
H25   C73   1.081680 S    
O7    C27   1.302232 A    
Zn14  O7    1.782748 S    
C71   C93   1.397524 A    
N32   O115  1.301091 A    
C69   C95   1.397495 A    
C54   C86   1.397492 A    
H14   C62   1.081668 S    
C58   C90   1.397523 A    
C151  C158  1.406447 A    
N13   O78   1.301186 A    
H7    C55   1.081681 S    
C58   C116  1.402760 A    
H5    C53   1.081665 S    
N30   O111  1.301116 A    
C59   C91   1.397464 A    
C11   C19   1.233981 T    
N17   O86   1.301046 A    
C99   C131  1.417415 A    
O28   C40   1.254684 A    
O13   C29   1.302242 A    
Zn9   O12   1.782740 S    
C7    C8    1.233941 T    
O44   C42   1.254690 A    
Zn10  O11   1.782740 S    
C115  C137  1.417417 A    
C118  C144  1.417425 A    
C66   C92   1.397519 A    
C75   C81   1.397485 A    
O48   C38   1.254751 A    
C122  C132  1.417481 A    
O38   C48   1.254831 A    
N1    O53   1.301063 A    
C164  N20   1.436025 S    
C62   C94   1.397479 A    
C130  C139  1.407452 A    
O12   C28   1.302232 A    
N5    O61   1.301137 A    
C67   C89   1.397479 A    
C62   C120  1.402819 A    
O31   C43   1.254754 A    
Zn8   O17   1.782687 S    
C109  C141  1.417465 A    
C148  C153  1.406410 A    
C7    C23   1.457778 S    
C113  C161  1.412974 A    
C136  C141  1.407507 A    
C173  N29   1.436021 S    
O17   C29   1.302222 A    
H10   C58   1.081674 S    
N24   O100  1.301187 A    
C60   C114  1.402791 A    
C1    C2    1.233944 T    
C43   C89   1.469036 S    
C61   C93   1.397514 A    
N28   O108  1.301175 A    
C65   C107  1.402723 A    
C80   C86   1.397507 A    
C103  C151  1.413026 A    
C63   C117  1.402759 A    
C172  N28   1.436090 S    
Zn6   O43   1.950019 S    
N27   O106  1.301050 A    
C101  C149  1.413021 A    
C16   C25   1.482928 S    
N23   O98   1.301203 A    
C132  C137  1.407557 A    
C35   C81   1.469027 S    
C149  C160  1.406438 A    
Zn1   O40   1.949952 S    
C150  C159  1.406470 A    
C105  C153  1.413011 A    
Zn2   O39   1.949950 S    
C55   C125  1.402779 A    
O23   C35   1.254768 A    
C50   C124  1.402684 A    
O24   C36   1.254662 A    
C76   C98   1.402677 A    
N18   O87   1.301035 A    
H19   C67   1.081663 S    
C64   C96   1.397527 A    
C51   C83   1.397488 A    
C37   C83   1.469054 S    
C107  C139  1.417455 A    
O36   C48   1.254694 A    
C171  N27   1.436028 S    
Zn8   O46   1.949958 S    
C40   C86   1.469025 S    
O8    C28   1.302231 A    
Zn3   O3    1.909250 S    
C78   C88   1.397459 A    
C70   C96   1.397474 A    
N7    O66   1.301186 A    
Zn6   O2    1.909351 S    
C44   C90   1.469056 S    
C166  N22   1.436032 S    
Zn3   O49   1.950007 S    
C33   C87   1.469055 S    
H22   C70   1.081670 S    
C147  C154  1.406419 A    
C13   C21   1.233981 T    
C36   C82   1.468921 S    
N3    O57   1.301129 A    
C145  N1    1.436200 S    
Zn15  O22   1.949977 S    
O39   C45   1.254651 A    
C165  N21   1.435961 S    
O27   C39   1.254688 A    
C59   C113  1.402695 A    
C52   C122  1.402804 A    
C73   C99   1.402758 A    
Zn14  O32   1.949968 S    
H18   C66   1.081653 S    
C9    C17   1.233981 T    
C50   C82   1.397507 A    
C13   C28   1.482925 S    
Zn6   O48   1.949968 S    
N29   O110  1.301056 A    
C15   C26   1.482925 S    
N8    O68   1.301051 A    
C131  C138  1.407541 A    
C119  C167  1.413025 A    
Zn15  O29   1.949960 S    
C168  N24   1.436170 S    
N22   O96   1.301056 A    
C126  C136  1.417457 A    
C80   C102  1.402747 A    
O41   C43   1.254632 A    
O42   C44   1.254643 A    
Zn7   O3    1.909468 S    
N14   O80   1.301054 A    
C41   C95   1.468992 S    
C75   C97   1.402808 A    
C147  N3    1.436020 S    
C79   C101  1.402771 A    
Zn11  O6    1.782802 S    
N26   O104  1.301183 A    
C77   C103  1.402820 A    
Zn13  O4    1.909347 S    
Zn14  O3    1.909351 S    
Zn15  O10   1.782687 S    
C1    C17   1.457775 S    
C56   C88   1.397454 A    
N16   O83   1.301043 A    
C3    C19   1.457778 S    
C49   C81   1.397521 A    
H15   C63   1.081664 S    
C66   C108  1.402754 A    
Zn5   O44   1.950017 S    
C122  C170  1.413025 A    
H13   C61   1.081650 S    
N21   O94   1.301140 A    
C152  C157  1.406381 A    
N9    O70   1.301187 A    
N21   O93   1.301052 A    
N11   O73   1.301129 A    
C115  C163  1.413011 A    
C60   C92   1.397481 A    
H28   C76   1.081678 S    
H1    C49   1.081667 S    
N7    O65   1.301039 A    
O52   C34   1.254724 A    
C120  C142  1.417498 A    
C112  C160  1.413022 A    
C51   C121  1.402786 A    
N19   O89   1.301130 A    
C103  C135  1.417498 A    
C124  C130  1.417456 A    
Zn13  O28   1.950017 S    
C133  C144  1.407566 A    
C101  C133  1.417425 A    
Zn14  O27   1.950019 S    
C63   C95   1.397493 A    
O10   C26   1.302222 A    
H27   C75   1.081650 S    
N31   O114  1.301194 A    
C105  C137  1.417478 A    
C116  C164  1.413009 A    
O19   C31   1.302230 A    
C48   C94   1.469052 S    
O30   C42   1.254826 A    
C97   C129  1.417476 A    
Zn3   O42   1.950018 S    
Zn2   O52   1.950030 S    
C64   C118  1.402773 A    
N12   O75   1.301118 A    
C16   C24   1.233977 T    
C114  C162  1.413007 A    
N32   O116  1.301225 A    
O51   C33   1.254692 A    
C79   C85   1.397523 A    
C175  N31   1.436170 S    
C110  C158  1.413022 A    
C74   C100  1.402761 A    
C77   C87   1.397478 A    
C151  N7    1.436168 S    
O37   C47   1.254746 A    
Zn5   O47   1.949970 S    
Zn11  O26   1.950018 S    
C148  N4    1.436033 S    
C14   C27   1.482928 S    
N13   O77   1.301032 A    
Zn4   O41   1.950016 S    
C98   C146  1.412996 A    
C106  C154  1.413009 A    
C14   C22   1.233977 T    
C65   C91   1.397476 A    
N30   O112  1.301073 A    
O29   C41   1.254797 A    
N17   O85   1.301131 A    
C174  N30   1.435972 S    
N15   O81   1.301031 A    
O32   C44   1.254750 A    
Zn4   O13   1.782802 S    
C73   C83   1.397525 A    
Zn5   O16   1.782748 S    
Zn6   O15   1.782748 S    
C126  C174  1.412968 A    
Zn11  O33   1.950007 S    
C123  C129  1.417416 A    
Zn13  O31   1.949970 S    
C160  N16   1.436170 S    
N23   O97   1.301055 A    
O6    C26   1.302242 A    
C167  C174  1.406355 A    
C78   C104  1.402741 A    
N3    O58   1.301052 A    
C114  C140  1.417484 A    
N31   O113  1.301042 A    
C108  C140  1.417406 A    
C150  N6    1.436029 S    
C162  N18   1.436160 S    
N6    O63   1.301128 A    
N2    O56   1.301181 A    
C72   C110  1.402779 A    
N4    O59   1.301131 A    
N20   O92   1.301057 A    
H23   C71   1.081666 S    
C8    C24   1.457781 S    
H21   C69   1.081682 S    
H32   C80   1.081679 S    
C107  C155  1.412990 A    
C161  N17   1.435980 S    
C165  C176  1.406369 A    
Zn3   O14   1.782802 S    
C167  N23   1.436163 S    
C168  C173  1.406449 A    
C52   C84   1.397498 A    
Zn4   O50   1.950009 S    
C99   C147  1.413014 A    
C134  C143  1.407619 A    
Zn12  O34   1.950009 S    
H16   C64   1.081676 S    
O16   C32   1.302231 A    
H17   C65   1.081688 S    
N25   O102  1.301177 A    
C45   C91   1.468865 S    
Zn1   O1    1.909365 S    
C46   C92   1.469020 S    
C170  N26   1.436159 S    
Zn4   O4    1.909253 S    
C145  C156  1.406394 A    
C124  C172  1.412994 A    
C125  C135  1.417424 A    
C152  N8    1.435972 S    
C106  C138  1.417481 A    
Zn15  O2    1.909468 S    
Zn11  O2    1.909250 S    
C169  N25   1.436146 S    
N11   O74   1.301046 A    
H6    C54   1.081633 S    
C146  N2    1.436115 S    
C117  C143  1.417389 A    
C135  C142  1.407565 A    
C157  N13   1.436127 S    
Zn16  O9    1.782687 S    
Zn1   O20   1.782740 S    
Zn2   O19   1.782740 S    
C121  C131  1.417478 A    
C111  C143  1.417509 A    
O18   C30   1.302224 A    
O46   C40   1.254845 A    
C129  C140  1.407570 A    
N19   O90   1.301048 A    
N10   O71   1.301032 A    
C102  C150  1.413027 A    
N1    O54   1.301198 A    
C68   C106  1.402782 A    
C120  C168  1.413023 A    
C121  C169  1.413013 A    
H2    C50   1.081672 S    
H3    C51   1.081668 S    
O5    C25   1.302240 A    
C56   C126  1.402749 A    
H4    C52   1.081665 S    
C128  C134  1.417520 A    
C113  C139  1.417455 A    
Zn7   O45   1.949960 S    
O34   C46   1.254646 A    
H26   C74   1.081670 S    
C108  C156  1.412994 A    
N29   O109  1.301130 A    
Zn8   O37   1.949979 S    
C117  C165  1.412917 A    
Zn12  O1    1.909253 S    
C112  C144  1.417492 A    
C176  N32   1.436276 S    
N24   O99   1.301040 A    
C53   C85   1.397474 A    
N10   O72   1.301173 A    
N5    O62   1.301055 A    
H30   C78   1.081688 S    
C47   C93   1.468938 S    
C5    C21   1.457778 S    
N28   O107  1.301035 A    
C57   C89   1.397520 A    
C104  C152  1.412979 A    
H9    C57   1.081676 S    
C42   C96   1.469035 S    
C49   C123  1.402746 A    
C39   C85   1.469034 S    
