data_mof_unit_63249.cif
_audit_creation_date              2012-12-10T19:21:25-0500
_audit_creation_method            fapswitch 2.2
_symmetry_space_group_name_H-M    P1
_symmetry_Int_Tables_number       1
_space_group_crystal_system       triclinic
_cell_length_a                    15.785307
_cell_length_b                    15.011008
_cell_length_c                    19.138868
_cell_angle_alpha                 89.790794
_cell_angle_beta                  89.952582
_cell_angle_gamma                 89.872637
_cell_volume                      4534.97630599

loop_
_atom_site_label
_atom_site_type_symbol
_atom_type_description
_atom_site_fract_x
_atom_site_fract_y
_atom_site_fract_z
_atom_type_partial_charge
C1    C     C_R   0.338138 0.500072 0.499970 0.904611
C2    C     C_3   0.049287 0.455131 0.566553 0.192411
C3    C     C_3   0.951009 0.464382 0.569004 -0.212848
C4    C     C_3   0.951813 0.595301 0.480907 -0.308367
C5    C     C_1   0.750369 0.499704 0.498815 -0.146587
C6    C     C_3   0.083272 0.497860 0.497259 -0.010383
C7    C     C_3   0.917268 0.498961 0.496359 -0.062317
C8    C     C_R   0.500802 0.500114 0.365597 0.876606
C9    C     C_3   0.950280 0.434262 0.436718 -0.139008
C10   C     C_3   0.051340 0.438861 0.434124 0.634037
C11   C     C_1   0.825321 0.499458 0.497518 -0.014907
C12   C     C_R   0.546333 0.484915 0.070601 0.299054
C13   C     C_1   0.174675 0.499318 0.498064 0.075890
C14   C     C_1   0.249672 0.500062 0.498973 -0.145386
C15   C     C_3   0.407557 0.052932 0.502781 -0.281793
C16   C     C_3   0.408963 0.949027 0.514848 -0.312530
C17   C     C_3   0.550892 0.053191 0.565207 -0.051647
C18   C     C_3   0.560682 0.946073 0.559166 -0.119636
C19   C     C_3   0.501180 0.090228 0.498349 -0.058186
C20   C     C_3   0.500032 0.909875 0.498815 -0.022353
C21   C     C_3   0.531194 0.946766 0.424984 0.358523
C22   C     C_3   0.545619 0.052363 0.429507 0.286639
C23   C     C_R   0.579761 0.552647 0.815340 -0.176805
C24   C     C_1   0.498986 0.808896 0.498576 0.160337
C25   C     C_1   0.499400 0.191112 0.498413 0.064619
C26   C     C_R   0.661984 0.499912 0.500112 0.905138
C27   C     C_R   0.501195 0.499780 0.634916 0.856928
C28   C     C_R   0.584785 0.535038 0.260325 -0.068537
C29   C     C_R   0.448394 0.458746 0.248836 -0.072007
C30   C     C_R   0.597535 0.528477 0.188154 -0.036844
C31   C     C_R   0.460234 0.453594 0.176494 -0.032849
C32   C     C_R   0.535255 0.487810 0.146278 -0.034690
C33   C     C_R   0.510500 0.499654 0.290273 -0.130848
C34   C     C_R   0.483655 0.427051 0.822163 -0.175356
C35   C     C_R   0.548407 0.484466 0.929987 0.301739
C36   C     C_1   0.649432 0.575288 0.303982 0.204809
C37   C     C_1   0.371596 0.423888 0.280618 0.201854
C38   C     C_1   0.911894 0.457601 0.368192 0.209017
C39   C     C_1   0.920569 0.341952 0.450561 0.287452
C40   C     C_1   0.634042 0.098196 0.573629 0.224807
C41   C     C_1   0.649550 0.918532 0.545287 0.361566
C42   C     C_1   0.504336 0.079985 0.629521 0.146837
C43   C     C_1   0.540552 0.900717 0.626428 0.117466
C44   C     C_1   0.514520 0.098936 0.365397 0.126082
C45   C     C_R   0.566940 0.558441 0.743629 -0.028247
C46   C     C_1   0.468807 0.921674 0.369961 0.117760
C47   C     C_1   0.354076 0.081593 0.443175 0.219134
C48   C     C_1   0.338784 0.900965 0.480061 0.232939
C49   C     C_1   0.675885 0.560891 0.157508 0.218467
C50   C     C_1   0.393714 0.416145 0.133286 0.222877
C51   C     C_1   0.615199 0.623989 0.704966 0.213939
C52   C     C_1   0.408384 0.371697 0.720450 0.207908
C53   C     C_1   0.908644 0.666897 0.520540 0.304903
C54   C     C_1   0.920984 0.518916 0.628489 0.325761
C55   C     C_R   0.468799 0.432668 0.750789 -0.023501
C56   C     C_R   0.510817 0.498366 0.710743 -0.125217
C57   C     C_R   0.538705 0.486933 0.854514 0.050451
C58   C     C_3   0.049981 0.595913 0.489798 0.207008
H1    H     H_    0.395531 0.937957 0.571223 0.179007
H2    H     H_    0.626446 0.927089 0.360584 0.370146
H3    H     H_    0.045435 0.637784 0.587340 0.395157
H4    H     H_    0.141621 0.459212 0.634461 0.346913
H5    H     H_    0.054299 0.531648 0.359847 0.308166
H6    H     H_    0.145167 0.352659 0.425960 0.375934
H7    H     H_    0.375435 0.083091 0.548726 0.177155
H8    H     H_    0.622693 0.598756 0.840588 0.162834
H9    H     H_    0.450325 0.377341 0.852856 0.164152
H10   H     H_    0.063855 0.382267 0.566155 0.141998
H11   H     H_    0.077498 0.626144 0.441846 0.149585
H12   H     H_    0.924433 0.397007 0.579277 0.124005
H13   H     H_    0.937993 0.611811 0.425404 0.135176
H14   H     H_    0.643386 0.133819 0.432582 0.342112
N1    N     N_R   0.532479 0.408355 0.035237 -0.147908
N2    N     N_1   0.897328 0.270116 0.461366 -0.152920
N3    N     N_1   0.698712 0.133371 0.580356 -0.163798
N4    N     N_1   0.718857 0.896962 0.534784 -0.116758
N5    N     N_1   0.468177 0.100973 0.679499 -0.163809
N6    N     N_1   0.524861 0.865305 0.678679 -0.154208
N7    N     N_1   0.490885 0.135269 0.315620 -0.151076
N8    N     N_1   0.420946 0.902131 0.326888 -0.147042
N9    N     N_1   0.311834 0.104040 0.396915 -0.139702
N10   N     N_1   0.283896 0.863322 0.453180 -0.137921
N11   N     N_1   0.738361 0.586691 0.133151 -0.151489
N12   N     N_R   0.563589 0.560697 0.034767 -0.147393
N13   N     N_1   0.340633 0.386335 0.098920 -0.151388
N14   N     N_1   0.653904 0.676356 0.674031 -0.165094
N15   N     N_1   0.360058 0.322919 0.696166 -0.176303
N16   N     N_1   0.874785 0.722871 0.551312 -0.150147
N17   N     N_1   0.897399 0.561242 0.675072 -0.173244
N18   N     N_R   0.533202 0.408210 0.965938 -0.159684
N19   N     N_R   0.564845 0.560423 0.965467 -0.157386
N20   N     N_1   0.498630 0.731150 0.498610 -0.080581
N21   N     N_1   0.498630 0.268850 0.498610 -0.078781
N22   N     N_1   0.700954 0.607410 0.338667 -0.167429
N23   N     N_1   0.310481 0.396189 0.306036 -0.145773
N24   N     N_1   0.881837 0.475793 0.314848 -0.160482
O1    O     O_R   0.377210 0.574260 0.500070 -0.597899
O2    O     O_3   0.607699 0.903775 0.406766 -0.720291
O3    O     O_3   0.078729 0.650727 0.544706 -0.687135
O4    O     O_3   0.087927 0.492178 0.626198 -0.729701
O5    O     O_3   0.081491 0.473518 0.369660 -0.741899
O6    O     O_3   0.085044 0.351827 0.441251 -0.752880
O7    O     O_R   0.377210 0.425740 0.500070 -0.608670
O8    O     O_R   0.500060 0.574250 0.398210 -0.602225
O9    O     O_R   0.500060 0.425750 0.398210 -0.606196
O10   O     O_R   0.622930 0.574200 0.500080 -0.595325
O11   O     O_R   0.622930 0.425800 0.500080 -0.613722
O12   O     O_R   0.500080 0.574210 0.601940 -0.606885
O13   O     O_R   0.500080 0.425790 0.601940 -0.606544
O14   O     O_3   0.633687 0.068388 0.432332 -0.727057
Zn1   Zn    Zn3+2 0.500090 0.599130 0.500100 1.029689
Zn2   Zn    Zn3+2 0.500090 0.400870 0.500100 1.007994

loop_
_geom_bond_atom_site_label_1
_geom_bond_atom_site_label_2
_ccdc_geom_bond_type
C30   C32   A    
C55   C56   A    
C25   N21   T    
C23   C45   A    
C4    C53   S    
O11   Zn2   S    
C6    C58   S    
C15   C47   S    
H5    O5    S    
C8    O9    A    
C16   C48   S    
H3    O3    S    
C43   N6    T    
H6    O6    S    
C12   N12   A    
C23   H8    S    
N1    N18   A    
C5    C11   T    
C3    C7    S    
C2    H10   S    
C10   O5    S    
O1    Zn1   S    
C3    C54   S    
C29   C37   S    
C45   C51   S    
C15   C16   S    
C15   H7    S    
C29   C33   A    
C9    C39   S    
C37   N23   T    
C23   C57   A    
C39   N2    T    
C17   C42   S    
C50   N13   T    
C15   C19   S    
C22   C44   S    
C20   C24   S    
C45   C56   A    
C22   O14   S    
C34   C57   A    
N12   N19   A    
C9    C10   S    
C1    O7    A    
C52   C55   S    
C2    O4    S    
C34   C55   A    
C13   C14   T    
C12   C32   S    
C26   O10   A    
C2    C6    S    
C4    C7    S    
C24   N20   T    
C51   N14   T    
C12   N1    A    
O10   Zn1   S    
C44   N7    T    
H14   O14   S    
C10   O6    S    
C3    H12   S    
C54   N17   T    
C18   C41   S    
C1    O1    A    
C27   C56   S    
O7    Zn2   S    
C16   H1    S    
C26   O11   A    
C7    C11   S    
C31   C32   A    
C16   C20   S    
C19   C22   S    
C17   C18   S    
C58   H11   S    
C8    O8    A    
C27   O13   A    
H4    O4    S    
C30   C49   S    
C28   C33   A    
O13   Zn2   S    
C31   C50   S    
C4    C58   S    
C21   C46   S    
C7    C9    S    
O9    Zn2   S    
C52   N15   T    
C58   O3    S    
C34   H9    S    
C6    C10   S    
O8    Zn1   S    
C40   N3    T    
N20   Zn1   S    
H2    O2    S    
O12   Zn1   S    
C35   C57   S    
C49   N11   T    
C28   C30   A    
C2    C3    S    
C29   C31   A    
C18   C43   S    
C41   N4    T    
C46   N8    T    
C21   O2    S    
C27   O12   A    
C9    C38   S    
C17   C19   S    
C48   N10   T    
C53   N16   T    
C18   C20   S    
C8    C33   S    
C47   N9    T    
C19   C25   S    
N21   Zn2   S    
C5    C26   S    
C35   N18   A    
C36   N22   T    
C20   C21   S    
C28   C36   S    
C42   N5    T    
C38   N24   T    
C1    C14   S    
C21   C22   S    
C17   C40   S    
C4    H13   S    
C6    C13   S    
C35   N19   A    
