data_mof_unit_7771.cif
_audit_creation_date              2013-03-05T15:44:38-0500
_audit_creation_method            fapswitch 2.2
_symmetry_space_group_name_H-M    P1
_symmetry_Int_Tables_number       1
_space_group_crystal_system       triclinic
_cell_length_a                    19.025837
_cell_length_b                    11.226335
_cell_length_c                    18.754554
_cell_angle_alpha                 88.764997
_cell_angle_beta                  89.860758
_cell_angle_gamma                 90.147461
_cell_volume                      4004.8368859

loop_
_atom_site_label
_atom_site_type_symbol
_atom_site_description
_atom_site_fract_x
_atom_site_fract_y
_atom_site_fract_z
_atom_type_partial_charge
O1    O     O_R   0.787540 0.042690 0.170470 -0.533899
O2    O     O_R   0.212460 0.042690 0.829530 -0.517395
O3    O     O_R   0.287540 0.542690 0.170470 -0.537355
O4    O     O_R   0.712460 0.542690 0.829530 -0.517344
O5    O     O_R   0.765660 0.292160 0.175050 -0.503018
O6    O     O_R   0.234340 0.292160 0.824950 -0.536722
O7    O     O_R   0.265660 0.792160 0.175050 -0.503308
O8    O     O_R   0.734340 0.792160 0.824950 -0.536898
C1    C     C_R   0.731401 0.381454 0.148511 0.525906
C2    C     C_R   0.269904 0.374600 0.854197 0.539444
C3    C     C_R   0.231403 0.881458 0.148513 0.524745
C4    C     C_R   0.769904 0.874600 0.854197 0.538984
O9    O     O_R   0.670190 0.408980 0.168550 -0.489443
O10   O     O_R   0.329810 0.408980 0.831450 -0.541722
O11   O     O_R   0.170190 0.908980 0.168550 -0.490637
O12   O     O_R   0.829810 0.908980 0.831450 -0.542007
O13   O     O_R   0.556580 0.251450 0.175160 -0.515228
O14   O     O_R   0.443420 0.251450 0.824840 -0.535466
O15   O     O_R   0.056580 0.751450 0.175160 -0.516221
O16   O     O_R   0.943420 0.751450 0.824840 -0.535350
C5    C     C_R   0.531464 0.155484 0.146367 0.541447
C6    C     C_R   0.469494 0.154190 0.852479 0.555100
C7    C     C_R   0.031465 0.655483 0.146367 0.540948
C8    C     C_R   0.969494 0.654190 0.852479 0.555206
O17   O     O_R   0.545920 0.049510 0.170320 -0.457767
O18   O     O_R   0.454080 0.049510 0.829680 -0.426741
O19   O     O_R   0.045920 0.549510 0.170320 -0.458125
O20   O     O_R   0.954080 0.549510 0.829680 -0.426673
O21   O     O_R   0.681390 0.957840 0.176710 -0.474261
O22   O     O_R   0.318610 0.957840 0.823290 -0.462520
O23   O     O_R   0.181390 0.457840 0.176710 -0.478027
O24   O     O_R   0.818610 0.457840 0.823290 -0.462448
C9    C     C_R   0.740132 0.975535 0.145995 0.543826
C10   C     C_R   0.274257 0.023515 0.859534 0.566561
C11   C     C_R   0.240133 0.475534 0.145995 0.537966
C12   C     C_R   0.774257 0.523515 0.859534 0.566618
O25   O     O_R   0.787500 0.044280 0.330990 -0.519406
O26   O     O_R   0.212500 0.044280 0.669010 -0.523165
O27   O     O_R   0.287500 0.544280 0.330990 -0.532640
O28   O     O_R   0.712500 0.544280 0.669010 -0.523517
O29   O     O_R   0.765610 0.293630 0.323860 -0.519403
O30   O     O_R   0.234390 0.293630 0.676140 -0.504780
O31   O     O_R   0.265610 0.793630 0.323860 -0.510752
O32   O     O_R   0.734390 0.793630 0.676140 -0.505384
C13   C     C_R   0.711647 0.333394 0.359978 0.539616
C14   C     C_R   0.269337 0.379789 0.648625 0.552018
C15   C     C_R   0.211076 0.831512 0.359885 0.554312
C16   C     C_R   0.768964 0.881248 0.649449 0.551147
O33   O     O_R   0.670140 0.410570 0.329080 -0.511968
O34   O     O_R   0.329860 0.410570 0.670920 -0.525814
O35   O     O_R   0.170140 0.910570 0.329080 -0.515982
O36   O     O_R   0.829860 0.910570 0.670920 -0.525708
O37   O     O_R   0.556540 0.252920 0.323970 -0.525190
O38   O     O_R   0.443460 0.252920 0.676030 -0.505479
O39   O     O_R   0.056540 0.752920 0.323970 -0.524571
O40   O     O_R   0.943460 0.752920 0.676030 -0.504854
C17   C     C_R   0.535468 0.155407 0.354835 0.528541
C18   C     C_R   0.467336 0.158217 0.646850 0.543678
C19   C     C_R   0.035892 0.655367 0.355019 0.534237
C20   C     C_R   0.967417 0.658251 0.646902 0.542177
O41   O     O_R   0.545870 0.051100 0.330840 -0.524251
O42   O     O_R   0.454130 0.051100 0.669160 -0.531588
O43   O     O_R   0.045870 0.551100 0.330840 -0.519232
O44   O     O_R   0.954130 0.551100 0.669160 -0.531870
O45   O     O_R   0.681340 0.959300 0.325510 -0.516992
O46   O     O_R   0.318660 0.959300 0.674490 -0.522405
O47   O     O_R   0.181340 0.459300 0.325510 -0.514853
O48   O     O_R   0.818660 0.459300 0.674490 -0.522874
C21   C     C_R   0.729528 0.011003 0.361868 0.531245
C22   C     C_R   0.258582 0.970470 0.645641 0.542604
C23   C     C_R   0.240666 0.474248 0.355650 0.529155
C24   C     C_R   0.758773 0.471149 0.645556 0.543093
Cr1   Cr    Cr6+3 0.772000 0.169640 0.250110 1.014355
Cr2   Cr    Cr6+3 0.228000 0.169640 0.749890 1.011092
Cr3   Cr    Cr6+3 0.272000 0.669640 0.250110 1.015483
Cr4   Cr    Cr6+3 0.728000 0.669640 0.749890 1.010686
Cr5   Cr    Cr6+3 0.614960 0.323350 0.249260 1.014678
Cr6   Cr    Cr6+3 0.385040 0.323350 0.750740 0.986998
Cr7   Cr    Cr6+3 0.114960 0.823350 0.249260 1.018569
Cr8   Cr    Cr6+3 0.885040 0.823350 0.750740 0.987108
Cr9   Cr    Cr6+3 0.616670 0.010620 0.250840 1.051638
Cr10  Cr    Cr6+3 0.383330 0.010620 0.749160 1.055093
Cr11  Cr    Cr6+3 0.116670 0.510620 0.250840 1.054263
Cr12  Cr    Cr6+3 0.883330 0.510620 0.749160 1.054736
O49   O     O_3   0.667880 0.167870 0.250070 -0.304633
O50   O     O_3   0.332120 0.167870 0.749930 -0.285110
O51   O     O_3   0.167880 0.667870 0.250070 -0.292973
O52   O     O_3   0.832120 0.667870 0.749930 -0.285193
C25   C     C_R   0.504695 0.160185 0.923135 0.056015
C26   C     C_R   0.499418 0.163258 0.073654 -0.009693
C27   C     C_R   0.004699 0.660186 0.923132 0.055975
C28   C     C_R   0.999420 0.663251 0.073652 -0.009443
C29   C     C_R   0.509439 0.268278 0.958429 0.007796
C30   C     C_R   0.501070 0.271117 0.033211 -0.016207
C31   C     C_R   0.009439 0.768278 0.958429 0.007710
C32   C     C_R   0.001067 0.771112 0.033211 -0.016298
C33   C     C_R   0.491562 0.055976 0.036478 -0.066841
C34   C     C_R   0.509127 0.054876 0.963616 -0.005304
C35   C     C_R   0.991572 0.555969 0.036474 -0.066787
C36   C     C_R   0.009136 0.554876 0.963611 -0.005343
C37   C     C_R   0.524172 0.373256 0.920118 -0.113017
C38   C     C_R   0.490578 0.381572 0.064510 -0.136333
C39   C     C_R   0.024168 0.873259 0.920120 -0.113046
C40   C     C_R   0.990568 0.881564 0.064511 -0.136311
C41   C     C_R   0.016508 0.983433 0.951098 0.056591
C42   C     C_R   0.996400 0.987356 0.024172 0.051318
C43   C     C_R   0.516517 0.483432 0.951094 0.056592
C44   C     C_R   0.496414 0.487363 0.024169 0.051398
H1    H     H_    0.540070 0.369415 0.864636 0.123409
H2    H     H_    0.475302 0.386008 0.120072 0.120039
H3    H     H_    0.040067 0.869423 0.864638 0.123469
H4    H     H_    0.975291 0.885996 0.120072 0.120763
C45   C     C_R   0.695307 0.870023 0.039524 -0.025569
C46   C     C_R   0.276494 0.877900 0.959403 0.032968
C47   C     C_R   0.195309 0.370022 0.039525 -0.025081
C48   C     C_R   0.776493 0.377898 0.959400 0.032999
C49   C     C_R   0.700176 0.848280 0.966718 -0.041439
C50   C     C_R   0.239054 0.850292 0.020754 -0.034634
C51   C     C_R   0.200179 0.348280 0.966719 -0.041661
C52   C     C_R   0.739054 0.350286 0.020751 -0.034625
C53   C     C_R   0.750124 0.913632 0.924803 0.042739
C54   C     C_R   0.250807 0.925728 0.078252 0.019836
C55   C     C_R   0.250128 0.413630 0.924805 0.042548
C56   C     C_R   0.750806 0.425721 0.078250 0.019484
C57   C     C_R   0.793856 0.999448 0.956966 0.014703
C58   C     C_R   0.274836 0.044004 0.064124 0.039603
C59   C     C_R   0.293865 0.499437 0.956970 0.014474
C60   C     C_R   0.774833 0.543998 0.064121 0.039157
C61   C     C_R   0.794323 0.005642 0.030259 -0.142284
C62   C     C_R   0.283299 0.080522 0.991122 -0.089520
C63   C     C_R   0.294334 0.505625 0.030264 -0.141813
C64   C     C_R   0.783296 0.580519 0.991120 -0.089478
H5    H     H_    0.830494 0.066981 0.054715 0.118090
H6    H     H_    0.295867 0.171864 0.976837 0.094964
H7    H     H_    0.330512 0.566951 0.054721 0.118391
H8    H     H_    0.795865 0.671861 0.976837 0.095019
C65   C     C_R   0.745762 0.942614 0.071935 -0.035490
C66   C     C_R   0.272884 0.995864 0.937061 0.052004
C67   C     C_R   0.245767 0.442606 0.071938 -0.033833
C68   C     C_R   0.772881 0.495862 0.937059 0.052078
C69   C     C_R   0.540911 0.068393 0.474799 -0.135328
C70   C     C_R   0.532034 0.074478 0.547416 -0.139691
C71   C     C_R   0.045065 0.571584 0.475617 -0.133439
C72   C     C_R   0.035086 0.577436 0.548227 -0.140612
H9    H     H_    0.567632 0.991800 0.454246 0.132543
H10   H     H_    0.549263 0.000335 0.580930 0.134638
H11   H     H_    0.074680 0.497627 0.455374 0.135323
H12   H     H_    0.053997 0.505222 0.582287 0.133210
C73   C     C_R   0.496577 0.171102 0.575825 0.026001
C74   C     C_R   0.516496 0.160215 0.429480 0.030038
C75   C     C_R   0.996770 0.671560 0.575937 0.024692
C76   C     C_R   0.017768 0.660377 0.429806 0.029675
C77   C     C_R   0.474973 0.266547 0.531231 -0.141446
C78   C     C_R   0.485175 0.261173 0.457951 -0.153460
C79   C     C_R   0.973061 0.764784 0.530811 -0.141102
C80   C     C_R   0.983693 0.759189 0.457647 -0.153460
H13   H     H_    0.446672 0.341709 0.552298 0.140860
H14   H     H_    0.468124 0.334424 0.423702 0.123449
H15   H     H_    0.942648 0.837984 0.551371 0.143094
H16   H     H_    0.964636 0.830370 0.422951 0.126913
C81   C     C_R   0.776352 0.047010 0.478542 -0.151921
C82   C     C_R   0.177720 0.903662 0.551293 -0.153014
C83   C     C_R   0.289576 0.516282 0.471503 -0.145045
C84   C     C_R   0.678737 0.405466 0.550827 -0.151682
H17   H     H_    0.806437 0.119416 0.455094 0.129142
H18   H     H_    0.133602 0.932868 0.583031 0.136932
H19   H     H_    0.323000 0.584026 0.447348 0.136237
H20   H     H_    0.634257 0.430665 0.583328 0.136427
C85   C     C_R   0.781921 0.025141 0.550619 -0.138923
C86   C     C_R   0.165763 0.873917 0.480769 -0.150796
C87   C     C_R   0.289893 0.506819 0.544305 -0.145288
C88   C     C_R   0.666937 0.376301 0.480344 -0.151346
H21   H     H_    0.817311 0.079371 0.581513 0.134544
H22   H     H_    0.112983 0.879473 0.459686 0.135907
H23   H     H_    0.325564 0.562602 0.573879 0.134807
H24   H     H_    0.613849 0.377597 0.459890 0.136129
C89   C     C_R   0.746185 0.928577 0.581261 0.010475
C90   C     C_R   0.222175 0.846481 0.436389 0.007181
C91   C     C_R   0.249095 0.419758 0.578000 0.011204
C92   C     C_R   0.723654 0.353687 0.435353 0.004234
C93   C     C_R   0.700894 0.859159 0.540557 -0.119253
C94   C     C_R   0.289276 0.833224 0.465275 -0.107026
C95   C     C_R   0.202493 0.349551 0.538734 -0.116730
C96   C     C_R   0.791616 0.349441 0.462526 -0.115334
H25   H     H_    0.673178 0.785966 0.566234 0.145592
H26   H     H_    0.331492 0.806577 0.430698 0.144177
H27   H     H_    0.170273 0.284103 0.566498 0.143241
H28   H     H_    0.834376 0.330403 0.426709 0.146500
C97   C     C_R   0.697214 0.875503 0.466768 -0.011565
C98   C     C_R   0.303080 0.861082 0.536233 -0.007790
C99   C     C_R   0.201923 0.356589 0.464184 -0.015623
C100  C     C_R   0.804947 0.371677 0.534097 -0.011119
C101  C     C_R   0.734977 0.973849 0.436141 0.026105
C102  C     C_R   0.246427 0.906505 0.578401 0.020667
C103  C     C_R   0.246548 0.441975 0.430650 0.030000
C104  C     C_R   0.747496 0.410353 0.577527 0.022289
C105  C     C_2   0.461760 0.946622 0.071023 0.222798
H29   H     H_    0.462010 0.865783 0.042973 0.166188
O53   O     O_2   0.434922 0.945017 0.129991 -0.514612
C106  C     C_2   0.539900 0.948556 0.930603 0.287435
H30   H     H_    0.536022 0.862836 0.956369 0.170313
O54   O     O_2   0.573371 0.957496 0.875025 -0.500984
C107  C     C_2   0.961773 0.446606 0.071013 0.222801
H31   H     H_    0.962021 0.365774 0.042956 0.166185
O55   O     O_2   0.934943 0.444983 0.129985 -0.514670
C108  C     C_2   0.039908 0.448560 0.930592 0.287419
H32   H     H_    0.036025 0.362835 0.956351 0.170273
O56   O     O_2   0.073382 0.457509 0.875016 -0.500944
C109  C     C_3   0.658228 0.784903 0.421240 -0.258657
C110  C     C_3   0.635607 0.669121 0.458941 -0.461481
H33   H     H_    0.681805 0.626564 0.484776 0.178069
H34   H     H_    0.593908 0.685884 0.498960 0.133071
H35   H     H_    0.613876 0.607190 0.419167 0.166940
H36   H     H_    0.610268 0.825991 0.398001 0.172625
H37   H     H_    0.693683 0.758271 0.377171 0.185578
C111  C     C_3   0.378231 0.850789 0.564332 -0.254212
C112  C     C_3   0.432621 0.790105 0.516994 -0.474371
H38   H     H_    0.415320 0.698826 0.503691 0.138861
H39   H     H_    0.442587 0.843877 0.467576 0.159641
H40   H     H_    0.483136 0.782959 0.546295 0.138306
H41   H     H_    0.397978 0.942005 0.573060 0.201686
H42   H     H_    0.377260 0.798955 0.615479 0.167071
C113  C     C_3   0.156251 0.273337 0.420464 -0.263748
C114  C     C_3   0.131475 0.160531 0.459539 -0.455979
H43   H     H_    0.177291 0.116389 0.484918 0.180129
H44   H     H_    0.091223 0.181284 0.500320 0.131913
H45   H     H_    0.107362 0.099178 0.420855 0.165053
H46   H     H_    0.109157 0.321574 0.400548 0.171227
H47   H     H_    0.187223 0.243753 0.373724 0.171414
C115  C     C_3   0.880246 0.361975 0.561626 -0.253846
C116  C     C_3   0.934376 0.301931 0.513645 -0.473622
H48   H     H_    0.916272 0.211724 0.498833 0.144516
H49   H     H_    0.945155 0.357426 0.465092 0.160469
H50   H     H_    0.984665 0.292318 0.543112 0.138374
H51   H     H_    0.899417 0.453301 0.570669 0.201683
H52   H     H_    0.879937 0.308965 0.612340 0.169160
C117  C     C_2   0.024262 0.086980 0.901238 0.265143
H53   H     H_    0.055782 0.078409 0.853268 0.103536
O57   O     O_2   0.993326 0.180072 0.910029 -0.502863
C118  C     C_2   0.984375 0.097279 0.062665 0.268026
H54   H     H_    0.949190 0.098510 0.108304 0.088166
O58   O     O_2   0.017332 0.186035 0.046850 -0.475027
C119  C     C_2   0.524273 0.586973 0.901229 0.265133
H55   H     H_    0.555796 0.578397 0.853262 0.103533
O59   O     O_2   0.493334 0.680066 0.910010 -0.502833
C120  C     C_2   0.484394 0.597288 0.062662 0.268072
H56   H     H_    0.449234 0.598511 0.108322 0.087712
O60   O     O_2   0.517323 0.686059 0.046820 -0.475042
C121  C     C_2   0.632120 0.829020 0.078506 0.376142
H57   H     H_    0.583803 0.872607 0.067020 0.112693
O61   O     O_2   0.634124 0.751985 0.125117 -0.470697
C122  C     C_2   0.349649 0.838140 0.967334 0.181584
H58   H     H_    0.363862 0.785505 0.014369 0.100161
O62   O     O_2   0.394992 0.864990 0.923842 -0.484576
C123  C     C_2   0.132121 0.329019 0.078506 0.376361
H59   H     H_    0.083796 0.372550 0.066977 0.112859
O63   O     O_2   0.134131 0.252048 0.125158 -0.471948
C124  C     C_2   0.849649 0.338146 0.967332 0.181559
H60   H     H_    0.863864 0.285516 0.014368 0.100125
O64   O     O_2   0.894991 0.364996 0.923838 -0.484560
C125  C     C_2   0.656104 0.750650 0.937890 0.246740
H61   H     H_    0.631785 0.758488 0.885986 0.184317
O65   O     O_2   0.645569 0.659740 0.973103 -0.475645
C126  C     C_2   0.194658 0.741362 0.025631 0.225938
H62   H     H_    0.175568 0.707469 0.076674 0.128293
O66   O     O_2   0.176571 0.690188 0.971920 -0.526212
C127  C     C_2   0.156105 0.250650 0.937891 0.246637
H63   H     H_    0.131786 0.258488 0.885988 0.184300
O67   O     O_2   0.145569 0.159742 0.973106 -0.475658
C128  C     C_2   0.694682 0.241327 0.025634 0.225721
H64   H     H_    0.675680 0.207329 0.076692 0.128245
O68   O     O_2   0.676517 0.190245 0.971914 -0.526200
C129  C     C_3   0.845881 0.078813 0.916448 -0.212502
C130  C     C_3   0.812544 0.154984 0.855881 -0.333263
H65   H     H_    0.793745 0.102900 0.810397 0.158170
H66   H     H_    0.766330 0.203994 0.874902 0.202418
H67   H     H_    0.852108 0.218282 0.833681 0.197432
H68   H     H_    0.874742 0.132691 0.953546 0.162101
H69   H     H_    0.890738 0.027851 0.896478 0.183926
C131  C     C_3   0.277684 0.134334 0.123029 -0.255344
C132  C     C_3   0.334446 0.115108 0.178925 -0.400997
H70   H     H_    0.334144 0.022501 0.200598 0.213047
H71   H     H_    0.386097 0.139718 0.156266 0.186291
H72   H     H_    0.324701 0.175477 0.224042 0.129667
H73   H     H_    0.285640 0.224503 0.100020 0.147332
H74   H     H_    0.227338 0.130407 0.152143 0.229764
C133  C     C_3   0.345897 0.578798 0.916455 -0.212595
C134  C     C_3   0.312569 0.654978 0.855885 -0.333120
H75   H     H_    0.293764 0.602900 0.810402 0.158663
H76   H     H_    0.266360 0.704003 0.874904 0.202415
H77   H     H_    0.352140 0.718262 0.833685 0.197362
H78   H     H_    0.374758 0.632675 0.953555 0.162103
H79   H     H_    0.390750 0.527826 0.896486 0.183886
C135  C     C_3   0.777693 0.634321 0.123028 -0.254893
C136  C     C_3   0.834460 0.615061 0.178915 -0.400404
H80   H     H_    0.834156 0.522447 0.200578 0.212581
H81   H     H_    0.886109 0.639672 0.156253 0.185986
H82   H     H_    0.824726 0.675413 0.224042 0.134673
H83   H     H_    0.785654 0.724493 0.100023 0.147668
H84   H     H_    0.727350 0.630405 0.152147 0.230402

loop_
_geom_bond_atom_site_label_1
_geom_bond_atom_site_label_2
_geom_bond_distance
_ccdc_geom_bond_type
C37   C43   1.385664 A    
O4    C12   1.320849 A    
O39   C19   1.289174 A    
C70   H10   1.084057 S    
C113  C114  1.522574 S    
Cr7   O51   2.017083 S    
C57   C129  1.521076 S    
C132  H72   1.110967 S    
C60   C135  1.516567 S    
C107  O55   1.216729 D    
C86   C90   1.395704 A    
C78   H14   1.083357 S    
C72   C75   1.394223 A    
O25   C21   1.294950 A    
C71   C72   1.377475 A    
O21   C9    1.269308 A    
C52   C128  1.485522 S    
C130  H65   1.104258 S    
C105  O53   1.216730 D    
C1    O9    1.264022 A    
C131  H73   1.101760 S    
O44   Cr12  2.056630 S    
C11   C67   1.448734 S    
C3    O11   1.264024 A    
C76   C80   1.396599 A    
C9    C65   1.448752 S    
C115  H52   1.111009 S    
C75   C79   1.407543 A    
C27   C36   1.394019 A    
C91   C95   1.405082 A    
C69   H9    1.077961 S    
O2    C10   1.320858 A    
O17   Cr9   2.065786 S    
C43   C119  1.482936 S    
C62   H6    1.080295 S    
O9    Cr5   2.060066 S    
C5    C26   1.496075 S    
O31   Cr3   1.987075 S    
O16   Cr8   1.944300 S    
C134  H77   1.108092 S    
C59   C133  1.521092 S    
C84   H20   1.083479 S    
C29   C37   1.394469 A    
C108  H32   1.069775 S    
O13   C5    1.305479 A    
O28   Cr4   2.111989 S    
O12   Cr8   2.092775 S    
C20   C75   1.446696 S    
O22   Cr10  1.937162 S    
O15   C7    1.305493 A    
C33   C105  1.486177 S    
O46   Cr10  1.961237 S    
O48   C24   1.269279 A    
C21   C101  1.449470 S    
C90   C94   1.395121 A    
C61   H5    1.082063 S    
C47   C67   1.405435 A    
C32   C40   1.397887 A    
C128  O68   1.220222 D    
C62   C66   1.418468 A    
C99   C113  1.527489 S    
C86   H22   1.081580 S    
C36   C108  1.478008 S    
C14   C91   1.442846 S    
Cr12  O52   2.018864 S    
C24   C104  1.475734 S    
C17   O41   1.279212 A    
C51   C55   1.423792 A    
C19   O43   1.278839 A    
C129  H68   1.081541 S    
C20   O44   1.288969 A    
Cr8   O52   2.013161 S    
O46   C22   1.271146 A    
C87   H23   1.083983 S    
C6    C25   1.488932 S    
C116  H50   1.110429 S    
C59   C63   1.377890 A    
C48   C52   1.380907 A    
C16   O36   1.272352 A    
C61   C65   1.390864 A    
C30   C38   1.397887 A    
C106  O54   1.222300 D    
C79   C80   1.389273 A    
O29   C13   1.313094 A    
C94   C98   1.398921 A    
O31   C15   1.313431 A    
C81   H17   1.078308 S    
C92   C96   1.391554 A    
C122  H58   1.086249 S    
O47   Cr11  1.945300 S    
C44   C120  1.461308 S    
C124  O64   1.218631 D    
C33   C34   1.406288 A    
C136  H81   1.101876 S    
O5    C1    1.288758 A    
C121  H57   1.062843 S    
C109  H37   1.111984 S    
O24   C12   1.318992 A    
C70   C73   1.393757 A    
O30   C14   1.271800 A    
C125  H61   1.080779 S    
O8    Cr4   1.992867 S    
C45   C121  1.473098 S    
C50   C54   1.403427 A    
O32   Cr4   1.944412 S    
C73   C77   1.407784 A    
C55   C59   1.416919 A    
O11   Cr7   2.060066 S    
C4    C53   1.452775 S    
C126  H62   1.083967 S    
C43   C44   1.423600 A    
O27   Cr3   2.068992 S    
O3    Cr3   2.107421 S    
O8    C4    1.278947 A    
C81   C85   1.373050 A    
C123  O63   1.217126 D    
Cr5   O49   2.017083 S    
C117  H53   1.086130 S    
C87   C91   1.387151 A    
C85   C89   1.391112 A    
C31   C39   1.394471 A    
C69   C74   1.402632 A    
C129  C130  1.545400 S    
O22   C10   1.318991 A    
C79   H15   1.083419 S    
C4    O12   1.272123 A    
C80   H16   1.083367 S    
C131  C132  1.519464 S    
C2    O10   1.272115 A    
C40   H4    1.083337 S    
C112  H38   1.109208 S    
C10   C66   1.480345 S    
C133  H79   1.098240 S    
C134  H76   1.101138 S    
C53   C57   1.416905 A    
C57   C61   1.377886 A    
C23   C103  1.449594 S    
O3    C11   1.267300 A    
C64   H8    1.080295 S    
C109  C110  1.526664 S    
C81   C101  1.398027 A    
C39   C41   1.385664 A    
Cr1   O49   1.981021 S    
C45   C49   1.395155 A    
Cr3   O51   1.981021 S    
C47   C51   1.395153 A    
C84   C88   1.387332 A    
C3    C54   1.445028 S    
O26   Cr2   2.111989 S    
C5    O17   1.293092 A    
C120  H56   1.085704 S    
C41   C117  1.482923 S    
O28   C24   1.288402 A    
C35   C107  1.486189 S    
O14   C6    1.298702 A    
C8    O20   1.292422 A    
C127  H63   1.080780 S    
C84   C104  1.403255 A    
C132  H71   1.101886 S    
C110  H35   1.110466 S    
C110  H34   1.110004 S    
O40   Cr8   1.966854 S    
C25   C34   1.394025 A    
C124  H60   1.086250 S    
C135  H83   1.101782 S    
O41   Cr9   2.072394 S    
C89   C93   1.399284 A    
C118  H54   1.085701 S    
O33   Cr5   2.089840 S    
C130  H66   1.101144 S    
C46   C66   1.382297 A    
O5    Cr1   1.950973 S    
C105  H29   1.058751 S    
C99   C103  1.415079 A    
C63   C67   1.390869 A    
O29   Cr1   1.987075 S    
C97   C101  1.425375 A    
C85   H21   1.083840 S    
C7    C28   1.496079 S    
Cr9   O49   2.013928 S    
C88   H24   1.081326 S    
C28   C35   1.412376 A    
C18   O42   1.288612 A    
Cr11  O51   2.013928 S    
O26   C22   1.290306 A    
O20   Cr12  2.078044 S    
C130  H67   1.108089 S    
C114  H43   1.107268 S    
C40   C42   1.398355 A    
C95   C99   1.398748 A    
C19   C76   1.445864 S    
C112  H40   1.110476 S    
C100  C115  1.527356 S    
C100  C104  1.435287 A    
C15   C90   1.463955 S    
C135  C136  1.519465 S    
C108  O56   1.222300 D    
C58   C62   1.429296 A    
C37   H1    1.084693 S    
C119  H55   1.086129 S    
C39   H3    1.084694 S    
C94   H26   1.078049 S    
C111  H41   1.105485 S    
C13   C92   1.455191 S    
C82   H18   1.083400 S    
C93   C97   1.394004 A    
C96   C100  1.394324 A    
O6    Cr2   1.992867 S    
C83   C87   1.367242 A    
C26   C33   1.412359 A    
C56   C60   1.422466 A    
C49   C125  1.489872 S    
C88   C92   1.395373 A    
O42   Cr10  2.056630 S    
O18   Cr10  2.078044 S    
C42   C118  1.461296 S    
O34   Cr6   2.061953 S    
C26   C30   1.415124 A    
O24   Cr12  1.937162 S    
O30   Cr2   1.944412 S    
O48   Cr12  1.961237 S    
C2    C55   1.452779 S    
C136  H80   1.108086 S    
O37   C17   1.289768 A    
C15   O35   1.308325 A    
Cr10  O50   2.018864 S    
O40   C20   1.289179 A    
O43   Cr11  2.072394 S    
C71   H11   1.079766 S    
O21   Cr9   1.957327 S    
C95   H27   1.080006 S    
O39   Cr7   1.940090 S    
O45   Cr9   1.945300 S    
C133  C134  1.545408 S    
C82   C86   1.390232 A    
C83   C103  1.407183 A    
C22   C102  1.482911 S    
C46   C122  1.469659 S    
O13   Cr5   1.966668 S    
C115  H51   1.104005 S    
C116  H49   1.110577 S    
O15   Cr7   1.966668 S    
O35   Cr7   2.089840 S    
C71   C76   1.403379 A    
O23   C11   1.269321 A    
C38   H2    1.083337 S    
C114  H45   1.110299 S    
C48   C124  1.469662 S    
C122  O62   1.218630 D    
O6    C2    1.278955 A    
C64   C68   1.418457 A    
C41   C42   1.423591 A    
C109  H36   1.109386 S    
C34   C106  1.478007 S    
O1    Cr1   2.107421 S    
O19   Cr11  2.065786 S    
C97   C109  1.533102 S    
C127  O67   1.219494 D    
O45   C21   1.288322 A    
O47   C23   1.275896 A    
C77   H13   1.083377 S    
C115  C116  1.532949 S    
C50   C126  1.485524 S    
C126  O66   1.220154 D    
C6    O18   1.292419 A    
C128  H64   1.084063 S    
O36   Cr8   2.061953 S    
C98   C111  1.528834 S    
C113  H47   1.112207 S    
O38   Cr6   1.966854 S    
O32   C16   1.274616 A    
C107  H31   1.058764 S    
C29   C30   1.412181 A    
O37   Cr5   1.940090 S    
C31   C32   1.412182 A    
C28   C32   1.415124 A    
C72   H12   1.083975 S    
O1    C9    1.267305 A    
O7    C3    1.288768 A    
C129  H69   1.098239 S    
C63   H7    1.082066 S    
C1    C56   1.445028 S    
O23   Cr11  1.957327 S    
C49   C53   1.423788 A    
O16   C8    1.298699 A    
C106  H30   1.069783 S    
C119  O59   1.214880 D    
C38   C44   1.398361 A    
C7    O19   1.293081 A    
Cr4   O52   1.981123 S    
O2    Cr2   2.062368 S    
C18   C73   1.446528 S    
O14   Cr6   1.944300 S    
Cr6   O50   2.013161 S    
O27   C23   1.266771 A    
C25   C29   1.397582 A    
C60   C64   1.429286 A    
C16   C89   1.442263 S    
C136  H82   1.110946 S    
C131  H74   1.101714 S    
C120  O60   1.207084 D    
C121  O61   1.217084 D    
C111  C112  1.532454 S    
C125  O65   1.219492 D    
C93   H25   1.079178 S    
C113  H46   1.109508 S    
O7    Cr3   1.950973 S    
C132  H70   1.108081 S    
C58   C131  1.516589 S    
C96   H28   1.078514 S    
C54   C58   1.422467 A    
C83   H19   1.081317 S    
C135  H84   1.101716 S    
C35   C36   1.406293 A    
C51   C127  1.489880 S    
C17   C74   1.447029 S    
C82   C102  1.404275 A    
C118  O58   1.207099 D    
C13   O33   1.301620 A    
Cr2   O50   1.981123 S    
C12   C68   1.480325 S    
C46   C50   1.380904 A    
C117  O57   1.214879 D    
C123  H59   1.062854 S    
C8    C27   1.488930 S    
O38   C18   1.289390 A    
O25   Cr1   2.068992 S    
C133  H78   1.081562 S    
C114  H44   1.109732 S    
C112  H39   1.110746 S    
C14   O34   1.275424 A    
C134  H75   1.104248 S    
C69   C70   1.375102 A    
C45   C65   1.405443 A    
O10   Cr6   2.092775 S    
C111  H42   1.111262 S    
O4    Cr4   2.062368 S    
C98   C102  1.436428 A    
C47   C123  1.473097 S    
C27   C31   1.397577 A    
C110  H33   1.108969 S    
C74   C78   1.397431 A    
C116  H48   1.110030 S    
C77   C78   1.390122 A    
C52   C56   1.403429 A    
C48   C68   1.382294 A    
