data_mof_unit_9746.cif
_audit_creation_date              2012-12-11T16:29:36-0500
_audit_creation_method            fapswitch 2.2
_symmetry_space_group_name_H-M    P1
_symmetry_Int_Tables_number       1
_space_group_crystal_system       triclinic
_cell_length_a                    6.95355
_cell_length_b                    17.273194
_cell_length_c                    18.809688
_cell_angle_alpha                 106.26157
_cell_angle_beta                  89.960672
_cell_angle_gamma                 90.705375
_cell_volume                      2168.67428659

loop_
_atom_site_label
_atom_site_type_symbol
_atom_type_description
_atom_site_fract_x
_atom_site_fract_y
_atom_site_fract_z
_atom_type_partial_charge
O1    O     O_R   0.494360 0.415680 0.413760 -0.549350
O2    O     O_R   0.818810 0.432910 0.557230 -0.507919
O3    O     O_R   0.994290 0.584320 0.586240 -0.533015
C1    C     C_R   0.649950 0.416269 0.580877 0.814962
O4    O     O_R   0.823740 0.406440 0.412520 -0.529555
O5    O     O_R   0.999250 0.557660 0.440500 -0.538522
C2    C     C_R   0.654027 0.381013 0.387056 0.774821
O6    O     O_R   0.489400 0.442340 0.559500 -0.510035
O7    O     O_3   0.662500 0.549650 0.509350 -0.382219
V1    V     V_3+5 0.935340 0.490790 0.498270 1.462495
O8    O     O_R   0.329270 0.567090 0.442770 -0.523933
C3    C     C_R   0.161155 0.583618 0.419012 0.760806
O9    O     O_R   0.324340 0.593560 0.587480 -0.510351
C4    C     C_R   0.156488 0.617744 0.614432 0.881162
V2    V     V_3+5 0.435970 0.509210 0.501730 1.464193
O10   O     O_3   0.158940 0.450350 0.490650 -0.359501
H1    H     H_    0.221670 0.872962 0.550092 0.179949
C5    C     C_R   0.115984 0.591084 0.763875 0.201912
C6    C     C_R   0.082217 0.580774 0.833867 -0.098812
C7    C     C_R   0.060505 0.646189 0.895125 -0.164828
C8    C     C_R   0.073240 0.723552 0.887891 -0.144496
C9    C     C_R   0.104249 0.738038 0.818129 0.041838
C10   C     C_R   0.123441 0.670875 0.753672 0.010098
C11   C     C_R   0.115221 0.818698 0.813471 -0.118117
C12   C     C_R   0.137765 0.834654 0.743236 -0.081410
C13   C     C_R   0.169408 0.767740 0.678837 -0.061860
C14   C     C_R   0.152529 0.686198 0.683458 -0.167224
C15   C     C_R   0.129205 0.914902 0.733780 0.173300
C16   C     C_R   0.152109 0.926305 0.663203 0.285344
C17   C     C_R   0.196388 0.862339 0.603456 -0.269979
C18   C     C_R   0.217887 0.785111 0.610893 0.359943
H2    H     H_    0.075598 0.520856 0.841361 0.153197
H3    H     H_    0.035873 0.636914 0.949019 0.132430
H4    H     H_    0.057132 0.771867 0.938353 0.090189
C19   C     C_1   0.111591 0.863641 0.132392 -0.136179
C20   C     C_1   0.118945 0.820922 0.175841 0.038268
C21   C     C_1   0.128257 0.770558 0.227607 0.011471
C22   C     C_1   0.136295 0.728198 0.271356 0.006865
C23   C     C_1   0.145774 0.678001 0.323250 0.005279
C24   C     C_1   0.153305 0.635495 0.366872 -0.192315
C25   C     C_1   0.641513 0.364075 0.632682 -0.119865
C26   C     C_1   0.637313 0.321233 0.676041 0.048473
C27   C     C_1   0.633763 0.270723 0.727701 0.043781
C28   C     C_1   0.631041 0.228224 0.771378 0.056904
C29   C     C_1   0.627412 0.177871 0.823168 0.068349
C30   C     C_1   0.623138 0.135253 0.866718 -0.112250
H5    H     H_    0.699561 0.119918 0.446776 0.165363
C31   C     C_R   0.593263 0.408325 0.246549 -0.265415
C32   C     C_R   0.585922 0.427081 0.179129 0.454571
C33   C     C_R   0.606667 0.366026 0.113759 -0.246998
C34   C     C_R   0.638643 0.286393 0.114687 0.353109
C35   C     C_R   0.627416 0.264653 0.182605 -0.028365
C36   C     C_R   0.619319 0.328091 0.249722 -0.046463
C37   C     C_R   0.624675 0.182711 0.185270 -0.152125
C38   C     C_R   0.634941 0.164880 0.255279 -0.045686
C39   C     C_R   0.661559 0.230298 0.321617 -0.044500
C40   C     C_R   0.644117 0.311704 0.318740 -0.117144
C41   C     C_R   0.623251 0.084146 0.262852 0.208505
C42   C     C_R   0.639313 0.070701 0.332152 -0.173893
C43   C     C_R   0.679724 0.133019 0.394227 -0.223290
C44   C     C_R   0.702618 0.211603 0.389424 0.408835
H6    H     H_    0.577172 0.457714 0.296183 0.124145
H7    H     H_    0.606739 0.380953 0.061525 0.154584
H8    H     H_    0.626463 0.010204 0.337994 0.178302
O11   O     O_R   0.775690 0.057750 0.940570 -0.510889
O12   O     O_R   0.441200 0.093570 0.087490 -0.532580
O13   O     O_R   0.265840 0.942320 0.059480 -0.507276
C45   C     C_R   0.611007 0.116596 0.115135 0.870476
O14   O     O_R   0.446270 0.067110 0.942790 -0.517791
O15   O     O_R   0.270950 0.915660 0.913750 -0.531386
C46   C     C_R   0.614924 0.083378 0.918819 0.801651
O16   O     O_R   0.770580 0.084400 0.086300 -0.524752
O17   O     O_3   0.602640 0.950400 0.990690 -0.355950
V3    V     V_3+5 0.329740 0.009200 0.001730 1.529568
O18   O     O_R   0.940900 0.906360 0.912450 -0.534191
C47   C     C_R   0.108814 0.885137 0.883657 0.761541
O19   O     O_R   0.935830 0.932820 0.057160 -0.516753
C48   C     C_R   0.103926 0.915817 0.080499 0.730522
V4    V     V_3+5 0.829130 0.990680 0.998180 1.529193
O20   O     O_3   0.106100 0.049590 0.009310 -0.362079
O21   O     O_3   0.553090 0.504920 0.176136 -0.547483
C49   C     C_3   0.718066 0.552944 0.201989 -0.222478
H9    H     H_    0.849714 0.526076 0.171583 0.134848
H10   H     H_    0.738154 0.563402 0.262600 0.126739
H11   H     H_    0.698292 0.612715 0.192088 0.171535
O22   O     O_3   0.690591 0.231672 0.048958 -0.579081
C50   C     C_3   0.888735 0.242976 0.037472 -0.226313
H12   H     H_    0.977257 0.231385 0.082657 0.140098
H13   H     H_    0.920365 0.304386 0.032061 0.129339
H14   H     H_    0.933180 0.199609 0.984851 0.176592
Br1   Br    Br    0.581853 0.984430 0.186658 -0.577304
O23   O     O_3   0.766585 0.269308 0.451935 -0.578434
C51   C     C_3   0.965746 0.258449 0.460393 -0.172251
H15   H     H_    0.048057 0.265369 0.411677 0.128000
H16   H     H_    0.996162 0.199101 0.469986 0.133967
H17   H     H_    0.019097 0.305158 0.509846 0.183840
Br2   Br    Br    0.161209 0.489417 0.691248 -0.592957
Br3   Br    Br    0.079275 0.013578 0.810577 -0.513708
Br4   Br    Br    0.133570 0.029897 0.644095 -0.488416
O24   O     O_3   0.288989 0.727525 0.550425 -0.569999
C52   C     C_3   0.489553 0.740335 0.546355 -0.164690
H18   H     H_    0.564331 0.733639 0.596597 0.132768
H19   H     H_    0.524162 0.800210 0.537973 0.124919
H20   H     H_    0.547490 0.694449 0.497793 0.163335

loop_
_geom_bond_atom_site_label_1
_geom_bond_atom_site_label_2
_ccdc_geom_bond_type
O12   C45   A    
C38   C39   A    
O18   C47   A    
C51   H15   S    
O11   V4    S    
O17   V3    S    
C6    C7    A    
C1    O6    A    
O21   C49   S    
O19   C48   A    
C35   C36   A    
C12   C15   A    
C13   C14   A    
C21   C22   T    
C15   C16   A    
O16   V4    S    
O5    C3    A    
C17   C18   A    
C37   C45   S    
C1    C25   S    
V2    O10   S    
O12   V3    S    
C39   C40   A    
C5    C6    A    
C25   C26   T    
C32   O21   S    
O14   C46   A    
O24   C52   S    
H5    C43   S    
C50   H14   S    
O8    V2    S    
C19   C20   T    
O15   V3    S    
O1    V2    S    
C5    Br2   S    
C10   C14   A    
C4    C14   S    
C41   Br1   S    
C44   O23   S    
C13   C18   A    
C52   H19   S    
V3    O20   S    
O9    C4    A    
H1    C17   S    
O13   C48   A    
C6    H2    S    
C34   O22   S    
C35   C37   A    
C33   H7    S    
O19   V4    S    
C31   C36   A    
C16   Br4   S    
C5    C10   A    
C52   H18   S    
C11   C12   A    
C23   C24   T    
O4    C2    A    
C36   C40   A    
O22   C50   S    
C11   C47   S    
C8    H4    S    
C12   C13   A    
O11   C46   A    
C34   C35   A    
C43   C44   A    
C3    C24   S    
O2    C1    A    
C27   C28   T    
C16   C17   A    
C31   H6    S    
C45   O16   A    
C33   C34   A    
O17   V4    S    
O14   V3    S    
O13   V3    S    
C18   O24   S    
C30   C46   S    
O3    C4    A    
C7    H3    S    
C31   C32   A    
C32   C33   A    
C51   H17   S    
C49   H10   S    
C50   H13   S    
O15   C47   A    
C9    C11   A    
C29   C30   T    
C26   C27   S    
O2    V1    S    
C28   C29   S    
O7    V1    S    
C15   Br3   S    
C37   C38   A    
C20   C21   S    
O1    C2    A    
C9    C10   A    
O5    V1    S    
O8    C3    A    
O6    V2    S    
C49   H11   S    
C19   C48   S    
O9    V2    S    
C41   C42   A    
O4    V1    S    
O3    V1    S    
V1    O10   S    
C22   C23   S    
O23   C51   S    
O7    V2    S    
V4    O20   S    
C42   H8    S    
C42   C43   A    
C7    C8    A    
C50   H12   S    
C51   H16   S    
C49   H9    S    
C38   C41   A    
C39   C44   A    
C52   H20   S    
C8    C9    A    
O18   V4    S    
C2    C40   S    
