data_mof_unit_19323.cif
_audit_creation_date              2012-12-10T17:03:54-0500
_audit_creation_method            fapswitch 2.2
_symmetry_space_group_name_H-M    P1
_symmetry_Int_Tables_number       1
_space_group_crystal_system       triclinic
_cell_length_a                    9.861312
_cell_length_b                    11.051806
_cell_length_c                    15.843949
_cell_angle_alpha                 94.952355
_cell_angle_beta                  78.779386
_cell_angle_gamma                 111.909172
_cell_volume                      1571.24387683

loop_
_atom_site_label
_atom_site_type_symbol
_atom_type_description
_atom_site_fract_x
_atom_site_fract_y
_atom_site_fract_z
_atom_type_partial_charge
C1    C     C_R   0.556574 0.745598 0.506247 0.856127
C2    C     C_R   0.443385 0.254398 0.493806 0.853737
C3    C     C_R   0.324477 0.400882 0.072982 -0.226106
C4    C     C_R   0.674835 0.576545 0.923679 -0.228122
C5    C     C_R   0.223437 0.356281 0.017092 -0.224497
C6    C     C_R   0.777013 0.618798 0.978752 -0.223966
C7    C     C_2   0.588426 0.885418 0.509608 -0.367249
C8    C     C_2   0.411436 0.114568 0.490499 -0.370184
C9    C     C_2   0.484727 0.930347 0.498620 -0.149976
C10   C     C_2   0.515063 0.069601 0.501552 -0.146805
C11   C     C_2   0.940557 0.520772 0.481310 -0.058682
C12   C     C_2   0.091607 0.528509 0.496849 -0.058024
C13   C     C_R   0.409029 0.479344 0.662420 0.788066
C14   C     C_R   0.591120 0.520303 0.337359 0.784910
C15   C     C_R   0.350713 0.450479 0.754818 -0.087815
C16   C     C_R   0.648895 0.544408 0.244096 -0.095815
C17   C     C_R   0.164282 0.336722 0.874828 -0.221517
C18   C     C_R   0.837554 0.642111 0.120500 -0.214663
C19   C     C_R   0.205293 0.362623 0.786612 0.147900
C20   C     C_R   0.797762 0.622589 0.209443 0.155844
C21   C     C_R   0.451422 0.503892 0.811676 -0.294644
C22   C     C_R   0.545454 0.492580 0.188380 -0.286327
C23   C     C_R   0.415561 0.467475 0.898528 0.089235
C24   C     C_R   0.582723 0.519036 0.099702 0.087705
C25   C     C_R   0.267487 0.387265 0.930292 0.125949
C26   C     C_R   0.732433 0.593018 0.066271 0.123316
C27   C     C_R   0.522396 0.508018 0.954450 0.077506
C28   C     C_R   0.475970 0.475401 0.043460 0.076578
Cu1   Cu    Cu3+1 0.362980 0.479380 0.485080 0.931194
Cu2   Cu    Cu3+1 0.637020 0.520620 0.514920 0.925547
H1    H     H_    0.051970 0.272798 0.899967 0.135498
H2    H     H_    0.951486 0.700059 0.093576 0.137864
H3    H     H_    0.279116 0.373095 0.138904 0.140440
H4    H     H_    0.720331 0.597632 0.856765 0.139918
H5    H     H_    0.623736 0.135849 0.512907 0.179892
H6    H     H_    0.376049 0.864086 0.487283 0.178025
H7    H     H_    0.302963 0.048119 0.479081 0.143964
H8    H     H_    0.696899 0.951907 0.520997 0.146769
H9    H     H_    0.149054 0.604227 0.539234 0.148405
H10   H     H_    0.908722 0.484359 0.419919 0.143536
N1    N     N_2   0.842890 0.551600 0.537350 -0.131529
N2    N     N_2   0.157110 0.448400 0.462650 -0.121604
O1    O     O_R   0.426810 0.668300 0.492040 -0.584766
O2    O     O_R   0.573190 0.331700 0.507960 -0.575892
O3    O     O_R   0.658240 0.703130 0.517240 -0.575609
O4    O     O_R   0.341760 0.296870 0.482760 -0.579067
O5    O     O_R   0.319390 0.472820 0.610170 -0.573152
O6    O     O_R   0.680610 0.527180 0.389830 -0.583527
O7    O     O_R   0.550820 0.507640 0.635370 -0.586507
O8    O     O_R   0.449180 0.492360 0.364630 -0.571636
H11   H     H_    0.109346 0.296715 0.042245 0.142753
H12   H     H_    0.892406 0.672703 0.952404 0.142385
H13   H     H_    0.434941 0.432183 0.216652 0.153893
H14   H     H_    0.558286 0.574377 0.785975 0.152188
C29   C     C_3   0.917911 0.691492 0.262546 -0.389133
C30   C     C_3   0.022308 0.617121 0.257524 -0.831184
H15   H     H_    0.099570 0.660291 0.303865 0.237295
H16   H     H_    0.957997 0.512844 0.272763 0.242319
H17   H     H_    0.088712 0.623011 0.191728 0.250221
H18   H     H_    0.983813 0.791145 0.237199 0.185763
H19   H     H_    0.873501 0.708343 0.330246 0.222321
C31   C     C_3   0.092585 0.290370 0.729654 -0.380044
C32   C     C_3   0.998783 0.369189 0.719708 -0.809152
H20   H     H_    0.071564 0.469335 0.698945 0.254576
H21   H     H_    0.927476 0.321797 0.670911 0.235878
H22   H     H_    0.926807 0.375245 0.782022 0.240465
H23   H     H_    0.146819 0.265743 0.665952 0.214479
H24   H     H_    0.017280 0.194859 0.758217 0.185064
C33   C     C_3   0.093365 0.361525 0.393036 -0.151325
C34   C     C_3   0.144147 0.246585 0.370892 -0.756336
H25   H     H_    0.263793 0.278359 0.343507 0.264340
H26   H     H_    0.114139 0.183963 0.427851 0.245867
H27   H     H_    0.084366 0.185578 0.320456 0.183156
H28   H     H_    0.970859 0.314335 0.411752 0.141848
H29   H     H_    0.119628 0.419160 0.333906 0.154886
C35   C     C_3   0.869013 0.591896 0.625164 -0.110239
C36   C     C_3   0.876603 0.731628 0.644154 -0.813698
H30   H     H_    0.953887 0.796944 0.591917 0.238800
H31   H     H_    0.765109 0.737231 0.651303 0.267119
H32   H     H_    0.917615 0.766079 0.705699 0.199654
H33   H     H_    0.970737 0.585834 0.639602 0.119270
H34   H     H_    0.779575 0.525022 0.671906 0.186333

loop_
_geom_bond_atom_site_label_1
_geom_bond_atom_site_label_2
_ccdc_geom_bond_type
C29   C30   S    
C32   H21   S    
Cu1   N2    S    
Cu2   O3    S    
C18   C26   A    
C4    C27   A    
C14   O8    A    
C36   H30   S    
C2    O4    A    
C15   C19   A    
C31   C32   S    
C31   H23   S    
Cu1   O5    S    
C22   C24   A    
Cu2   O6    S    
C3    C28   A    
C24   C26   A    
C21   H14   S    
C3    H3    S    
C19   C31   S    
C30   H15   S    
C12   N2    D    
C1    O1    A    
C2    O2    A    
C9    H6    S    
Cu2   N1    S    
C11   N1    D    
C10   H5    S    
C23   C27   A    
C9    C10   S    
C32   H22   S    
C29   H18   S    
Cu1   O1    S    
Cu2   O2    S    
C11   H10   S    
C20   C29   S    
C22   H13   S    
Cu1   O8    S    
C36   H31   S    
C4    H4    S    
C35   C36   S    
C4    C6    A    
C35   H34   S    
C13   O5    A    
C14   O6    A    
N2    C33   S    
Cu1   Cu2   S    
C16   C20   A    
C34   H27   S    
C33   H28   S    
C13   O7    A    
C5    C25   A    
Cu2   O7    S    
C21   C23   A    
C17   H1    S    
C14   C16   S    
C18   H2    S    
C8    H7    S    
C34   H25   S    
C36   H32   S    
C7    C9    D    
C16   C22   A    
C1    C7    S    
C2    C8    S    
C24   C28   A    
C3    C5    A    
C35   H33   S    
C11   C12   S    
C30   H17   S    
C31   H24   S    
Cu1   O4    S    
C17   C25   A    
C12   H9    S    
C13   C15   S    
N1    C35   S    
C1    O3    A    
C6    C26   A    
C29   H19   S    
C17   C19   A    
C7    H8    S    
C30   H16   S    
C33   H29   S    
C18   C20   A    
C23   C25   A    
C33   C34   S    
C32   H20   S    
C15   C21   A    
C8    C10   D    
C27   C28   A    
C5    H11   S    
C34   H26   S    
C6    H12   S    
