data_mof_unit_5684.cif
_audit_creation_date              2012-10-26T19:18:50-0400
_audit_creation_method            fapswitch 2.2
_symmetry_space_group_name_H-M    P1
_symmetry_Int_Tables_number       1
_space_group_crystal_system       triclinic
_cell_length_a                    9.68879
_cell_length_b                    10.949912
_cell_length_c                    15.491307
_cell_angle_alpha                 90.36522
_cell_angle_beta                  73.613762
_cell_angle_gamma                 91.386532
_cell_volume                      1576.2767333

loop_
_atom_site_label
_atom_site_type_symbol
_atom_type_description
_atom_site_fract_x
_atom_site_fract_y
_atom_site_fract_z
_atom_type_partial_charge
C1    C     C_R   0.998418 0.265455 0.498762 0.585279
C2    C     C_R   0.221779 0.513973 0.040791 0.051358
C3    C     C_R   0.322387 0.538825 0.090034 0.032029
C4    C     C_R   0.916609 0.502590 0.672273 0.533226
C5    C     C_R   0.075739 0.493146 0.085700 -0.130780
C6    C     C_R   0.029031 0.491855 0.179291 -0.104783
C7    C     C_R   0.274759 0.524593 0.183873 -0.113607
C8    C     C_2   0.901839 0.930933 0.482231 -0.132823
C9    C     C_2   0.019286 0.864972 0.476549 -0.066881
C10   C     C_2   0.908468 0.062682 0.465973 0.231460
C11   C     C_2   0.989961 0.133807 0.504704 -0.102055
C12   C     C_R   0.667672 0.546240 0.904825 0.033606
C13   C     C_2   0.395737 0.433073 0.554330 0.002343
C14   C     C_2   0.551436 0.433228 0.554451 0.027621
C15   C     C_R   0.004226 0.734545 0.494922 0.545153
C16   C     C_R   0.083349 0.500169 0.327661 0.571407
C17   C     C_R   0.869898 0.521345 0.770095 0.001522
C18   C     C_R   0.128951 0.505218 0.228899 0.009974
C19   C     C_R   0.912991 0.602816 0.905829 -0.139679
C20   C     C_R   0.964931 0.568087 0.816018 -0.136035
C21   C     C_R   0.723753 0.506298 0.815577 -0.121998
C22   C     C_1   0.164425 0.915864 0.442084 0.214590
C23   C     C_R   0.765390 0.592377 0.950506 0.034485
C24   C     C_1   0.524671 0.689160 0.169337 0.182354
C25   C     C_R   0.517674 0.541331 0.949583 0.026731
C26   C     C_R   0.469206 0.567030 0.043451 0.019333
C27   C     C_R   0.568697 0.623138 0.085183 -0.025161
C28   C     C_R   0.714620 0.632596 0.038992 -0.132005
C29   C     C_R   0.414100 0.516129 0.902716 -0.129096
C30   C     C_R   0.268578 0.506362 0.947486 -0.130077
Cu1   Cu    Cu3+1 0.138640 0.500020 0.499980 0.986148
Cu2   Cu    Cu3+1 0.861360 0.499980 0.500020 1.022501
H1    H     H_    0.789192 0.674545 0.071808 0.123625
H2    H     H_    0.915745 0.476134 0.212605 0.157413
H3    H     H_    0.192956 0.487472 0.908950 0.107218
H4    H     H_    0.987755 0.641290 0.939674 0.112977
H5    H     H_    0.078243 0.581688 0.781816 0.128982
H6    H     H_    0.655738 0.463050 0.779483 0.113687
H7    H     H_    0.441553 0.508066 0.830520 0.102670
H8    H     H_    0.699636 0.036647 0.303986 0.379391
H9    H     H_    0.997965 0.475722 0.048503 0.116572
H10   H     H_    0.795881 0.886974 0.498474 0.176371
H11   H     H_    0.050497 0.093453 0.546135 0.067252
H12   H     H_    0.321004 0.373903 0.602323 0.137698
H13   H     H_    0.415519 0.555363 0.455402 0.219223
H14   H     H_    0.579514 0.374244 0.602598 0.142263
H15   H     H_    0.627905 0.554644 0.454954 0.212535
H16   H     H_    0.351135 0.522390 0.222660 0.147938
N1    N     N_2   0.346430 0.498660 0.500980 -0.342992
N2    N     N_2   0.652550 0.498630 0.501000 -0.331198
N3    N     N_1   0.280065 0.956060 0.414545 -0.231342
N4    N     N_1   0.490028 0.742414 0.236515 -0.261819
O1    O     O_R   0.117050 0.321960 0.499980 -0.492650
O2    O     O_2   0.893166 0.211001 0.331259 -0.271972
O3    O     O_3   0.760626 0.000436 0.338350 -0.507570
O4    O     O_R   0.882890 0.321920 0.500020 -0.428014
O5    O     O_R   0.052910 0.500040 0.629810 -0.509164
O6    O     O_R   0.818750 0.499990 0.629840 -0.515099
O7    O     O_R   0.117110 0.678080 0.499980 -0.485591
O8    O     O_R   0.882950 0.678040 0.500020 -0.503109
O9    O     O_R   0.181250 0.500010 0.370160 -0.497262
O10   O     O_R   0.947090 0.499960 0.370190 -0.476031
O11   O     O_2   0.671837 0.174443 0.453817 -0.275866
S1    S     S_3+6 0.806409 0.117594 0.396259 0.037727

loop_
_geom_bond_atom_site_label_1
_geom_bond_atom_site_label_2
_ccdc_geom_bond_type
C4    O5    A    
C24   N4    T    
C19   C23   A    
C11   H11   S    
C29   C30   A    
H13   N1    S    
C15   O8    A    
Cu1   O9    S    
C10   S1    S    
Cu1   Cu2   S    
C1    C11   S    
C24   C27   S    
Cu2   O6    S    
C12   C25   A    
C2    C30   A    
C7    C18   A    
O3    S1    S    
Cu1   O5    S    
C19   C20   A    
C2    C3    A    
C9    C15   S    
Cu2   O10   S    
C14   H14   S    
C23   C28   A    
C7    H16   S    
C20   H5    S    
C12   C23   A    
Cu2   N2    S    
C26   C27   A    
C14   N2    D    
C16   O10   A    
C30   H3    S    
Cu1   N1    S    
C13   N1    D    
C4    C17   S    
C8    C10   S    
C1    O4    A    
C8    H10   S    
C28   H1    S    
H15   N2    S    
C3    C7    A    
C19   H4    S    
C3    C26   A    
C25   C29   A    
C5    C6    A    
C6    C18   A    
C17   C21   A    
C9    C22   S    
C2    C5    A    
C16   O9    A    
Cu2   O8    S    
C4    O6    A    
O11   S1    D    
C27   C28   A    
C17   C20   A    
O2    S1    D    
C16   C18   S    
C10   C11   D    
Cu1   O7    S    
C29   H7    S    
C5    H9    S    
C8    C9    D    
C1    O1    A    
C25   C26   A    
C13   C14   S    
C15   O7    A    
C12   C21   A    
Cu2   O4    S    
C13   H12   S    
Cu1   O1    S    
C21   H6    S    
C6    H2    S    
C22   N3    T    
H8    O3    S    
