data_mof_unit_22536.cif
_audit_creation_date              2012-10-26T21:21:23-0400
_audit_creation_method            fapswitch 2.2
_symmetry_space_group_name_H-M    P1
_symmetry_Int_Tables_number       1
_space_group_crystal_system       triclinic
_cell_length_a                    14.322498
_cell_length_b                    10.736122
_cell_length_c                    9.711972
_cell_angle_alpha                 89.863106
_cell_angle_beta                  90.405442
_cell_angle_gamma                 95.738478
_cell_volume                      1485.8681063

loop_
_atom_site_label
_atom_site_type_symbol
_atom_type_description
_atom_site_fract_x
_atom_site_fract_y
_atom_site_fract_z
_atom_type_partial_charge
C1    C     C_R   0.489758 0.260988 0.499586 0.566874
C2    C     C_R   0.469643 0.052001 0.376998 0.223924
C3    C     C_R   0.441953 0.923294 0.381804 0.206962
C4    C     C_R   0.331327 0.498793 0.499527 0.556616
C5    C     C_R   0.456776 0.863232 0.506049 -0.033418
C6    C     C_R   0.648277 0.661904 0.134106 0.224813
C7    C     C_R   0.719218 0.726398 0.048496 0.243101
C8    C     C_R   0.715788 0.710793 0.907316 0.209336
C9    C     C_R   0.637700 0.647569 0.849124 -0.146807
C10   C     C_R   0.569974 0.572383 0.923776 0.050343
C11   C     C_R   0.572207 0.575364 0.073050 0.110762
C12   C     C_1   0.769809 0.486639 0.500691 -0.007996
C13   C     C_R   0.433092 0.432160 0.073282 0.025424
C14   C     C_R   0.432542 0.433652 0.926804 0.027669
C15   C     C_R   0.486625 0.734850 0.501308 0.577593
C16   C     C_R   0.667812 0.492972 0.500446 0.523793
C17   C     C_1   0.228752 0.497278 0.498379 -0.019133
C18   C     C_1   0.143038 0.494649 0.498238 -0.029629
C19   C     C_1   0.041977 0.490633 0.498645 0.022499
C20   C     C_1   0.956223 0.487472 0.499176 0.037590
C21   C     C_1   0.855270 0.485292 0.499934 0.009854
C22   C     C_3   0.591864 0.114238 0.239818 -0.114936
C23   C     C_R   0.385401 0.120422 0.725408 0.236518
C24   C     C_3   0.252970 0.186610 0.634259 -0.115368
C25   C     C_3   0.502049 0.879733 0.025756 -0.013326
C26   C     C_3   0.281867 0.722221 0.773703 -0.062662
C27   C     C_3   0.721812 0.742196 0.342439 -0.021777
C28   C     C_3   0.774051 0.935616 0.076219 -0.042671
C29   C     C_R   0.381617 0.067704 0.856147 -0.095185
C30   C     C_R   0.400670 0.944390 0.871941 0.250085
C31   C     C_R   0.406854 0.869129 0.755282 0.273301
C32   C     C_R   0.433304 0.927443 0.627831 -0.077352
C33   C     C_R   0.429224 0.059165 0.618135 -0.073524
C34   C     C_R   0.464183 0.123233 0.498556 -0.030357
Cu1   Cu    Cu3+1 0.499990 0.499990 0.640660 1.009915
Cu2   Cu    Cu3+1 0.500010 0.500010 0.359340 1.039469
H1    H     H_    0.630449 0.667195 0.743317 0.221723
H2    H     H_    0.264886 0.161780 0.525110 0.127418
H3    H     H_    0.212646 0.106976 0.688283 0.130499
H4    H     H_    0.546224 0.970127 0.013850 0.088085
H5    H     H_    0.527179 0.810120 0.954957 0.105938
H6    H     H_    0.510967 0.845607 0.132052 0.191445
H7    H     H_    0.253922 0.766508 0.866162 0.168654
H8    H     H_    0.249113 0.756446 0.678405 0.140604
H9    H     H_    0.261119 0.620195 0.781908 0.145547
H10   H     H_    0.279927 0.048027 0.257075 0.332770
H11   H     H_    0.741251 0.843973 0.333495 0.144120
H12   H     H_    0.375354 0.381229 0.873903 0.164237
H13   H     H_    0.780508 0.685980 0.317009 0.162624
H14   H     H_    0.705953 0.730153 0.453170 0.154872
H15   H     H_    0.704898 0.947614 0.027895 0.079289
H16   H     H_    0.830161 0.980048 0.009066 0.210091
H17   H     H_    0.779308 0.989425 0.173592 0.085700
H18   H     H_    0.360057 0.120134 0.943508 0.170556
H19   H     H_    0.377752 0.376080 0.126851 0.121717
H20   H     H_    0.612132 0.156962 0.138905 0.135753
H21   H     H_    0.616937 0.019483 0.243976 0.084254
H22   H     H_    0.628237 0.174207 0.321034 0.125203
H23   H     H_    0.951261 0.848500 0.813178 0.361935
H24   H     H_    0.208815 0.265576 0.634949 0.133235
N1    N     N_R   0.500820 0.501210 0.147910 -0.202912
N2    N     N_R   0.500850 0.501290 0.852040 -0.207045
O1    O     O_R   0.499990 0.319640 0.618810 -0.456670
O2    O     O_2   0.811766 0.707398 0.671095 -0.328139
O3    O     O_2   0.776158 0.910905 0.755911 -0.337945
O4    O     O_3   0.908333 0.801330 0.878700 -0.466035
O5    O     O_3   0.338756 0.224883 0.701294 -0.574129
O6    O     O_3   0.406732 0.894219 0.001141 -0.449229
O7    O     O_3   0.380660 0.742297 0.768050 -0.513426
O8    O     O_2   0.343994 0.753378 0.219679 -0.204594
O9    O     O_2   0.260499 0.841287 0.407410 -0.329800
O10   O     O_3   0.298868 0.982184 0.194832 -0.448808
O11   O     O_3   0.638977 0.705771 0.266418 -0.547750
O12   O     O_R   0.500000 0.319660 0.381240 -0.475293
O13   O     O_3   0.790641 0.809516 0.102788 -0.528074
O14   O     O_R   0.376050 0.499990 0.618810 -0.453788
O15   O     O_R   0.376060 0.500010 0.381240 -0.471758
O16   O     O_R   0.500000 0.680340 0.618760 -0.476639
O17   O     O_R   0.500010 0.680360 0.381190 -0.411949
O18   O     O_R   0.623940 0.499990 0.618760 -0.500985
O19   O     O_R   0.623950 0.500010 0.381190 -0.460258
O20   O     O_3   0.493291 0.107550 0.252090 -0.527919
S1    S     S_3+6 0.803558 0.784628 0.797859 -0.009665
S2    S     S_3+6 0.334365 0.870925 0.299716 0.054243

loop_
_geom_bond_atom_site_label_1
_geom_bond_atom_site_label_2
_ccdc_geom_bond_type
C8    S1    S    
C19   C20   T    
C22   H21   S    
C26   H8    S    
C7    C8    A    
C1    O12   A    
C22   O20   S    
Cu2   O15   S    
H23   O4    S    
C30   C31   A    
C28   H15   S    
O3    S1    D    
C15   O16   A    
C29   H18   S    
C14   N2    A    
Cu1   O18   S    
C24   H3    S    
C18   C19   S    
C23   O5    S    
C26   H9    S    
O4    S1    S    
C15   O17   A    
C12   C16   S    
C8    C9    A    
C23   C33   A    
C1    C34   S    
C24   H2    S    
O8    S2    D    
C9    C10   A    
H10   O10   S    
C24   O5    S    
C27   H14   S    
C5    C32   A    
C2    C34   A    
C13   C14   A    
C10   N2    A    
C25   O6    S    
C1    O1    A    
C26   H7    S    
C33   C34   A    
Cu1   O14   S    
C4    O14   A    
C25   H5    S    
C6    C11   A    
C22   H20   S    
C3    C5    A    
C12   C21   T    
C16   O18   A    
Cu1   Cu2   S    
O2    S1    D    
C29   C30   A    
C31   C32   A    
Cu2   O19   S    
C24   H24   S    
C9    H1    S    
C17   C18   T    
O10   S2    S    
Cu2   O12   S    
C4    C17   S    
C2    O20   S    
Cu2   N1    S    
C23   C29   A    
C6    O11   S    
O9    S2    D    
C27   H11   S    
C11   N1    A    
Cu2   O17   S    
C25   H6    S    
C22   H22   S    
C7    O13   S    
C28   H17   S    
C6    C7    A    
Cu1   O16   S    
C32   C33   A    
C2    C3    A    
C4    O15   A    
C25   H4    S    
C28   H16   S    
C16   O19   A    
Cu1   N2    S    
C5    C15   S    
C10   C11   A    
C31   O7    S    
C13   N1    A    
C20   C21   S    
C3    S2    S    
C26   O7    S    
C14   H12   S    
Cu1   O1    S    
C27   O11   S    
C28   O13   S    
C30   O6    S    
C27   H13   S    
C13   H19   S    
