data_mof_unit_15824.cif
_audit_creation_date              2012-10-26T19:04:17-0400
_audit_creation_method            fapswitch 2.2
_symmetry_space_group_name_H-M    P1
_symmetry_Int_Tables_number       1
_space_group_crystal_system       triclinic
_cell_length_a                    14.8971
_cell_length_b                    15.84741
_cell_length_c                    9.602015
_cell_angle_alpha                 89.91521
_cell_angle_beta                  89.152302
_cell_angle_gamma                 90.132805
_cell_volume                      2266.59125199

loop_
_atom_site_label
_atom_site_type_symbol
_atom_type_description
_atom_site_fract_x
_atom_site_fract_y
_atom_site_fract_z
_atom_type_partial_charge
C1    C     C_R   0.384403 0.878324 0.500758 0.535228
C2    C     C_R   0.690402 0.247610 0.384369 -0.031716
C3    C     C_R   0.193939 0.255053 0.383111 -0.034446
C4    C     C_R   0.190397 0.747613 0.384376 -0.031718
C5    C     C_R   0.675525 0.803324 0.505131 -0.009833
C6    C     C_R   0.670048 0.200514 0.506208 -0.010076
C7    C     C_R   0.175502 0.303308 0.505127 -0.009834
C8    C     C_R   0.170055 0.700508 0.506211 -0.010073
C9    C     C_R   0.664507 0.004238 0.140217 -0.136714
C10   C     C_R   0.164507 0.504214 0.140218 -0.136717
C11   C     C_R   0.745464 0.008428 0.067000 -0.162718
C12   C     C_R   0.384949 0.121710 0.500080 0.532994
C13   C     C_R   0.245465 0.508371 0.067000 -0.162705
C14   C     C_R   0.746733 0.008853 0.921942 0.000689
C15   C     C_R   0.246735 0.508787 0.921942 0.000700
C16   C     C_R   0.665043 0.004367 0.852748 -0.091032
C17   C     C_R   0.165043 0.504334 0.852748 -0.091009
C18   C     C_R   0.581106 0.002494 0.923541 0.113957
C19   C     C_R   0.081107 0.502477 0.923540 0.113962
C20   C     C_R   0.580935 0.002668 0.072747 0.126498
C21   C     C_R   0.080936 0.502653 0.072747 0.126492
C22   C     C_R   0.423405 0.994992 0.078188 0.000099
C23   C     C_R   0.884402 0.378324 0.500760 0.535224
C24   C     C_R   0.923404 0.495010 0.078187 0.000098
C25   C     C_R   0.612147 0.124544 0.500709 0.531253
C26   C     C_R   0.614209 0.876776 0.500672 0.532755
C27   C     C_R   0.112150 0.624542 0.500710 0.531254
C28   C     C_R   0.114200 0.376770 0.500671 0.532759
C29   C     C_R   0.421709 0.996978 0.930626 0.096572
C30   C     C_R   0.921710 0.496995 0.930627 0.096571
C31   C     C_R   0.368025 0.246950 0.726515 -0.101714
C32   C     C_R   0.349934 0.766459 0.745353 -0.110859
C33   C     C_R   0.868129 0.747022 0.726393 -0.101763
C34   C     C_R   0.884949 0.621708 0.500077 0.532994
C35   C     C_R   0.849884 0.266499 0.745399 -0.110854
C36   C     C_R   0.342009 0.279986 0.854826 -0.144986
C37   C     C_R   0.314943 0.741995 0.874360 -0.142431
C38   C     C_R   0.842167 0.780101 0.854699 -0.145030
C39   C     C_R   0.814868 0.242054 0.874400 -0.142427
C40   C     C_R   0.753682 0.804214 0.877293 -0.133620
C41   C     C_R   0.726071 0.216352 0.886095 -0.126435
C42   C     C_R   0.253519 0.304103 0.877351 -0.133564
C43   C     C_R   0.226144 0.716299 0.886086 -0.126448
C44   C     C_R   0.694814 0.806849 0.765872 -0.108906
C45   C     C_R   0.265087 0.198349 0.384034 -0.155017
C46   C     C_R   0.675006 0.206998 0.766918 -0.101258
C47   C     C_R   0.194695 0.306762 0.765880 -0.108859
C48   C     C_R   0.175057 0.706962 0.766927 -0.101277
C49   C     C_R   0.724253 0.785338 0.629178 0.007759
C50   C     C_R   0.712684 0.223028 0.632934 0.009321
C51   C     C_R   0.224187 0.285288 0.629197 0.007728
C52   C     C_R   0.212711 0.723007 0.632931 0.009325
C53   C     C_R   0.305819 0.241422 0.617272 0.015513
C54   C     C_R   0.295196 0.766258 0.626034 0.014045
C55   C     C_R   0.805877 0.741464 0.617219 0.015559
C56   C     C_R   0.264398 0.801437 0.384378 -0.153016
C57   C     C_R   0.795170 0.266279 0.626053 0.014044
C58   C     C_R   0.320916 0.191154 0.499035 -0.031226
C59   C     C_R   0.317725 0.810401 0.502405 -0.028660
C60   C     C_R   0.820925 0.691156 0.499019 -0.031206
C61   C     C_R   0.817720 0.310405 0.502414 -0.028660
C62   C     C_3   0.832572 0.012903 0.834544 -0.264465
C63   C     C_3   0.919728 0.016734 0.916214 -0.445801
C64   C     C_3   0.332576 0.512800 0.834545 -0.264468
C65   C     C_3   0.419735 0.516582 0.916215 -0.445794
C66   C     C_3   0.328824 0.992630 0.867625 -0.233509
C67   C     C_R   0.765068 0.698329 0.384049 -0.155008
C68   C     C_3   0.265693 0.062036 0.923296 -0.326727
C69   C     C_3   0.182595 0.071316 0.833394 -0.446656
C70   C     C_3   0.828821 0.492680 0.867635 -0.233523
C71   C     C_3   0.765770 0.562178 0.923185 -0.326674
C72   C     C_3   0.682622 0.571403 0.833378 -0.446649
C73   C     C_3   0.635177 0.755055 0.254966 -0.236995
C74   C     C_3   0.541073 0.720846 0.290054 -0.268749
C75   C     C_3   0.478811 0.730426 0.166929 -0.453563
C76   C     C_3   0.628080 0.251926 0.260934 -0.240521
C77   C     C_3   0.536342 0.287633 0.305643 -0.272836
C78   C     C_R   0.764406 0.301430 0.384374 -0.153023
C79   C     C_3   0.471557 0.288225 0.184803 -0.455719
C80   C     C_3   0.135211 0.255084 0.254920 -0.237001
C81   C     C_3   0.041096 0.220881 0.289952 -0.268728
C82   C     C_3   0.978849 0.230526 0.166824 -0.453512
C83   C     C_3   0.128061 0.751941 0.260957 -0.240522
C84   C     C_3   0.036334 0.787660 0.305701 -0.272870
C85   C     C_3   0.971547 0.788319 0.184871 -0.455726
C86   C     C_R   0.693930 0.755043 0.383130 -0.034454
Cu1   Cu    Cu3+1 0.499990 0.000000 0.640660 0.874206
Cu2   Cu    Cu3+1 0.999990 0.500000 0.640660 0.874206
Cu3   Cu    Cu3+1 0.500010 1.000000 0.359340 0.884273
Cu4   Cu    Cu3+1 0.000010 0.500000 0.359340 0.884270
H1    H     H_    0.275965 0.157843 0.294489 0.128944
H2    H     H_    0.919639 0.285286 0.740948 0.139358
H3    H     H_    0.389008 0.281902 0.938681 0.105401
H4    H     H_    0.355759 0.745643 0.965766 0.106596
H5    H     H_    0.889204 0.782045 0.938504 0.105416
H6    H     H_    0.855664 0.245719 0.965827 0.106588
H7    H     H_    0.731125 0.822712 0.980402 0.114847
H8    H     H_    0.697422 0.201041 0.986938 0.109224
H9    H     H_    0.230926 0.322586 0.980447 0.114780
H10   H     H_    0.197512 0.700985 0.986941 0.109241
H11   H     H_    0.625902 0.821781 0.791071 0.144039
H12   H     H_    0.278420 0.839365 0.292532 0.127209
H13   H     H_    0.605208 0.190651 0.782709 0.140143
H14   H     H_    0.125773 0.321691 0.791021 0.144021
H15   H     H_    0.105259 0.690619 0.782744 0.140153
H16   H     H_    0.361847 0.989585 0.138591 0.117468
H17   H     H_    0.861842 0.489617 0.138587 0.117459
H18   H     H_    0.671341 0.001405 0.250019 0.193616
H19   H     H_    0.171340 0.501401 0.250020 0.193619
H20   H     H_    0.806766 0.010287 0.125814 0.120167
H21   H     H_    0.306768 0.510218 0.125815 0.120167
H22   H     H_    0.920937 0.073871 0.982865 0.148050
H23   H     H_    0.775915 0.657796 0.294528 0.128929
H24   H     H_    0.927212 0.959181 0.981088 0.146139
H25   H     H_    0.977473 0.020143 0.842086 0.131107
H26   H     H_    0.835518 0.956839 0.765367 0.155227
H27   H     H_    0.829817 0.069383 0.766123 0.157921
H28   H     H_    0.420986 0.573724 0.982852 0.148039
H29   H     H_    0.427175 0.459028 0.981100 0.146146
H30   H     H_    0.477482 0.519946 0.842085 0.131095
H31   H     H_    0.335489 0.456736 0.765365 0.155224
H32   H     H_    0.329853 0.569286 0.766133 0.157906
H33   H     H_    0.202036 0.091148 0.726124 0.168947
H34   H     H_    0.778441 0.339346 0.292519 0.127212
H35   H     H_    0.145753 0.010407 0.828776 0.145317
H36   H     H_    0.137461 0.119992 0.879032 0.141604
H37   H     H_    0.242817 0.046908 0.031082 0.135689
H38   H     H_    0.301886 0.123001 0.925931 0.186325
H39   H     H_    0.330456 0.998051 0.754790 0.233687
H40   H     H_    0.298714 0.930096 0.892623 0.122980
H41   H     H_    0.702012 0.591044 0.725989 0.168881
H42   H     H_    0.645704 0.510523 0.829091 0.145297
H43   H     H_    0.637578 0.620198 0.878875 0.141638
H44   H     H_    0.742954 0.547194 0.031052 0.135667
H45   H     H_    0.671288 0.001324 0.742749 0.194027
H46   H     H_    0.802009 0.623121 0.925565 0.186447
H47   H     H_    0.830453 0.498028 0.754791 0.233672
H48   H     H_    0.798651 0.430187 0.892744 0.122917
H49   H     H_    0.469595 0.798298 0.141802 0.172217
H50   H     H_    0.507051 0.697460 0.074208 0.132203
H51   H     H_    0.412336 0.702463 0.193837 0.136668
H52   H     H_    0.545929 0.652898 0.317918 0.146408
H53   H     H_    0.510972 0.754494 0.380470 0.176797
H54   H     H_    0.632931 0.818314 0.206176 0.175488
H55   H     H_    0.664407 0.714044 0.172021 0.114700
H56   H     H_    0.171287 0.501312 0.742747 0.194030
H57   H     H_    0.499471 0.327314 0.098300 0.133939
H58   H     H_    0.459968 0.222779 0.147563 0.166614
H59   H     H_    0.406273 0.315402 0.219298 0.142486
H60   H     H_    0.506183 0.249595 0.391405 0.172789
H61   H     H_    0.545010 0.353276 0.344031 0.150523
H62   H     H_    0.656368 0.294325 0.178871 0.116110
H63   H     H_    0.621290 0.189711 0.210021 0.177669
H64   H     H_    0.969662 0.298417 0.141750 0.172251
H65   H     H_    0.007087 0.197575 0.074071 0.132187
H66   H     H_    0.912355 0.202582 0.193712 0.136637
H67   H     H_    0.436536 0.225480 0.714108 0.129708
H68   H     H_    0.045936 0.152922 0.317746 0.146396
H69   H     H_    0.010992 0.254500 0.380399 0.176792
H70   H     H_    0.132981 0.318350 0.206154 0.175480
H71   H     H_    0.164452 0.214079 0.171976 0.114685
H72   H     H_    0.999485 0.827414 0.098395 0.133947
H73   H     H_    0.959913 0.722892 0.147588 0.166601
H74   H     H_    0.906284 0.815528 0.219393 0.142499
H75   H     H_    0.006164 0.749602 0.391426 0.172787
H76   H     H_    0.045026 0.853283 0.344153 0.150541
H77   H     H_    0.156348 0.794337 0.178889 0.116118
H78   H     H_    0.419687 0.785251 0.740875 0.139355
H79   H     H_    0.121252 0.689731 0.210035 0.177670
H80   H     H_    0.936631 0.725536 0.713937 0.129678
N1    N     N_R   0.501200 0.000000 0.147910 -0.257317
N2    N     N_R   0.001200 0.500000 0.147910 -0.257319
N3    N     N_R   0.501270 1.000000 0.852040 -0.248824
N4    N     N_R   0.001270 0.500000 0.852040 -0.248821
O1    O     O_R   0.409820 0.909830 0.618810 -0.527168
O2    O     O_R   0.590170 0.909830 0.618760 -0.535829
O3    O     O_R   0.090170 0.590170 0.618760 -0.535754
O4    O     O_R   0.090170 0.409830 0.618760 -0.535823
O5    O     O_R   0.590190 0.090180 0.381190 -0.518455
O6    O     O_R   0.590190 0.909820 0.381190 -0.518414
O7    O     O_R   0.090190 0.590180 0.381190 -0.518455
O8    O     O_R   0.090190 0.409820 0.381190 -0.518414
O9    O     O_R   0.409820 0.090170 0.618810 -0.518036
O10   O     O_R   0.909820 0.409830 0.618810 -0.527184
O11   O     O_R   0.909820 0.590170 0.618810 -0.518005
O12   O     O_R   0.409840 0.909830 0.381240 -0.508071
O13   O     O_R   0.409840 0.090170 0.381240 -0.505421
O14   O     O_R   0.909840 0.409830 0.381240 -0.508076
O15   O     O_R   0.909840 0.590170 0.381240 -0.505423
O16   O     O_R   0.590170 0.090170 0.618760 -0.535749

loop_
_geom_bond_atom_site_label_1
_geom_bond_atom_site_label_2
_ccdc_geom_bond_type
C44   C49   A    
C33   C55   A    
C66   C68   S    
C74   H53   S    
C81   H69   S    
C22   C29   A    
Cu3   O12   S    
C36   C42   A    
C4    C8    A    
C39   H6    S    
C77   H61   S    
C71   H44   S    
C81   C82   S    
Cu2   O3    S    
C39   C41   A    
C1    O12   A    
C9    H18   S    
Cu1   O2    S    
C43   H10   S    
C83   C84   S    
C19   C21   A    
C3    C7    A    
C25   O16   A    
C1    C59   S    
Cu1   O9    S    
C23   O14   A    
C11   C14   A    
C80   H70   S    
C6    C25   S    
C69   H33   S    
C64   H31   S    
C14   C62   S    
C76   H63   S    
Cu2   N4    S    
C10   H19   S    
C73   C74   S    
Cu3   O6    S    
C63   H22   S    
C28   O8    A    
C8    C27   S    
C62   H27   S    
C84   H75   S    
C75   H51   S    
C63   H24   S    
C36   H3    S    
Cu4   O8    S    
C60   C67   A    
C68   C69   S    
C38   H5    S    
C15   C64   S    
C70   C71   S    
C47   H14   S    
C78   H34   S    
C43   C48   A    
C8    C52   A    
C40   C44   A    
C22   N1    A    
C53   C58   A    
C79   H59   S    
C66   H39   S    
C63   H25   S    
C35   H2    S    
C73   H54   S    
C74   H52   S    
C69   H35   S    
C55   C60   A    
C4    C56   A    
C11   H20   S    
C34   C60   S    
C85   H72   S    
Cu3   O13   S    
C5    C49   A    
C2    C6    A    
C24   N2    A    
C3    C80   S    
C32   C54   A    
C30   C70   S    
C52   C54   A    
C75   H50   S    
C72   H42   S    
C54   C59   A    
C77   C79   S    
C10   C21   A    
Cu1   N3    S    
C45   C58   A    
C74   C75   S    
C33   H80   S    
C76   C77   S    
Cu3   N1    S    
Cu2   O10   S    
C40   H7    S    
C47   C51   A    
C49   C55   A    
C12   O13   A    
C83   H77   S    
C3    C45   A    
C6    C50   A    
C7    C28   S    
C29   C66   S    
C73   H55   S    
C51   C53   A    
C82   H64   S    
C37   C43   A    
C34   O11   A    
C35   C39   A    
C27   O7    A    
C62   H26   S    
C62   C63   S    
C2    C78   A    
C9    C20   A    
C48   H15   S    
Cu4   O7    S    
C26   O2    A    
C61   C78   A    
C41   C46   A    
C65   H29   S    
C24   H17   S    
C32   C37   A    
C84   C85   S    
C57   C61   A    
C9    C11   A    
C68   H37   S    
C31   H67   S    
C12   C58   S    
Cu1   O16   S    
C5    C86   A    
Cu2   O11   S    
Cu2   Cu4   S    
C69   H36   S    
C70   H48   S    
C65   H28   S    
C13   C15   A    
C85   H73   S    
C14   C16   A    
C31   C53   A    
C82   H65   S    
C71   H46   S    
C2    C76   S    
C72   H41   S    
C23   C61   S    
C15   C17   A    
C68   H38   S    
C1    O1    A    
C67   C86   A    
C81   H68   S    
C31   C36   A    
C50   C57   A    
C34   O15   A    
C27   O3    A    
C29   N3    A    
C80   C81   S    
C10   C13   A    
C77   H60   S    
C79   H57   S    
C44   H11   S    
C25   O5    A    
Cu2   O4    S    
C79   H58   S    
C26   O6    A    
C21   N2    A    
Cu1   O1    S    
C46   H13   S    
C46   C50   A    
C33   C38   A    
C56   C59   A    
C35   C57   A    
C64   C65   S    
Cu1   Cu3   S    
C17   H56   S    
C67   H23   S    
C19   N4    A    
C56   H12   S    
C23   O10   A    
C13   H21   S    
C22   H16   S    
C42   H9    S    
C38   C40   A    
C72   H43   S    
C4    C83   S    
Cu4   O14   S    
C64   H32   S    
C83   H79   S    
C17   C19   A    
C65   H30   S    
C37   H4    S    
C18   C20   A    
C42   C47   A    
Cu3   O5    S    
C45   H1    S    
C24   C30   A    
C80   H71   S    
C84   H76   S    
C7    C51   A    
C5    C26   S    
C12   O9    A    
C18   N3    A    
C48   C52   A    
C20   N1    A    
C71   C72   S    
C70   H47   S    
C16   C18   A    
Cu4   N2    S    
C82   H66   S    
C32   H78   S    
C76   H62   S    
C41   H8    S    
C75   H49   S    
C73   C86   S    
C16   H45   S    
C28   O4    A    
C30   N4    A    
C85   H74   S    
C66   H40   S    
Cu4   O15   S    
