data_mof_unit_17733.cif
_audit_creation_date              2013-03-05T15:55:19-0500
_audit_creation_method            fapswitch 2.2
_symmetry_space_group_name_H-M    P1
_symmetry_Int_Tables_number       1
_space_group_crystal_system       triclinic
_cell_length_a                    27.612076
_cell_length_b                    10.68366
_cell_length_c                    9.853903
_cell_angle_alpha                 89.149128
_cell_angle_beta                  90.530301
_cell_angle_gamma                 91.924572
_cell_volume                      2904.81035613

loop_
_atom_site_label
_atom_site_type_symbol
_atom_site_description
_atom_site_fract_x
_atom_site_fract_y
_atom_site_fract_z
_atom_type_partial_charge
O1    O     O_R   0.500000 0.316780 0.614690 -0.660502
O2    O     O_R   0.500000 0.316750 0.385360 -0.585630
C1    C     C_R   0.505156 0.260739 0.502035 0.891109
O3    O     O_R   0.428760 0.500030 0.614650 -0.647800
O4    O     O_R   0.428750 0.500010 0.385320 -0.648574
C2    C     C_R   0.405907 0.498177 0.499520 0.906713
Zn1   Zn    Zn3+2 0.500000 0.500020 0.653130 0.924403
Zn2   Zn    Zn3+2 0.500000 0.499980 0.346870 0.952561
O5    O     O_R   0.500000 0.683250 0.614640 -0.621442
O6    O     O_R   0.500000 0.683220 0.385310 -0.616477
O7    O     O_R   0.571250 0.499990 0.614680 -0.618441
O8    O     O_R   0.571240 0.499970 0.385350 -0.595482
C3    C     C_R   0.496100 0.739651 0.499426 0.925046
C4    C     C_R   0.594056 0.499794 0.500827 0.898914
C5    C     C_R   0.175879 0.354095 0.522896 0.578629
O9    O     O_2   0.200223 0.246600 0.527839 -0.574154
N1    N     N_R   0.200452 0.465803 0.503957 -0.318857
C6    C     C_R   0.177334 0.576716 0.495459 0.607987
C7    C     C_R   0.276040 0.492136 0.377544 0.477368
C8    C     C_R   0.326870 0.498146 0.377119 -0.372148
C9    C     C_R   0.328476 0.468330 0.621796 -0.371818
C10   C     C_R   0.277932 0.453156 0.623042 0.476872
C11   C     C_R   0.252125 0.468169 0.500833 0.160170
C12   C     C_R   0.100836 0.464369 0.532915 -0.122507
C13   C     C_R   0.125613 0.351129 0.538196 -0.009212
C14   C     C_R   0.099929 0.237887 0.560820 -0.153439
C15   C     C_R   0.126734 0.578722 0.508360 -0.153372
C16   C     C_R   0.352990 0.489239 0.499271 -0.124391
H1    H     H_    0.348611 0.463409 0.716329 0.172933
H2    H     H_    0.118374 0.150082 0.568145 0.193794
C17   C     C_R   0.646576 0.488308 0.506376 -0.099299
C18   C     C_R   0.972647 0.347025 0.568019 0.070333
C19   C     C_R   0.976154 0.576213 0.590149 -0.103706
C20   C     C_R   0.948977 0.462271 0.581436 0.020474
C21   C     C_R   0.944147 0.235950 0.552624 -0.212972
C22   C     C_R   0.894047 0.238680 0.548239 -0.107555
C23   C     C_R   0.870604 0.351729 0.561077 0.004412
C24   C     C_R   0.897812 0.463925 0.582565 -0.094599
C25   C     C_R   0.873895 0.577706 0.600933 -0.170580
C26   C     C_R   0.822982 0.575861 0.586231 0.571612
N2    N     N_R   0.797912 0.466636 0.557979 -0.355205
C27   C     C_R   0.820338 0.355462 0.548416 0.512947
C28   C     C_R   0.715655 0.409274 0.630125 -0.077665
C29   C     C_R   0.665955 0.418185 0.614515 -0.253861
C30   C     C_R   0.677888 0.547771 0.411274 0.134010
C31   C     C_R   0.727787 0.536855 0.427055 -0.114065
C32   C     C_R   0.746672 0.469390 0.537181 0.255656
O10   O     O_2   0.794014 0.249358 0.523430 -0.542642
C33   C     C_R   0.023920 0.347184 0.566070 0.064202
C34   C     C_R   0.050136 0.462962 0.552254 0.074334
C35   C     C_R   0.025964 0.577337 0.557054 -0.002683
C36   C     C_R   0.049922 0.235627 0.574019 -0.223204
H3    H     H_    0.642543 0.371067 0.688220 0.168064
H4    H     H_    0.730151 0.357426 0.715701 0.160069
H5    H     H_    0.873734 0.151577 0.532026 0.212278
H6    H     H_    0.959540 0.146003 0.536593 0.162613
H7    H     H_    0.032685 0.145221 0.593914 0.157888
O11   O     O_2   0.203634 0.684306 0.477189 -0.517507
C37   C     C_R   0.101305 0.690595 0.495780 0.484832
H8    H     H_    0.345911 0.510724 0.282120 0.170682
C38   C     C_R   0.952535 0.684590 0.633376 0.379981
C39   C     C_R   0.901819 0.687292 0.633670 0.162337
O12   O     O_2   0.798226 0.681509 0.597714 -0.501542
C40   C     C_R   0.051687 0.688870 0.521197 -0.281418
H9    H     H_    0.752179 0.583866 0.355912 0.170361
H10   H     H_    0.033543 0.775954 0.506705 0.211219
C41   C     C_R   0.512129 0.110072 0.762855 -0.135084
H11   H     H_    0.533676 0.194924 0.779053 0.164441
C42   C     C_R   0.493679 0.048302 0.877856 -0.136222
H12   H     H_    0.498878 0.089011 0.977092 0.187175
C43   C     C_R   0.467176 0.936338 0.864115 -0.154302
H13   H     H_    0.450802 0.890929 0.952127 0.142875
C44   C     C_R   0.463414 0.880373 0.737437 -0.135446
H14   H     H_    0.442424 0.793332 0.730543 0.157105
C45   C     C_R   0.486366 0.936674 0.622520 0.098983
C46   C     C_R   0.504099 0.059963 0.631566 0.050728
C47   C     C_R   0.512241 0.127645 0.508225 -0.269530
C48   C     C_R   0.518246 0.064340 0.385494 0.456203
H15   H     H_    0.515379 0.889296 0.288773 0.189493
C49   C     C_R   0.509249 0.937479 0.382835 -0.278953
C50   C     C_R   0.493784 0.873323 0.499868 -0.207967
H16   H     H_    0.552705 0.645212 0.124744 0.181135
C51   C     C_R   0.435970 0.335944 0.141603 -0.105195
H17   H     H_    0.433491 0.330658 0.249144 0.203762
C52   C     C_R   0.404228 0.255873 0.071416 -0.198858
H18   H     H_    0.379416 0.193558 0.126464 0.156326
C53   C     C_R   0.404328 0.255703 0.931025 -0.225553
H19   H     H_    0.379732 0.192945 0.876529 0.153177
C54   C     C_R   0.436225 0.335460 0.860129 -0.164506
H20   H     H_    0.434475 0.328627 0.752645 0.213019
C55   C     C_R   0.468661 0.418505 0.927968 0.148304
C56   C     C_R   0.468626 0.418602 0.072943 0.159701
N3    N     N_R   0.499540 0.498800 0.142780 -0.130903
C57   C     C_R   0.529271 0.579519 0.071071 -0.117613
H21   H     H_    0.553413 0.643724 0.872899 0.169949
C58   C     C_R   0.529449 0.579106 0.927636 -0.106282
N4    N     N_R   0.499520 0.498720 0.857170 -0.130942
O13   O     O_3   0.248441 0.501699 0.259328 -0.610526
C59   C     C_3   0.263896 0.606206 0.179064 0.109920
H22   H     H_    0.293594 0.579249 0.111056 0.141555
H23   H     H_    0.276392 0.687484 0.241763 0.157229
C60   C     C_3   0.221740 0.648787 0.091393 -0.774274
H24   H     H_    0.191305 0.675040 0.156840 0.252986
H25   H     H_    0.233363 0.731441 0.028671 0.210946
H26   H     H_    0.209124 0.572548 0.023077 0.264794
O14   O     O_3   0.125204 0.803567 0.466094 -0.556303
C61   C     C_3   0.114072 0.840123 0.331270 0.093540
H27   H     H_    0.076571 0.874775 0.324406 0.127119
H28   H     H_    0.117750 0.761421 0.259323 0.123954
C62   C     C_3   0.148980 0.945938 0.287434 -0.726722
H29   H     H_    0.186797 0.913656 0.291664 0.272559
H30   H     H_    0.140411 0.975955 0.181782 0.189974
H31   H     H_    0.145744 0.027156 0.355427 0.265172
O15   O     O_3   0.978527 0.789261 0.678336 -0.611892
C63   C     C_3   0.995224 0.766304 0.812037 0.120492
H32   H     H_    0.019445 0.685040 0.816622 0.144645
H33   H     H_    0.964187 0.748342 0.881938 0.154275
C64   C     C_3   0.024037 0.881097 0.860821 -0.796757
H34   H     H_    0.000730 0.963865 0.859405 0.265341
H35   H     H_    0.037355 0.864619 0.966063 0.197770
H36   H     H_    0.055592 0.900332 0.793631 0.260866
I1    I     I_    0.654249 0.666097 0.250871 -0.376124
I2    I     I_    0.872615 0.862670 0.690979 -0.228515
O16   O     O_3   0.530342 0.125794 0.265250 -0.608161
C65   C     C_3   0.580836 0.151563 0.264844 0.125300
H37   H     H_    0.600832 0.062747 0.263410 0.155992
H38   H     H_    0.592739 0.206966 0.354909 0.134059
C66   C     C_3   0.593924 0.228119 0.138234 -0.767900
H39   H     H_    0.574519 0.317470 0.137338 0.268662
H40   H     H_    0.633543 0.249645 0.137203 0.219886
H41   H     H_    0.583747 0.174715 0.045862 0.234493
O17   O     O_3   0.252059 0.434230 0.742519 -0.608267
C67   C     C_3   0.272458 0.340025 0.825477 0.101463
H42   H     H_    0.301121 0.382291 0.892120 0.147583
H43   H     H_    0.287984 0.263685 0.765010 0.148849
C68   C     C_3   0.233202 0.280768 0.915244 -0.754031
H44   H     H_    0.203908 0.237850 0.851373 0.264072
H45   H     H_    0.248892 0.206890 0.981071 0.204555
H46   H     H_    0.217611 0.352542 0.980686 0.264349

loop_
_geom_bond_atom_site_label_1
_geom_bond_atom_site_label_2
_geom_bond_distance
_ccdc_geom_bond_type
C53   H19   1.082826 S    
N3    C57   1.364554 A    
H16   C57   1.079447 S    
C44   C45   1.418875 A    
N2    C27   1.362667 A    
H21   C58   1.081762 S    
C12   C15   1.413586 A    
C4    C17   1.459931 S    
C28   C29   1.385804 A    
C66   H39   1.110161 S    
O15   C63   1.412518 S    
C47   C48   1.408202 A    
Zn1   O7    2.006964 S    
C51   C56   1.410938 A    
C37   C40   1.394506 A    
N1    C11   1.426799 S    
C26   O12   1.345756 S    
C22   C23   1.397247 A    
C68   H46   1.109575 S    
O4    C2    1.294675 A    
C60   H25   1.110487 S    
O7    C4    1.291673 A    
C48   C49   1.370283 A    
C5    C13   1.396751 A    
O14   C61   1.413197 S    
C63   H32   1.113727 S    
O13   C59   1.415021 S    
C3    C50   1.431756 S    
C60   H26   1.109430 S    
C5    N1    1.364123 A    
C44   H14   1.081758 S    
C23   C27   1.394246 A    
C42   C43   1.388845 A    
O5    C3    1.282729 A    
C64   H34   1.110844 S    
C60   H24   1.109968 S    
C62   H29   1.110862 S    
C29   H3    1.083853 S    
C6    O11   1.349529 S    
C2    C16   1.461043 S    
C7    C8    1.402857 A    
O17   C67   1.415485 S    
C63   H33   1.114282 S    
C67   C68   1.520937 S    
C61   H27   1.112461 S    
C8    H8    1.082333 S    
C48   O16   1.384204 S    
C6    C15   1.405036 A    
C10   O17   1.391452 S    
C33   C36   1.412704 A    
O1    Zn1   1.999497 S    
C9    C10   1.399733 A    
C61   H28   1.115652 S    
C42   H12   1.082513 S    
O3    Zn1   1.999854 S    
C39   I2    2.149697 S    
C7    O13   1.390486 S    
C34   C35   1.413482 A    
C64   H35   1.110643 S    
C52   C53   1.383456 A    
C12   C34   1.414135 A    
C37   O14   1.384703 S    
C17   C29   1.405607 A    
Zn2   N3    2.011230 S    
C41   H11   1.080542 S    
C18   C21   1.411000 A    
C12   C13   1.409788 A    
C31   H9    1.083001 S    
C68   H45   1.110836 S    
C55   C56   1.428595 A    
C43   C44   1.393578 A    
C45   C50   1.413841 A    
C8    C16   1.401147 A    
C13   C14   1.397729 A    
C52   H18   1.082746 S    
C9    H1    1.081910 S    
C55   N4    1.375276 A    
O1    C1    1.280407 A    
C21   C22   1.384920 A    
C18   C20   1.421651 A    
C7    C11   1.404212 A    
C45   C46   1.393552 A    
C23   C24   1.410724 A    
C14   C36   1.387492 A    
C65   C66   1.521268 S    
C67   H42   1.112075 S    
C28   H4    1.083007 S    
C51   H17   1.063081 S    
Zn2   O8    1.999851 S    
C63   C64   1.520868 S    
C58   N4    1.364580 A    
N1    C6    1.365821 A    
N2    C32   1.428945 S    
C27   O10   1.350412 S    
C46   C47   1.420789 A    
C57   C58   1.413524 A    
C62   H31   1.110572 S    
O3    C2    1.293129 A    
C26   N2    1.367561 A    
C51   C52   1.390790 A    
C9    C16   1.400982 A    
O8    C4    1.295555 A    
C14   H2    1.083499 S    
C53   C54   1.390384 A    
C65   H37   1.114081 S    
C61   C62   1.521080 S    
C54   C55   1.410418 A    
C1    C47   1.442134 S    
C66   H41   1.110366 S    
C25   C26   1.411438 A    
C67   H43   1.116539 S    
Zn1   O5    1.988435 S    
C25   C39   1.419604 A    
C31   C32   1.400203 A    
Zn1   N4    2.010594 S    
C59   H23   1.116540 S    
C21   H6    1.078077 S    
C20   C24   1.413613 A    
Zn2   O6    1.999497 S    
O2    Zn2   1.988432 S    
C35   C40   1.408700 A    
C49   C50   1.395731 A    
O6    C3    1.290844 A    
C66   H40   1.110402 S    
O4    Zn2   2.006966 S    
C30   I1    2.121176 S    
C19   C35   1.416059 A    
C59   H22   1.111858 S    
O2    C1    1.297085 A    
C43   H13   1.082566 S    
C22   H5    1.083416 S    
C15   C37   1.409705 A    
C24   C25   1.417485 A    
C56   N3    1.376159 A    
C19   C20   1.411701 A    
C38   C39   1.401660 A    
C62   H30   1.110545 S    
C18   C33   1.416006 A    
C36   H7    1.078463 S    
H15   C49   1.084284 S    
C30   C31   1.393732 A    
C59   C60   1.521025 S    
C19   C38   1.420539 A    
C33   C34   1.417471 A    
C17   C30   1.410572 A    
C38   O15   1.384497 S    
C65   H38   1.114976 S    
C10   C11   1.403464 A    
C68   H44   1.111239 S    
C41   C46   1.420113 A    
C41   C42   1.394666 A    
C54   H20   1.063270 S    
C28   C32   1.394591 A    
C64   H36   1.111026 S    
C5    O9    1.350075 S    
C40   H10   1.078430 S    
O16   C65   1.412091 S    
