data_mof_unit_61442.cif
_audit_creation_date              2012-12-10T21:21:40-0500
_audit_creation_method            fapswitch 2.2
_symmetry_space_group_name_H-M    P1
_symmetry_Int_Tables_number       1
_space_group_crystal_system       triclinic
_cell_length_a                    17.527844
_cell_length_b                    16.730695
_cell_length_c                    23.417411
_cell_angle_alpha                 89.772024
_cell_angle_beta                  89.985059
_cell_angle_gamma                 90.056366
_cell_volume                      6867.16838418

loop_
_atom_site_label
_atom_site_type_symbol
_atom_type_description
_atom_site_fract_x
_atom_site_fract_y
_atom_site_fract_z
_atom_type_partial_charge
C1    C     C_R   0.353032 0.499972 0.500507 0.885932
C2    C     C_R   0.646948 0.500022 0.500879 0.884432
C3    C     C_R   0.546634 0.445217 0.239454 -0.084229
C4    C     C_R   0.453851 0.552936 0.760900 -0.083731
C5    C     C_R   0.545485 0.446550 0.298670 -0.242506
C6    C     C_R   0.454365 0.551952 0.701671 -0.243000
C7    C     C_R   0.497548 0.500096 0.327333 -0.091718
C8    C     C_R   0.503239 0.499831 0.672594 -0.089385
C9    C     C_R   0.449233 0.551655 0.296288 0.128097
C10   C     C_R   0.553234 0.449530 0.703164 0.127022
C11   C     C_R   0.450837 0.549821 0.236965 -0.109221
C12   C     C_R   0.552222 0.450935 0.762496 -0.108506
C13   C     C_R   0.499474 0.496995 0.208726 0.267498
C14   C     C_R   0.502562 0.502216 0.791205 0.266315
C15   C     C_R   0.847536 0.572786 0.517663 -0.145856
C16   C     C_R   0.152625 0.427527 0.519527 -0.146936
C17   C     C_R   0.152418 0.572694 0.516159 -0.148486
C18   C     C_R   0.846942 0.427646 0.521614 -0.141683
C19   C     C_R   0.769228 0.572792 0.509372 -0.187479
C20   C     C_R   0.230966 0.427290 0.511345 -0.187447
C21   C     C_R   0.230753 0.572699 0.507982 -0.177098
C22   C     C_R   0.768637 0.427411 0.513303 -0.170235
C23   C     C_R   0.729432 0.500039 0.506969 -0.036496
C24   C     C_R   0.270433 0.499942 0.505690 -0.036176
C25   C     C_R   0.885842 0.500275 0.523705 0.156593
C26   C     C_R   0.113951 0.500177 0.522092 0.156162
C27   C     C_R   0.498451 0.500151 0.389246 0.914451
C28   C     C_R   0.501621 0.499850 0.610730 0.912975
C29   C     C_1   0.966077 0.500197 0.526891 -0.049178
C30   C     C_1   0.033800 0.500170 0.526355 -0.049117
C31   C     C_R   0.440821 0.832487 0.474051 -0.249512
C32   C     C_R   0.558760 0.167524 0.526504 -0.250032
C33   C     C_R   0.559134 0.832255 0.526182 -0.254009
C34   C     C_R   0.441276 0.167742 0.473331 -0.254004
C35   C     C_R   0.441833 0.748258 0.474545 0.035405
C36   C     C_R   0.557748 0.251753 0.525991 0.035464
C37   C     C_R   0.558025 0.748001 0.525729 0.021258
C38   C     C_R   0.442374 0.251997 0.473783 0.019907
C39   C     C_R   0.500027 0.875605 0.500064 0.149932
C40   C     C_R   0.499974 0.124399 0.499969 0.150009
C41   C     C_1   0.500023 0.963427 0.500039 -0.028194
C42   C     C_1   0.499984 0.036577 0.500000 -0.028305
C43   C     C_R   0.562431 0.535767 0.880253 0.535197
C44   C     C_R   0.440001 0.462723 0.119715 0.535427
C45   C     C_R   0.441692 0.469274 0.879849 0.532888
C46   C     C_R   0.560900 0.528893 0.120124 0.533142
C47   C     C_R   0.440328 0.467408 0.939326 -0.045445
C48   C     C_R   0.562387 0.530528 0.060644 -0.045661
C49   C     C_R   0.501968 0.500145 0.969891 -0.046393
C50   C     C_R   0.500739 0.497801 0.030076 -0.046400
C51   C     C_R   0.564606 0.535093 0.940370 -0.080875
C52   C     C_R   0.438047 0.462953 0.059596 -0.081026
C53   C     C_R   0.378705 0.433063 0.968395 -0.184838
C54   C     C_R   0.624096 0.564693 0.031572 -0.184597
C55   C     C_R   0.376601 0.430368 0.027729 0.209259
C56   C     C_R   0.626170 0.567443 0.972236 0.209283
H1    H     H_    0.331275 0.407875 0.944874 0.211648
H2    H     H_    0.671582 0.589767 0.055094 0.211748
H3    H     H_    0.395773 0.715736 0.454588 0.152265
H4    H     H_    0.603466 0.284288 0.546368 0.150912
H5    H     H_    0.603737 0.715228 0.546129 0.131427
H6    H     H_    0.396974 0.284775 0.453000 0.132869
H7    H     H_    0.583959 0.404085 0.217364 0.151823
H8    H     H_    0.415747 0.592906 0.783332 0.152262
H9    H     H_    0.582588 0.406441 0.322179 0.165760
H10   H     H_    0.416036 0.591141 0.678475 0.164873
H11   H     H_    0.413837 0.588898 0.212553 0.166323
H12   H     H_    0.590423 0.412695 0.786541 0.167092
H13   H     H_    0.878290 0.629005 0.518593 0.140586
H14   H     H_    0.122193 0.371333 0.523375 0.141125
H15   H     H_    0.121821 0.628931 0.517375 0.140973
H16   H     H_    0.877224 0.371451 0.525637 0.140997
H17   H     H_    0.740013 0.629490 0.504870 0.156172
H18   H     H_    0.260524 0.370509 0.509831 0.157943
H19   H     H_    0.260128 0.629409 0.503744 0.159343
H20   H     H_    0.738942 0.370638 0.511996 0.159294
H21   H     H_    0.394060 0.863629 0.453536 0.152471
H22   H     H_    0.605190 0.136388 0.547441 0.152040
H23   H     H_    0.605809 0.863235 0.546827 0.148554
H24   H     H_    0.394926 0.136756 0.452289 0.149053
N1    N     N_R   0.502000 0.502869 0.851983 -0.357582
N2    N     N_R   0.500392 0.495695 0.147973 -0.357862
N3    N     N_R   0.500000 0.707230 0.500000 -0.094396
N4    N     N_R   0.500000 0.292770 0.500000 -0.094422
O1    O     O_R   0.389110 0.566570 0.500000 -0.626342
O2    O     O_R   0.610890 0.433430 0.500000 -0.626196
O3    O     O_R   0.610890 0.566570 0.500000 -0.629509
O4    O     O_R   0.389110 0.433430 0.500000 -0.630224
O5    O     O_R   0.499970 0.566560 0.416150 -0.588921
O6    O     O_R   0.500030 0.433440 0.583850 -0.590588
O7    O     O_R   0.500030 0.566560 0.583850 -0.620687
O8    O     O_R   0.499970 0.433440 0.416150 -0.620231
O9    O     O_2   0.619316 0.568976 0.849647 -0.504494
O10   O     O_2   0.382877 0.430005 0.150340 -0.504005
O11   O     O_2   0.383561 0.437189 0.849794 -0.543935
O12   O     O_2   0.619074 0.560859 0.150196 -0.543178
Zn1   Zn    Zn3+2 0.500000 0.588860 0.500000 0.971309
Zn2   Zn    Zn3+2 0.500000 0.411140 0.500000 0.970444
I1    I     I_    0.276174 0.375298 0.061384 -0.201650
I2    I     I_    0.726800 0.622091 0.938574 -0.202227
I3    I     I_    0.368053 0.628523 0.334987 -0.358233
I4    I     I_    0.635976 0.375395 0.663594 -0.363499

loop_
_geom_bond_atom_site_label_1
_geom_bond_atom_site_label_2
_ccdc_geom_bond_type
C41   C42   T    
C22   H20   S    
O8    Zn2   S    
C47   C49   A    
C15   C19   A    
C12   H12   S    
C33   C39   A    
C34   C40   A    
C17   C26   A    
C32   C36   A    
C44   N2    A    
C15   C25   A    
C7    C27   S    
C25   C29   S    
C35   H3    S    
C51   C56   A    
C45   C47   A    
C34   H24   S    
C46   N2    A    
C20   C24   A    
C49   C51   A    
C50   C52   A    
C27   O5    A    
C3    C13   A    
C52   C55   A    
C47   C53   A    
C44   C52   A    
C1    O4    A    
C40   C42   S    
C34   C38   A    
C18   H16   S    
C18   C25   A    
C11   H11   S    
C31   H21   S    
C46   C48   A    
C53   C55   A    
C16   C26   A    
C15   H13   S    
C54   C56   A    
C10   I4    S    
C16   H14   S    
C39   C41   S    
C4    C6    A    
C5    C7    A    
C35   N3    A    
C33   H23   S    
C6    C8    A    
C36   H4    S    
C13   N2    S    
C33   C37   A    
O5    Zn1   S    
C48   C54   A    
C19   C23   A    
C29   C30   T    
C19   H17   S    
C16   C20   A    
C20   H18   S    
C27   O8    A    
O7    Zn1   S    
C9    C11   A    
O1    Zn1   S    
C10   C12   A    
C5    H9    S    
C12   C14   A    
C26   C30   S    
C43   N1    A    
C31   C35   A    
C1    O1    A    
C56   I2    S    
C45   O11   S    
C54   H2    S    
C7    C9    A    
C4    H8    S    
C53   H1    S    
C38   N4    A    
C18   C22   A    
C8    C10   A    
C45   N1    A    
C3    C5    A    
C37   H5    S    
C17   H15   S    
C3    H7    S    
C21   H19   S    
N4    Zn2   S    
C11   C13   A    
C43   C51   A    
C36   N4    A    
C8    C28   S    
C48   C50   A    
C43   O9    S    
C31   C39   A    
C2    O2    A    
C28   O7    A    
C32   C40   A    
C4    C14   A    
O2    Zn2   S    
C17   C21   A    
C44   O10   S    
C32   H22   S    
C2    O3    A    
C6    H10   S    
C46   O12   S    
C1    C24   S    
C9    I3    S    
C49   C50   A    
N3    Zn1   S    
C21   C24   A    
C55   I1    S    
C2    C23   S    
C22   C23   A    
C37   N3    A    
C28   O6    A    
C14   N1    S    
C38   H6    S    
O6    Zn2   S    
O4    Zn2   S    
O3    Zn1   S    
