data_mof_unit_54079.cif
_audit_creation_date              2013-03-05T15:55:19-0500
_audit_creation_method            fapswitch 2.2
_symmetry_space_group_name_H-M    P1
_symmetry_Int_Tables_number       1
_space_group_crystal_system       triclinic
_cell_length_a                    27.651032
_cell_length_b                    10.724929
_cell_length_c                    10.030129
_cell_angle_alpha                 90.959125
_cell_angle_beta                  93.458308
_cell_angle_gamma                 93.732705
_cell_volume                      2962.13549483

loop_
_atom_site_label
_atom_site_type_symbol
_atom_site_description
_atom_site_fract_x
_atom_site_fract_y
_atom_site_fract_z
_atom_type_partial_charge
O1    O     O_R   0.500000 0.316780 0.614690 -0.681303
O2    O     O_R   0.500000 0.316750 0.385360 -0.568272
C1    C     C_R   0.506324 0.262540 0.500511 0.937661
O3    O     O_R   0.428760 0.500030 0.614650 -0.669727
O4    O     O_R   0.428750 0.500010 0.385320 -0.539484
C2    C     C_R   0.406377 0.501062 0.496569 0.945226
Zn1   Zn    Zn3+2 0.500000 0.500020 0.653130 1.011283
Zn2   Zn    Zn3+2 0.500000 0.499980 0.346870 1.089412
O5    O     O_R   0.500000 0.683250 0.614640 -0.609361
O6    O     O_R   0.500000 0.683220 0.385310 -0.608594
O7    O     O_R   0.571250 0.499990 0.614680 -0.560357
O8    O     O_R   0.571240 0.499970 0.385350 -0.588886
C3    C     C_R   0.497509 0.739851 0.501241 0.996754
C4    C     C_R   0.593688 0.502628 0.503576 1.012458
C5    C     C_R   0.172163 0.427009 0.376751 0.566040
O9    O     O_2   0.193119 0.387687 0.267009 -0.456393
N1    N     N_R   0.201018 0.470893 0.484896 -0.355058
C6    C     C_R   0.182145 0.516486 0.596906 0.534094
C7    C     C_R   0.276186 0.557981 0.396719 -0.145054
C8    C     C_R   0.326893 0.571193 0.401058 0.314995
C9    C     C_R   0.329481 0.410406 0.570640 -0.210220
C10   C     C_R   0.279213 0.399037 0.565693 -0.050356
C11   C     C_R   0.252538 0.473592 0.479882 0.222729
C12   C     C_R   0.101127 0.477738 0.492592 -0.084539
C13   C     C_R   0.121163 0.425604 0.379296 -0.156932
C14   C     C_R   0.089654 0.376747 0.272302 0.344694
C15   C     C_R   0.132054 0.521401 0.602672 -0.010462
C16   C     C_R   0.353614 0.496020 0.489289 -0.113719
H1    H     H_    0.349629 0.351577 0.637596 0.165703
C17   C     C_R   0.646565 0.516252 0.511760 -0.260784
C18   C     C_R   0.969206 0.468174 0.381963 0.019076
C19   C     C_R   0.979784 0.542154 0.616521 0.055294
C20   C     C_R   0.949314 0.510551 0.500087 0.085772
C21   C     C_R   0.938038 0.446107 0.266200 -0.265646
C22   C     C_R   0.888097 0.454488 0.267858 0.346848
C23   C     C_R   0.867626 0.492843 0.386277 -0.158502
C24   C     C_R   0.898463 0.521135 0.502166 -0.083931
C25   C     C_R   0.878391 0.559507 0.620976 -0.025426
C26   C     C_R   0.828255 0.567055 0.623558 0.558412
N2    N     N_R   0.799119 0.539324 0.511276 -0.349739
C27   C     C_R   0.817427 0.505913 0.393334 0.572244
C28   C     C_R   0.724048 0.440842 0.586321 -0.106726
C29   C     C_R   0.673535 0.428098 0.581707 0.269633
C30   C     C_R   0.670694 0.617244 0.447989 0.259025
C31   C     C_R   0.721318 0.625414 0.450897 -0.112427
C32   C     C_R   0.747737 0.537284 0.518928 0.158938
O10   O     O_2   0.786801 0.485341 0.284255 -0.447082
C33   C     C_R   0.019540 0.449456 0.382603 0.017017
C34   C     C_R   0.050293 0.487689 0.495819 0.083332
C35   C     C_R   0.030751 0.536660 0.612100 0.053844
C36   C     C_R   0.039970 0.390193 0.274645 -0.265332
H2    H     H_    0.745127 0.371511 0.635935 0.199247
H3    H     H_    0.951329 0.421825 0.171053 0.176898
H4    H     H_    0.017889 0.346941 0.192266 0.182458
O11   O     O_2   0.212036 0.559537 0.701414 -0.522382
C37   C     C_R   0.112674 0.571681 0.715297 -0.075924
C38   C     C_R   0.958062 0.577981 0.734058 -0.195687
C39   C     C_R   0.908447 0.587232 0.735627 -0.071132
O12   O     O_2   0.808561 0.601630 0.737339 -0.479316
C40   C     C_R   0.063095 0.579547 0.720096 -0.178622
H5    H     H_    0.893701 0.615992 0.828036 0.226021
H6    H     H_    0.051605 0.623147 0.809196 0.153992
C41   C     C_R   0.536215 0.127341 0.746833 -0.071195
H7    H     H_    0.557278 0.216018 0.749583 0.211043
C42   C     C_R   0.528164 0.070771 0.867315 -0.029462
H8    H     H_    0.543304 0.116718 0.958201 0.228389
C43   C     C_R   0.499304 0.959423 0.868808 -0.042400
H9    H     H_    0.489691 0.918622 0.962225 0.199644
C44   C     C_R   0.485086 0.895885 0.749118 -0.139139
C45   C     C_R   0.499590 0.944439 0.626383 0.084251
C46   C     C_R   0.517799 0.069125 0.625495 0.051782
C47   C     C_R   0.516688 0.131363 0.502939 -0.180822
C48   C     C_R   0.515866 0.062108 0.383208 0.352993
C49   C     C_R   0.506536 0.934644 0.385286 -0.165702
C50   C     C_R   0.497774 0.874744 0.504776 -0.142533
H10   H     H_    0.547687 0.656404 0.140782 0.213341
C51   C     C_R   0.441135 0.308332 0.116520 0.390685
C52   C     C_R   0.423573 0.205653 0.035490 -0.075459
H11   H     H_    0.401848 0.129603 0.076775 0.203418
C53   C     C_R   0.423999 0.211464 0.899072 -0.289105
H12   H     H_    0.404862 0.138606 0.836586 0.185788
C54   C     C_R   0.444669 0.316525 0.842650 -0.125322
H13   H     H_    0.437032 0.323448 0.738216 0.217794
C55   C     C_R   0.472678 0.408461 0.919865 0.077887
C56   C     C_R   0.471742 0.407408 0.063672 0.033991
N3    N     N_R   0.499540 0.498800 0.142780 -0.143339
C57   C     C_R   0.526128 0.586903 0.079589 -0.103827
C58   C     C_R   0.526628 0.588872 0.937715 0.295318
N4    N     N_R   0.499520 0.498720 0.857170 -0.168422
H14   H     H_    0.254889 0.617007 0.332933 0.186983
H15   H     H_    0.135879 0.606675 0.800490 0.206400
H16   H     H_    0.978128 0.597254 0.828222 0.155691
N5    N     N_R   0.644540 0.712522 0.381762 0.222586
O13   O     O_R   0.661177 0.765136 0.276312 -0.300747
O14   O     O_R   0.608292 0.759658 0.437086 -0.377592
H17   H     H_    0.740452 0.700443 0.400489 0.199690
N6    N     N_R   0.525375 0.118342 0.258750 0.217813
O15   O     O_R   0.500911 0.075615 0.151626 -0.490211
O16   O     O_R   0.563493 0.194604 0.248469 -0.325435
H18   H     H_    0.260862 0.333851 0.630167 0.170691
H19   H     H_    0.462572 0.810237 0.754773 0.166336
H20   H     H_    0.507309 0.882386 0.292099 0.212618
N7    N     N_R   0.411033 0.327814 0.223219 0.210147
O17   O     O_R   0.407378 0.242866 0.313995 -0.414677
O18   O     O_R   0.373582 0.392824 0.196650 -0.362129
N8    N     N_R   0.556354 0.688890 0.883421 0.208903
O19   O     O_R   0.579146 0.672195 0.776466 -0.295677
O20   O     O_R   0.570119 0.787205 0.957401 -0.370194
N9    N     N_R   0.106685 0.308002 0.162501 0.250482
O21   O     O_R   0.092958 0.334992 0.040579 -0.367442
O22   O     O_R   0.126899 0.203446 0.184502 -0.305391
N10   N     N_R   0.650293 0.319836 0.638386 0.207582
O23   O     O_R   0.666895 0.279422 0.752732 -0.315496
O24   O     O_R   0.619778 0.247632 0.563889 -0.402911
N11   N     N_R   0.858979 0.418344 0.148698 0.256725
O25   O     O_R   0.867809 0.472602 0.036923 -0.366653
O26   O     O_R   0.832062 0.314069 0.145556 -0.279069
N12   N     N_R   0.350232 0.664260 0.320630 0.227482
O27   O     O_R   0.330036 0.692340 0.205419 -0.325035
O28   O     O_R   0.387729 0.733398 0.369618 -0.422793

loop_
_geom_bond_atom_site_label_1
_geom_bond_atom_site_label_2
_geom_bond_distance
_ccdc_geom_bond_type
C57   C58   1.424414 A    
C41   C42   1.384710 A    
N5    O13   1.301394 A    
C38   H16   1.076072 S    
C48   C49   1.375306 A    
C7    C8    1.397990 A    
C12   C15   1.409364 A    
C15   C37   1.394378 A    
N10   O24   1.299786 A    
N6    O15   1.295190 A    
C51   C52   1.400664 A    
Zn1   O7    2.030249 S    
N1    C11   1.426944 S    
C23   C24   1.416045 A    
N9    O22   1.301375 A    
O4    C2    1.308318 A    
O7    C4    1.307589 A    
C52   C53   1.371473 A    
C5    C13   1.411088 A    
N8    O19   1.292240 A    
N11   O25   1.300586 A    
Zn1   N4    2.047665 S    
C40   H6    1.076051 S    
C21   C22   1.390743 A    
C28   C32   1.394427 A    
O5    C3    1.298477 A    
N12   O27   1.301391 A    
C30   N5    1.438546 S    
C25   C39   1.393774 A    
C33   C36   1.411784 A    
C2    C16   1.453821 S    
C3    C50   1.446095 S    
N11   O26   1.301246 A    
C18   C20   1.416342 A    
C22   N11   1.433439 S    
C45   C46   1.398254 A    
C28   C29   1.392411 A    
C49   H20   1.083813 S    
C39   H5    1.083001 S    
C51   C56   1.442992 A    
N5    O14   1.300675 A    
C9    C10   1.385178 A    
C17   C30   1.417056 A    
C23   C27   1.410050 A    
C19   C38   1.413702 A    
C4    C17   1.457077 S    
O3    Zn1   1.984346 S    
C8    N12   1.438556 S    
N10   O23   1.301160 A    
N6    O16   1.301627 A    
Zn1   O5    2.009024 S    
C37   H15   1.083733 S    
C10   H18   1.083034 S    
C49   C50   1.395828 A    
C43   H9    1.081062 S    
C12   C13   1.416304 A    
C53   C54   1.375888 A    
C26   N2    1.361603 A    
C52   H11   1.084027 S    
C53   H12   1.083119 S    
C8    C16   1.414796 A    
C42   C43   1.393233 A    
C13   C14   1.412171 A    
C56   N3    1.408335 A    
C9    H1    1.083656 S    
C54   H13   1.060797 S    
C20   C24   1.419366 A    
C37   C40   1.382642 A    
O1    C1    1.302157 A    
C22   C23   1.412598 A    
C7    C11   1.398759 A    
C24   C25   1.410883 A    
C58   N8    1.442770 S    
H10   C57   1.081830 S    
Zn2   O8    1.984342 S    
C26   O12   1.350398 S    
N1    C6    1.363523 A    
C27   O10   1.348558 S    
C18   C21   1.410850 A    
N7    O18   1.302503 A    
C55   C56   1.444417 A    
C14   N9    1.434863 S    
C19   C35   1.417669 A    
C6    O11   1.350808 S    
O3    C2    1.303372 A    
C33   C34   1.415379 A    
C9    C16   1.401843 A    
C41   C46   1.410219 A    
C48   N6    1.426665 S    
C54   C55   1.405166 A    
C18   C33   1.418692 A    
C17   C29   1.411793 A    
C51   N7    1.415757 S    
C55   N4    1.366199 A    
N2    C32   1.426210 S    
N7    O17   1.302355 A    
C30   C31   1.395331 A    
N3    C57   1.349402 A    
C12   C34   1.418826 A    
C5    N1    1.365389 A    
N2    C27   1.365945 A    
O1    Zn1   1.996357 S    
O2    Zn2   2.009021 S    
C6    C15   1.394136 A    
O8    C4    1.303861 A    
C47   C48   1.399658 A    
O6    C3    1.310425 A    
O4    Zn2   2.030252 S    
C44   H19   1.079856 S    
C36   H4    1.077086 S    
C35   C40   1.413395 A    
C19   C20   1.421083 A    
C1    C47   1.454235 S    
C46   C47   1.408239 A    
C7    H14   1.083279 S    
N9    O21   1.301340 A    
C38   C39   1.382903 A    
C25   C26   1.395702 A    
N8    O20   1.301830 A    
O2    C1    1.309176 A    
Zn2   N3    2.046143 S    
C42   H8    1.077575 S    
C44   C45   1.414682 A    
N12   O28   1.300968 A    
C41   H7    1.081450 S    
C31   C32   1.394284 A    
C58   N4    1.398504 A    
C21   H3    1.077084 S    
Zn2   O6    1.996357 S    
C34   C35   1.421480 A    
C29   N10   1.432971 S    
C45   C50   1.416395 A    
C10   C11   1.395504 A    
C43   C44   1.393170 A    
C14   C36   1.392235 A    
C31   H17   1.083299 S    
C5    O9    1.348498 S    
C28   H2    1.083549 S    
