data_mof_unit_7082.cif
_audit_creation_date              2012-12-11T17:16:48-0500
_audit_creation_method            fapswitch 2.2
_symmetry_space_group_name_H-M    P1
_symmetry_Int_Tables_number       1
_space_group_crystal_system       triclinic
_cell_length_a                    8.89402
_cell_length_b                    16.780921
_cell_length_c                    18.717826
_cell_angle_alpha                 97.826325
_cell_angle_beta                  93.499322
_cell_angle_gamma                 94.655438
_cell_volume                      2751.11888005

loop_
_atom_site_label
_atom_site_type_symbol
_atom_type_description
_atom_site_fract_x
_atom_site_fract_y
_atom_site_fract_z
_atom_type_partial_charge
Ba1   Ba    Ba6+2 0.843980 0.537940 0.465850 1.956173
Ba2   Ba    Ba6+2 0.345840 0.462130 0.534150 1.877738
C1    C     C_3   0.559307 0.842723 0.264920 -0.163746
C2    C     C_3   0.353147 0.610504 0.264824 -0.082839
C3    C     C_2   0.311724 0.590265 0.184789 0.015602
C4    C     C_3   0.098178 0.794542 0.294205 0.742995
C5    C     C_2   0.183707 0.544271 0.159114 0.062301
C6    C     C_2   0.087758 0.505392 0.212028 -0.060158
C7    C     C_1   0.138486 0.506646 0.282614 0.050741
C8    C     C_R   0.040888 0.526383 0.936052 0.514475
C9    C     C_R   0.134506 0.539161 0.079829 0.521697
C10   C     C_R   0.081187 0.534870 0.804069 -0.108957
C11   C     C_R   0.028806 0.527980 0.730446 -0.000391
C12   C     C_3   0.577351 0.778305 0.314033 0.335158
C13   C     C_R   0.783247 0.471251 0.759314 -0.058323
C14   C     C_R   0.833426 0.478938 0.833671 -0.128934
C15   C     C_R   0.984463 0.512472 0.857102 -0.014367
C16   C     C_3   0.126344 0.882239 0.278513 -0.278745
C17   C     C_R   0.879655 0.498631 0.710234 -0.187803
C18   C     C_R   0.380704 0.737011 0.492167 -0.212629
C19   C     C_R   0.532750 0.758551 0.512821 -0.011900
C20   C     C_R   0.591858 0.838958 0.514827 -0.099182
C21   C     C_R   0.497962 0.896652 0.493361 0.311214
C22   C     C_R   0.349158 0.869591 0.463219 -0.139403
C23   C     C_3   0.424127 0.314271 0.299946 0.720095
C24   C     C_R   0.293012 0.788097 0.458968 -0.035776
C25   C     C_R   0.636380 0.136520 0.467465 0.332640
C26   C     C_R   0.666946 0.223420 0.480149 -0.102791
C27   C     C_R   0.725035 0.086216 0.506153 0.178086
C28   C     C_3   0.299383 0.712376 0.696075 0.710653
C29   C     C_R   0.804430 0.253472 0.521811 -0.263332
C30   C     C_R   0.911340 0.202618 0.545965 0.061662
C31   C     C_R   0.868574 0.118139 0.540193 0.313602
C32   C     C_3   0.335556 0.704677 0.775990 -0.327189
C33   C     C_3   0.001856 0.252219 0.293793 0.747301
C34   C     C_3   0.358418 0.249625 0.238027 -0.211208
C35   C     C_3   0.982939 0.190833 0.213117 -0.070689
C36   C     C_3   0.735482 0.656285 0.681158 0.331664
C37   C     C_3   0.767955 0.686685 0.761948 0.273528
C38   C     C_2   0.025298 0.240485 0.153541 0.419231
C39   C     C_2   0.820376 0.156604 0.187924 0.786133
C40   C     C_2   0.468644 0.205077 0.193760 0.765757
C41   C     C_2   0.500002 0.805515 0.189985 0.694547
C42   C     C_2   0.298491 0.344054 0.855278 0.515353
C43   C     C_2   0.758834 0.266973 0.717849 0.467889
C44   C     C_2   0.496899 0.222334 0.672074 0.512038
C45   C     C_3   0.169136 0.299729 0.729362 0.372620
C46   C     C_2   0.603011 0.116646 0.777234 0.625086
C47   C     C_2   0.939322 0.463729 0.182321 0.458894
C48   C     C_2   0.726803 0.450649 0.884952 0.573540
C49   C     C_2   0.328373 0.555206 0.383055 0.525050
C50   C     C_2   0.838875 0.339721 0.544720 0.501423
C51   C     C_2   0.167917 0.890985 0.202865 0.602027
C52   C     C_3   0.212242 0.276309 0.804453 0.208609
C53   C     C_3   0.598513 0.259395 0.738357 0.104249
C54   C     C_3   0.598341 0.205986 0.800901 -0.227652
C55   C     C_2   0.260604 0.557986 0.310532 -0.154101
H1    H     H_    0.645092 0.806029 0.364328 0.064948
H2    H     H_    0.463732 0.757664 0.329738 -0.264592
H3    H     H_    0.477923 0.884047 0.287608 0.098552
H4    H     H_    0.336093 0.336508 0.334575 0.019655
H5    H     H_    0.286300 0.206227 0.259988 0.155899
H6    H     H_    0.288932 0.277909 0.199897 0.034171
H7    H     H_    0.217999 0.912876 0.317607 0.048008
H8    H     H_    0.269970 0.332625 0.711152 0.020549
H9    H     H_    0.077412 0.340589 0.732727 -0.001357
H10   H     H_    0.282757 0.225665 0.794952 0.075047
H11   H     H_    0.502161 0.215579 0.834417 0.113297
H12   H     H_    0.374484 0.644795 0.781806 0.052517
H13   H     H_    0.697019 0.226239 0.840004 0.153595
H14   H     H_    0.379599 0.620150 0.148198 0.066630
H15   H     H_    0.195412 0.560005 0.820737 0.109829
H16   H     H_    0.835944 0.499708 0.655339 0.089139
H17   H     H_    0.274307 0.911811 0.446084 0.133706
H18   H     H_    0.705730 0.857106 0.537973 0.171739
H19   H     H_    0.209027 0.769682 0.302195 -0.216560
H20   H     H_    0.327198 0.683682 0.509037 0.043902
H21   H     H_    0.023086 0.914152 0.288074 0.166226
H22   H     H_    0.385725 0.686226 0.662271 -0.031498
H23   H     H_    0.428921 0.750125 0.800159 0.159405
H24   H     H_    0.823436 0.331850 0.224807 0.300003
H25   H     H_    0.263949 0.173764 0.422037 0.415148
H26   H     H_    0.055595 0.304698 0.165029 0.066574
H27   H     H_    0.757069 0.181220 0.145915 -0.028248
H28   H     H_    0.260005 0.057121 0.263981 0.411702
H29   H     H_    0.916334 0.782597 0.890710 0.334785
H30   H     H_    0.575459 0.421894 0.152000 0.382144
H31   H     H_    0.527786 0.233078 0.153759 0.056467
H32   H     H_    0.394147 0.767645 0.182076 -0.029412
H33   H     H_    0.361406 0.330728 0.903085 0.065819
H34   H     H_    0.234333 0.713951 0.807001 0.145506
H35   H     H_    0.925699 0.123067 0.835661 0.372135
H36   H     H_    0.832043 0.320708 0.736798 0.053313
H37   H     H_    0.504281 0.248363 0.622400 -0.006357
H38   H     H_    0.692755 0.094331 0.745600 0.099184
H39   H     H_    0.042410 0.718440 0.106744 0.369831
H40   H     H_    0.838875 0.473965 0.209842 0.127493
H41   H     H_    0.608671 0.461826 0.879324 0.047226
H42   H     H_    0.289578 0.591533 0.427530 -0.062764
H43   H     H_    0.282781 0.030042 0.385519 0.377935
H44   H     H_    0.227941 0.030855 0.570504 0.378440
H45   H     H_    0.844932 0.648878 0.656628 0.022059
H46   H     H_    0.878844 0.380301 0.508536 0.099670
H47   H     H_    0.087180 0.870429 0.157059 0.120579
H48   H     H_    0.205778 0.888865 0.612077 0.378755
H49   H     H_    0.665406 0.597564 0.674792 -0.082755
H50   H     H_    0.669948 0.878159 0.263182 0.179635
H51   H     H_    0.846225 0.648211 0.786293 -0.105362
H52   H     H_    0.661592 0.682622 0.789707 -0.007278
N1    N     N_R   0.185893 0.515271 0.957481 -0.182476
N2    N     N_R   0.231797 0.521645 0.027663 -0.223115
N3    N     N_R   0.991843 0.554015 0.058452 -0.161367
N4    N     N_R   0.946444 0.547978 0.988449 -0.211134
N5    N     N_2   0.544327 0.981578 0.505147 -0.129279
N6    N     N_2   0.682740 0.000567 0.502010 -0.125662
O1    O     O_2   0.875590 0.454550 0.328720 -0.412703
O2    O     O_2   0.234462 0.214104 0.553485 -0.407252
O3    O     O_3   0.126874 0.228972 0.680348 -0.500687
O4    O     O_3   0.127960 0.455900 0.416100 -0.470911
O5    O     O_3   0.560420 0.597610 0.535760 -0.494063
O6    O     O_2   0.379340 0.302240 0.465940 -0.454118
O7    O     O_3   0.534606 0.282282 0.342068 -0.510383
O8    O     O_2   0.478265 0.477488 0.750069 -0.447740
O9    O     O_3   0.546109 0.334564 0.766763 -0.664740
O10   O     O_3   0.634460 0.601950 0.371690 -0.419791
O11   O     O_2   0.646569 0.566696 0.230598 -0.402247
O12   O     O_3   0.654973 0.711830 0.649246 -0.584486
O13   O     O_3   0.083552 0.330770 0.291101 -0.738593
O14   O     O_3   0.656380 0.717077 0.278738 -0.516365
O15   O     O_2   0.810360 0.697790 0.534100 -0.425285
O16   O     O_3   0.049190 0.643760 0.407000 -0.495104
O17   O     O_2   0.001995 0.780609 0.487461 -0.372944
O18   O     O_2   0.744351 0.191031 0.329449 -0.227480
O19   O     O_2   0.826527 0.327919 0.384317 -0.337541
O20   O     O_3   0.742366 0.303398 0.247673 -0.548118
O21   O     O_2   0.068468 0.276209 0.435826 -0.352110
O22   O     O_2   0.977454 0.137048 0.384524 -0.239794
O23   O     O_3   0.010960 0.795774 0.354998 -0.585547
O24   O     O_3   0.248115 0.189069 0.373429 -0.512869
O25   O     O_2   0.020880 0.209536 0.090285 -0.420638
O26   O     O_2   0.759526 0.099432 0.212701 -0.383352
O27   O     O_2   0.976671 0.025514 0.164659 -0.205342
O28   O     O_2   0.200709 0.105877 0.146629 -0.228431
O29   O     O_3   0.157623 0.071059 0.275287 -0.461618
O30   O     O_2   0.933615 0.808873 0.714569 -0.154217
O31   O     O_2   0.730695 0.845356 0.791957 -0.192820
O32   O     O_3   0.975467 0.800316 0.851620 -0.451320
O33   O     O_2   0.362813 0.434169 0.231186 -0.443498
O34   O     O_2   0.314110 0.545480 0.671320 -0.489121
O35   O     O_2   0.599407 0.450640 0.307896 -0.202031
O36   O     O_3   0.578632 0.373254 0.176479 -0.524960
O37   O     O_2   0.481199 0.133868 0.196837 -0.438331
O38   O     O_2   0.569236 0.818107 0.137728 -0.460956
O39   O     O_2   0.297962 0.413933 0.844318 -0.579568
O40   O     O_2   0.114802 0.218365 0.921355 -0.216632
O41   O     O_2   0.949538 0.303248 0.862531 -0.307592
O42   O     O_3   0.968660 0.155510 0.800121 -0.432602
O43   O     O_2   0.811307 0.209380 0.684818 -0.604214
O44   O     O_2   0.408102 0.162995 0.672440 -0.524997
O45   O     O_3   0.061730 0.544170 0.583900 -0.483430
O46   O     O_2   0.505086 0.068421 0.793450 -0.435926
O47   O     O_2   0.937865 0.653327 0.242842 -0.280280
O48   O     O_2   0.861526 0.773702 0.194428 -0.274705
O49   O     O_3   0.105976 0.714341 0.151182 -0.617368
O50   O     O_2   0.927369 0.418403 0.125054 -0.539602
O51   O     O_2   0.767969 0.412138 0.932231 -0.474236
O52   O     O_2   0.411331 0.503537 0.394576 -0.503968
O53   O     O_2   0.480646 0.131395 0.336060 -0.217243
O54   O     O_2   0.588535 0.011167 0.361827 -0.260141
O55   O     O_3   0.352608 0.050874 0.428013 -0.530217
O56   O     O_3   0.555240 0.398120 0.628310 -0.473506
O57   O     O_2   0.015146 0.074628 0.657163 -0.158984
O58   O     O_2   0.932003 0.964649 0.561184 -0.265308
O59   O     O_3   0.160418 0.059636 0.540860 -0.458785
O60   O     O_2   0.837244 0.364926 0.608243 -0.691706
O61   O     O_2   0.288793 0.925408 0.192224 -0.520962
O62   O     O_2   0.253013 0.865018 0.753050 -0.151586
O63   O     O_2   0.465712 0.848539 0.676817 -0.275471
O64   O     O_3   0.193632 0.830144 0.614570 -0.477698
O65   O     O_3   0.154114 0.675986 0.670172 -0.616344
O66   O     O_3   0.629280 0.402460 0.464250 -0.420341
O67   O     O_3   0.140510 0.356300 0.593010 -0.491220
P1    P     P_3+3 0.048660 0.430750 0.339650 1.111529
P2    P     P_3+3 0.638170 0.686040 0.555200 1.049263
P3    P     P_3+3 0.095660 0.750151 0.424528 1.043231
P4    P     P_3+3 0.141040 0.569320 0.660360 0.968457
P5    P     P_3+3 0.101679 0.251123 0.591492 1.196854
P6    P     P_3+3 0.568092 0.622559 0.286572 1.129006
P7    P     P_3+3 0.545780 0.300326 0.438816 1.198429
P8    P     P_3+3 0.595068 0.419440 0.723039 0.946979
S1    S     S_3+6 0.824070 0.269097 0.317195 -0.056354
S2    S     S_3+6 0.306122 0.817604 0.686717 0.020101
S3    S     S_3+6 0.072605 0.211668 0.372473 -0.015049
S4    S     S_3+6 0.081558 0.097204 0.199102 0.018817
S5    S     S_3+6 0.851775 0.788767 0.778599 0.046968
S6    S     S_3+6 0.496125 0.395049 0.254615 -0.072578
S7    S     S_3+6 0.056539 0.239104 0.849649 -0.020456
S8    S     S_3+6 0.993723 0.731799 0.219600 -0.081210
S9    S     S_3+6 0.514035 0.083077 0.394857 -0.011624
S10   S     S_3+6 0.992397 0.051885 0.576639 0.028112

loop_
_geom_bond_atom_site_label_1
_geom_bond_atom_site_label_2
_ccdc_geom_bond_type
O36   S6    S    
C19   P2    S    
C53   C54   S    
C50   H46   S    
C36   H49   S    
O53   S9    D    
C25   C27   A    
C8    N1    A    
C49   O52   D    
O41   S7    D    
O45   P4    S    
C29   C50   S    
C43   H36   S    
H29   O32   S    
O9    P8    S    
N5    N6    D    
Ba1   P1    S    
C5    C6    S    
C13   C17   A    
C12   H2    S    
C1    C41   S    
C41   H32   S    
C52   S7    S    
C18   H20   S    
O10   P6    S    
C2    C55   S    
C46   H38   S    
Ba1   O10   S    
C35   C38   S    
H43   O55   S    
O6    P7    D    
C36   C37   S    
C24   P3    S    
C6    C47   S    
O29   S4    S    
C8    C15   S    
C13   C14   A    
O1    P1    D    
C27   C31   A    
Ba1   Ba2   S    
Ba1   O4    S    
C32   H34   S    
N3    N4    A    
C16   C51   S    
C32   H23   S    
N1    N2    A    
O66   P7    S    
O33   S6    D    
C45   O3    S    
O64   S2    S    
O48   S8    D    
C14   C15   A    
C44   C53   S    
C48   O51   D    
C21   C22   A    
O32   S5    S    
C49   C55   S    
Ba1   O1    S    
C28   S2    S    
C34   H6    S    
C40   O37   D    
C23   O7    S    
C45   H9    S    
O42   S7    S    
O40   S7    D    
Ba2   O56   S    
O54   S9    D    
C1    H3    S    
Ba2   O34   S    
C10   H15   S    
O34   P4    D    
O62   S2    D    
H30   O36   S    
C19   C20   A    
C26   P7    S    
O58   S10   D    
O12   P2    S    
C38   H26   S    
H44   O59   S    
O13   P1    S    
C20   H18   S    
H48   O64   S    
C34   H5    S    
H28   O29   S    
O55   S9    S    
Ba1   P2    S    
O49   S8    S    
H24   O20   S    
C26   C29   A    
C49   H42   S    
C37   H51   S    
C4    C16   S    
O22   S3    D    
C48   H41   S    
C28   C32   S    
C9    N2    A    
Ba2   O67   S    
C17   H16   S    
O23   P3    S    
C25   S9    S    
Ba1   O15   S    
O2    P5    D    
C3    C5    D    
Ba1   O66   S    
C6    C7    D    
C11   C17   A    
O4    P1    S    
C46   O46   D    
C31   S10   S    
C1    H50   S    
C54   H11   S    
O28   S4    D    
C37   S5    S    
H39   O49   S    
O56   P8    S    
H35   O42   S    
Ba1   O5    S    
O19   S1    D    
C4    O23   S    
C5    C9    S    
Ba2   P4    S    
C39   O26   D    
H25   O24   S    
C7    P1    S    
O63   S2    D    
C29   C30   A    
C44   H37   S    
C16   H21   S    
O35   S6    D    
O27   S4    D    
C23   H4    S    
C18   C19   A    
O8    P8    D    
O5    P2    S    
C50   O60   D    
O20   S1    S    
C23   S6    S    
O65   P4    S    
C45   C52   S    
C28   H22   S    
O16   P3    S    
Ba2   O45   S    
C13   P8    S    
C47   O50   D    
C51   O61   D    
C54   H13   S    
O14   P6    S    
C40   H31   S    
C42   H33   S    
O18   S1    D    
O7    P7    S    
C4    S8    S    
Ba2   O66   S    
Ba2   O6    S    
C46   C54   S    
C53   O9    S    
C33   S1    S    
C11   P4    S    
C30   P5    S    
C33   C35   S    
C9    N3    A    
C32   H12   S    
Ba1   O45   S    
C43   O43   D    
C22   C24   A    
C2    C3    S    
Ba1   O16   S    
C34   C40   S    
O3    P5    S    
C22   H17   S    
C4    H19   S    
C52   H10   S    
C1    C12   S    
O47   S8    D    
O59   S10   S    
C42   O39   D    
C30   C31   A    
C2    P6    S    
O11   P6    D    
O21   S3    D    
C3    H14   S    
O15   P2    D    
C35   S4    S    
C21   N5    S    
C39   H27   S    
C16   H7    S    
C18   C24   A    
C36   O12   S    
C44   O44   D    
C38   O25   D    
Ba2   O4    S    
C27   N6    S    
O57   S10   D    
C7    C55   D    
O67   P5    S    
C35   C39   S    
C33   O13   S    
C14   C48   S    
O30   S5    D    
C33   S3    S    
C23   C34   S    
C47   H40   S    
C42   C52   S    
C10   C15   A    
C37   H52   S    
C10   C11   A    
C43   C53   S    
C36   H45   S    
O17   P3    D    
C25   C26   A    
C28   O65   S    
C20   C21   A    
C51   H47   S    
Ba2   O5    S    
O31   S5    D    
C41   O38   D    
C8    N4    A    
C45   H8    S    
O24   S3    S    
C12   H1    S    
C12   O14   S    
