data_mof_unit_23261.cif
_audit_creation_date              2013-03-05T15:57:57-0500
_audit_creation_method            fapswitch 2.2
_symmetry_space_group_name_H-M    P1
_symmetry_Int_Tables_number       1
_space_group_crystal_system       triclinic
_cell_length_a                    15.094017
_cell_length_b                    15.238119
_cell_length_c                    17.266167
_cell_angle_alpha                 108.772906
_cell_angle_beta                  105.740363
_cell_angle_gamma                 109.986293
_cell_volume                      3192.72843875

loop_
_atom_site_label
_atom_site_type_symbol
_atom_site_description
_atom_site_fract_x
_atom_site_fract_y
_atom_site_fract_z
_atom_type_partial_charge
C1    C     C_R   0.083780 0.285190 0.071272 -0.130585
C2    C     C_R   0.910645 0.722885 0.968181 -0.139781
N1    N     N_R   0.055660 0.348550 0.045620 -0.043190
N2    N     N_R   0.944340 0.651450 0.954380 -0.042894
C3    C     C_R   0.936995 0.523970 0.751678 0.019578
C4    C     C_R   0.061000 0.518329 0.262991 0.048813
N3    N     N_R   0.960830 0.507850 0.823700 -0.054453
N4    N     N_R   0.039170 0.492150 0.176300 -0.053585
C5    C     C_R   0.780937 0.204891 0.814470 -0.135316
C6    C     C_R   0.275210 0.789799 0.181361 -0.182606
N5    N     N_R   0.811290 0.303410 0.871650 -0.040546
N6    N     N_R   0.188710 0.696590 0.128350 -0.040433
C7    C     C_R   0.262925 0.538262 0.953587 -0.133897
C8    C     C_R   0.702295 0.411337 0.002990 -0.163001
H1    H     H_    0.287577 0.579928 0.916896 0.102845
H2    H     H_    0.673160 0.355133 0.027042 0.098475
N7    N     N_R   0.205200 0.552990 0.997670 -0.042307
N8    N     N_R   0.794800 0.447010 0.002330 -0.036511
C9    C     C_R   0.785367 0.297735 0.737101 -0.123658
C10   C     C_R   0.268797 0.692923 0.254324 -0.088888
H3    H     H_    0.778035 0.321048 0.684190 0.104935
H4    H     H_    0.297162 0.657900 0.293693 0.113339
N9    N     N_R   0.814800 0.361830 0.823700 -0.045866
N10   N     N_R   0.185200 0.638170 0.176300 -0.044300
C11   C     C_R   0.249947 0.438813 0.026611 -0.113581
C12   C     C_R   0.707600 0.506162 0.926805 -0.123146
N11   N     N_R   0.201680 0.494570 0.045620 -0.042949
N12   N     N_R   0.798320 0.505430 0.954380 -0.041479
C13   C     C_R   0.109933 0.603453 0.825282 -0.166951
C14   C     C_R   0.886766 0.437792 0.184383 -0.137189
N13   N     N_R   0.068420 0.560530 0.871650 -0.043768
N14   N     N_R   0.931580 0.439470 0.128350 -0.049240
C15   C     C_R   0.911619 0.199766 0.990220 -0.154547
C16   C     C_R   0.081778 0.802480 0.056878 -0.106006
H5    H     H_    0.830122 0.146946 0.963116 0.115498
H6    H     H_    0.159686 0.858777 0.107146 0.122595
N15   N     N_R   0.948070 0.295860 0.997670 -0.040259
N16   N     N_R   0.051930 0.704140 0.002330 -0.041921
C17   C     C_R   0.995266 0.189255 0.033032 0.099789
C18   C     C_R   0.997334 0.819437 0.032890 0.053676
C19   C     C_R   0.028515 0.582466 0.750518 0.067938
C20   C     C_R   0.966441 0.487495 0.269718 0.033156
C21   C     C_R   0.766249 0.198590 0.729701 0.072960
C22   C     C_R   0.324088 0.790920 0.262514 0.068278
C23   C     C_R   0.292317 0.467968 0.972291 0.051486
C24   C     C_R   0.647216 0.447319 0.956393 0.062048
C25   C     C_R   0.923329 0.940666 0.057638 -0.023479
C26   C     C_R   0.078787 0.078359 0.030976 -0.027763
C27   C     C_R   0.006105 0.922153 0.049388 -0.001580
C28   C     C_R   0.994324 0.095137 0.036395 0.001458
C29   C     C_R   0.087973 0.995188 0.041807 -0.023159
C30   C     C_R   0.914072 0.023846 0.046264 -0.021443
C31   C     C_R   0.729931 0.958652 0.942997 -0.221159
C32   C     C_R   0.275756 0.055948 0.132605 -0.215757
Ni1   Ni    Ni4+2 0.119340 0.493420 0.109960 0.210895
Ni2   Ni    Ni4+2 0.880660 0.506580 0.890040 0.207358
Ni3   Ni    Ni4+2 0.872590 0.372590 0.000000 0.213522
Ni4   Ni    Ni4+2 0.127410 0.627410 0.000000 0.212553
C33   C     C_R   0.614325 0.008411 0.997819 -0.145381
C34   C     C_R   0.373978 0.982748 0.069368 -0.168046
C35   C     C_R   0.506656 0.676182 0.272067 -0.169206
C36   C     C_R   0.477754 0.249615 0.659558 -0.109306
C37   C     C_R   0.493687 0.633361 0.182161 0.066820
C38   C     C_R   0.467869 0.277313 0.741228 0.050915
C39   C     C_R   0.470873 0.527602 0.137674 0.111527
C40   C     C_R   0.470126 0.375027 0.784176 0.083737
C41   C     C_R   0.461291 0.466497 0.183950 -0.216348
C42   C     C_R   0.479081 0.441143 0.742623 -0.189375
C43   C     C_R   0.471677 0.509297 0.272633 -0.105407
C44   C     C_R   0.488819 0.412431 0.661153 -0.113640
C45   C     C_R   0.494526 0.614132 0.316719 -0.113373
C46   C     C_R   0.488804 0.317144 0.619985 -0.134817
C47   C     C_R   0.545995 0.469090 0.036609 -0.245783
C48   C     C_R   0.381394 0.421659 0.880785 -0.255590
H7    H     H_    0.612016 0.491598 0.097475 0.139651
H8    H     H_    0.316395 0.402755 0.821015 0.137452
C49   C     C_R   0.549502 0.437713 0.953073 0.057784
C50   C     C_R   0.379947 0.456715 0.965644 0.075724
C51   C     C_R   0.466883 0.411070 0.873536 0.017545
C52   C     C_R   0.463001 0.481343 0.044596 0.032052
C53   C     C_R   0.631428 0.952887 0.925916 0.103403
C54   C     C_R   0.369420 0.051959 0.143141 0.100458
C55   C     C_R   0.952003 0.493850 0.349235 0.099015
C56   C     C_R   0.032877 0.591651 0.671664 0.111832
C57   C     C_R   0.085930 0.686016 0.590431 -0.278186
C58   C     C_R   0.888385 0.407444 0.431357 -0.285192
C59   C     C_R   0.093329 0.685755 0.672789 0.032091
C60   C     C_R   0.885880 0.403285 0.349779 0.044731
C61   C     C_R   0.967835 0.499653 0.591276 -0.306161
C62   C     C_R   0.013276 0.589690 0.427538 -0.318604
C63   C     C_R   0.957212 0.500266 0.510636 0.186145
C64   C     C_R   0.018020 0.593248 0.509448 0.181017
C65   C     C_R   0.718740 0.100395 0.646214 0.108259
C66   C     C_R   0.424401 0.870819 0.338379 0.098525
C67   C     C_R   0.595908 0.017445 0.399162 -0.233560
C68   C     C_R   0.575255 0.926216 0.571410 -0.243651
C69   C     C_R   0.499908 0.942879 0.326446 -0.237836
C70   C     C_R   0.661750 0.007035 0.647704 -0.197519
C71   C     C_R   0.446882 0.870255 0.422748 -0.067222
C72   C     C_R   0.707938 0.100197 0.562418 -0.058622
C73   C     C_R   0.547395 0.936126 0.491876 0.126730
C74   C     C_R   0.619373 0.017187 0.483614 0.130464
H9    H     H_    0.673974 0.999801 0.709396 0.119024
H10   H     H_    0.484509 0.942498 0.261349 0.125614
H11   H     H_    0.538687 0.004663 0.986119 0.101845
H12   H     H_    0.444995 0.977028 0.076646 0.102771
C75   C     C_R   0.694811 0.068520 0.085412 -0.142785
C76   C     C_R   0.286463 0.920027 0.985886 -0.136975
C77   C     C_R   0.793891 0.076192 0.101849 -0.131117
C78   C     C_R   0.193374 0.925149 0.975207 -0.145178
H13   H     H_    0.855836 0.122366 0.169822 0.108112
H14   H     H_    0.125604 0.875438 0.910591 0.123771
C79   C     C_R   0.812134 0.022301 0.030433 0.130471
C80   C     C_R   0.186930 0.991475 0.049293 0.100510
H15   H     H_    0.160451 0.309393 0.120500 0.096591
H16   H     H_    0.832760 0.707216 0.929522 0.095453
H17   H     H_    0.743122 0.914868 0.887902 0.120007
H18   H     H_    0.271614 0.108389 0.189689 0.119729
H19   H     H_    0.503777 0.647669 0.385802 0.109341
H20   H     H_    0.496745 0.295275 0.557031 0.110503
H21   H     H_    0.527374 0.757949 0.307617 0.132659
H22   H     H_    0.476682 0.175344 0.626520 0.118959
N17   N     N_3   0.505590 0.697511 0.136798 -0.216915
H23   H     H_    0.580249 0.762022 0.174657 0.105125
H24   H     H_    0.451554 0.725925 0.136685 0.109214
N18   N     N_3   0.452602 0.203860 0.777538 -0.225026
H25   H     H_    0.384793 0.189427 0.787590 0.105328
H26   H     H_    0.515594 0.237245 0.840121 0.109943
H27   H     H_    0.444803 0.385396 0.150853 0.121080
H28   H     H_    0.480842 0.516064 0.774470 0.121040
H29   H     H_    0.463009 0.461423 0.307486 0.109797
H30   H     H_    0.497003 0.464440 0.630161 0.111506
H31   H     H_    0.062144 0.659142 0.425054 0.143521
H32   H     H_    0.924389 0.426352 0.591529 0.131628
N19   N     N_3   0.821843 0.305596 0.269026 -0.220266
H33   H     H_    0.841759 0.249963 0.280017 0.096985
H34   H     H_    0.744402 0.282292 0.259458 0.095263
N20   N     N_3   0.159809 0.780085 0.756132 -0.228404
H35   H     H_    0.235785 0.807098 0.761081 0.092660
H36   H     H_    0.136548 0.836569 0.753017 0.107023
H37   H     H_    0.132851 0.757627 0.589821 0.130648
H38   H     H_    0.840383 0.336935 0.432979 0.122667
N21   N     N_3   0.839567 0.520287 0.707571 -0.213358
H39   H     H_    0.798939 0.455591 0.643420 0.088290
H40   H     H_    0.794996 0.507140 0.743553 0.108253
N22   N     N_3   0.161178 0.549737 0.329905 -0.227008
H41   H     H_    0.154433 0.544007 0.386861 0.108676
H42   H     H_    0.185057 0.494822 0.302980 0.090000
N23   N     N_3   0.549625 0.889434 0.835655 -0.220302
H43   H     H_    0.480563 0.891043 0.834465 0.089219
H44   H     H_    0.571185 0.923816 0.795730 0.090021
N24   N     N_3   0.458880 0.118729 0.228940 -0.222899
H45   H     H_    0.522523 0.107203 0.225814 0.082768
H46   H     H_    0.441197 0.095659 0.276016 0.105946
N25   N     N_3   0.783124 0.185911 0.559339 -0.222198
H47   H     H_    0.745182 0.221589 0.531083 0.084468
H48   H     H_    0.815233 0.155817 0.517621 0.108515
N26   N     N_3   0.364596 0.810666 0.440470 -0.216267
H49   H     H_    0.362148 0.861282 0.496623 0.113832
H50   H     H_    0.379169 0.753627 0.454043 0.089802
H51   H     H_    0.650254 0.075435 0.388847 0.124827
H52   H     H_    0.526820 0.860189 0.577719 0.127367
H53   H     H_    0.679531 0.108232 0.140431 0.108153
H54   H     H_    0.291000 0.866820 0.929849 0.116165
H55   H     H_    0.770661 0.142399 0.832615 0.092706
H56   H     H_    0.307240 0.846658 0.158875 0.111345
H57   H     H_    0.260817 0.387932 0.055349 0.105962
H58   H     H_    0.684766 0.539301 0.883044 0.100986
H59   H     H_    0.191906 0.654433 0.848394 0.104140
H60   H     H_    0.803773 0.399343 0.164635 0.112672
N27   N     N_3   0.848416 0.876784 0.079209 -0.206352
H61   H     H_    0.791460 0.808296 0.020608 0.108493
H62   H     H_    0.885892 0.857683 0.126769 0.116826
N28   N     N_3   0.151022 0.141695 0.006838 -0.213476
H63   H     H_    0.150042 0.092913 0.947614 0.117184
H64   H     H_    0.226260 0.180652 0.058948 0.106064

loop_
_geom_bond_atom_site_label_1
_geom_bond_atom_site_label_2
_geom_bond_distance
_ccdc_geom_bond_type
C40   C42   1.404560 A    
N27   H61   1.042646 S    
C37   C39   1.409293 A    
C73   C74   1.416537 A    
N25   H48   1.045344 S    
C75   C77   1.399872 A    
C8    N8    1.318702 A    
C2    N2    1.333262 A    
C56   C59   1.402577 A    
C36   H22   1.083262 S    
N12   Ni2   1.877716 S    
N19   H33   1.044918 S    
C25   C27   1.404465 A    
C30   C79   1.478386 S    
C11   H57   1.079201 S    
N10   Ni1   1.850024 S    
C40   C51   1.482740 S    
N27   H62   1.045655 S    
C12   H58   1.080719 S    
C33   H11   1.081831 S    
C48   H8    1.084757 S    
C16   C18   1.367675 A    
N3    Ni2   1.878028 S    
N13   Ni4   1.896849 S    
C35   H21   1.079011 S    
C9    H3    1.074223 S    
C58   C63   1.389758 A    
N23   H44   1.045573 S    
C4    N22   1.432429 S    
C31   H17   1.083886 S    
N17   H24   1.045851 S    
C70   H9    1.078733 S    
N21   H40   1.045687 S    
C58   C60   1.378928 A    
C31   C53   1.400498 A    
N5    N9    1.395224 A    
C43   C45   1.395932 A    
C54   N24   1.434760 S    
N28   H63   1.045693 S    
C14   H60   1.080168 S    
C36   C38   1.401066 A    
C16   H6    1.072141 S    
C77   H13   1.081722 S    
C21   C65   1.465771 S    
N16   Ni4   1.889945 S    
C34   C54   1.404288 A    
C26   C29   1.385300 A    
C10   N10   1.318249 A    
C31   C79   1.406399 A    
C39   C41   1.405651 A    
C68   C70   1.371158 A    
C28   C30   1.417057 A    
C23   C50   1.420160 S    
C61   C63   1.361126 A    
C3    N21   1.433235 S    
C78   C80   1.403509 A    
N22   H42   1.045443 S    
C34   C76   1.397599 A    
C67   C74   1.405746 A    
C77   C79   1.399182 A    
N7    Ni4   1.890176 S    
N6    Ni4   1.896214 S    
C35   C45   1.396194 A    
C26   C28   1.404126 A    
C55   C60   1.404496 A    
C39   C52   1.484505 S    
C68   C73   1.396071 A    
N2    Ni2   1.850133 S    
N26   H50   1.045269 S    
C25   N27   1.440237 S    
C47   H7    1.086877 S    
C41   H27   1.083419 S    
C2    H16   1.079078 S    
N14   Ni3   1.896847 S    
N4    Ni1   1.878031 S    
C44   H30   1.082402 S    
C10   C22   1.376418 A    
C57   C64   1.401339 A    
C9    C21   1.392767 A    
C26   N28   1.442241 S    
C49   C51   1.404217 A    
C5    C21   1.385470 A    
C29   C80   1.486157 S    
N3    N13   1.385179 A    
C57   C59   1.397278 A    
C6    C22   1.386752 A    
N7    N11   1.395220 A    
N17   H23   1.045478 S    
N8    N12   1.395222 A    
C8    C24   1.368115 A    
C57   H37   1.084240 S    
C63   C64   1.410785 A    
C3    N3    1.323051 A    
C62   H31   1.085675 S    
C12   C24   1.372782 A    
C4    N4    1.329066 A    
C66   C69   1.401656 A    
C27   C29   1.422717 A    
C19   C56   1.429205 S    
C33   C75   1.397509 A    
C1    N1    1.327352 A    
N4    N14   1.385181 A    
C9    N9    1.337925 A    
C14   N14   1.324150 A    
C76   H54   1.080371 S    
N8    Ni3   1.890176 S    
C62   C64   1.378872 A    
C43   H29   1.082342 S    
C46   H20   1.082491 S    
C72   C74   1.409920 A    
C36   C46   1.396645 A    
N28   H64   1.045292 S    
C15   C17   1.369014 A    
C42   H28   1.083394 S    
C5    N5    1.329964 A    
C65   C72   1.410255 A    
N9    Ni2   1.850023 S    
C6    N6    1.344246 A    
C68   H52   1.081480 S    
C72   N25   1.435565 S    
C71   C73   1.392581 A    
C75   H53   1.079859 S    
C38   N18   1.432711 S    
C48   C51   1.386973 A    
C7    H1    1.080823 S    
C48   C50   1.397927 A    
N26   H49   1.045881 S    
C8    H2    1.081610 S    
C56   C61   1.386755 A    
C10   H4    1.077956 S    
C59   N20   1.429360 S    
C32   H18   1.083778 S    
C11   C23   1.373103 A    
C32   C54   1.400660 A    
C34   H12   1.081776 S    
C58   H38   1.085523 S    
C15   N15   1.324035 A    
N22   H41   1.043370 S    
N19   H34   1.045663 S    
C55   C62   1.394103 A    
C3    C19   1.374038 A    
N18   H26   1.043339 S    
C61   H32   1.087044 S    
C13   C19   1.372524 A    
N1    Ni1   1.850134 S    
C16   N16   1.317363 A    
C35   C37   1.403449 A    
C20   C55   1.425854 S    
C33   C53   1.403900 A    
C60   N19   1.429535 S    
N24   H46   1.045460 S    
C24   C49   1.414621 S    
C37   N17   1.431918 S    
C67   C69   1.391514 A    
C25   C30   1.389641 A    
N20   H36   1.045529 S    
C7    N7    1.331316 A    
C6    H56   1.080351 S    
C11   N11   1.316729 A    
N6    N10   1.395224 A    
N11   Ni1   1.877714 S    
C12   N12   1.327405 A    
C45   H19   1.082566 S    
C13   H59   1.081280 S    
C67   H51   1.081906 S    
C13   N13   1.338078 A    
N5    Ni3   1.896216 S    
N23   H43   1.045873 S    
C7    C23   1.385007 A    
C18   C27   1.448941 S    
C66   C71   1.406808 A    
N18   H25   1.045538 S    
C53   N23   1.434656 S    
C32   C80   1.405551 A    
C5    H55   1.070716 S    
C15   H5    1.071649 S    
C47   C52   1.363914 A    
C76   C78   1.399280 A    
C50   C52   1.411596 A    
C78   H14   1.082616 S    
C69   H10   1.081913 S    
C22   C66   1.458768 S    
N20   H35   1.045626 S    
C1    C17   1.386728 A    
C2    C18   1.399241 A    
C17   C28   1.449334 S    
N24   H45   1.045913 S    
N1    N15   1.385177 A    
C42   C44   1.397069 A    
C4    C20   1.392130 A    
C71   N26   1.440437 S    
N25   H47   1.045725 S    
C47   C49   1.388023 A    
C14   C20   1.374243 A    
C44   C46   1.396045 A    
C1    H15   1.081918 S    
C41   C43   1.397026 A    
N2    N16   1.385178 A    
C65   C70   1.401238 A    
N15   Ni3   1.889944 S    
N21   H39   1.044125 S    
C38   C40   1.417415 A    
