data_mof_unit_48161.cif
_audit_creation_date              2012-12-10T18:14:35-0500
_audit_creation_method            fapswitch 2.2
_symmetry_space_group_name_H-M    P1
_symmetry_Int_Tables_number       1
_space_group_crystal_system       triclinic
_cell_length_a                    10.721925
_cell_length_b                    9.56252
_cell_length_c                    27.722071
_cell_angle_alpha                 90.854877
_cell_angle_beta                  93.692274
_cell_angle_gamma                 89.503752
_cell_volume                      2836.0058384

loop_
_atom_site_label
_atom_site_type_symbol
_atom_type_description
_atom_site_fract_x
_atom_site_fract_y
_atom_site_fract_z
_atom_type_partial_charge
C1    C     C_R   0.260036 0.500350 0.498056 0.753766
C2    C     C_R   0.530857 0.617223 0.279842 -0.103387
C3    C     C_R   0.502032 0.494348 0.253415 0.349776
C4    C     C_R   0.507974 0.500320 0.101421 -0.048820
C5    C     C_R   0.422816 0.585399 0.125196 -0.016649
C6    C     C_R   0.341265 0.673331 0.098114 -0.148340
C7    C     C_R   0.587210 0.408412 0.128462 -0.018613
C8    C     C_R   0.500771 0.497121 0.354636 -0.039878
C9    C     C_R   0.506956 0.497990 0.644892 -0.076194
C10   C     C_R   0.421699 0.579450 0.971930 0.053783
C11   C     C_R   0.620022 0.445183 0.977472 0.021714
C12   C     C_R   0.499825 0.499093 0.407652 0.794009
C13   C     C_R   0.520713 0.509896 0.949355 0.035880
C14   C     C_R   0.322084 0.636473 0.942450 -0.208666
C15   C     C_R   0.321782 0.629189 0.892362 -0.147902
C16   C     C_R   0.420818 0.565233 0.869860 -0.011558
C17   C     C_R   0.520857 0.506255 0.898281 -0.051946
C18   C     C_R   0.620971 0.443675 0.875527 -0.060371
C19   C     C_R   0.617207 0.436403 0.824813 0.609716
C20   C     C_R   0.422495 0.559482 0.819318 0.546092
C21   C     C_R   0.425074 0.419512 0.718875 -0.181112
C22   C     C_R   0.419066 0.422104 0.668612 -0.235768
C23   C     C_R   0.739374 0.499713 0.498034 0.732346
C24   C     C_R   0.605151 0.564596 0.671540 -0.370107
C25   C     C_R   0.612461 0.562949 0.722476 0.564595
C26   C     C_R   0.519485 0.492006 0.745954 0.273110
C27   C     C_R   0.424849 0.588204 0.023097 0.043543
C28   C     C_R   0.513012 0.505841 0.050524 0.064944
C29   C     C_R   0.604609 0.426336 0.027422 0.036319
C30   C     C_R   0.341503 0.674205 0.047942 -0.216834
C31   C     C_R   0.665336 0.316791 0.104350 -0.151920
C32   C     C_R   0.731059 0.406704 0.954190 0.134416
C33   C     C_R   0.725893 0.397450 0.903556 -0.191379
C34   C     C_R   0.500291 0.500255 0.592167 0.802280
C35   C     C_R   0.671013 0.323184 0.054433 -0.201424
C36   C     C_3   0.080257 0.544124 0.547279 -0.369000
C37   C     C_3   0.070197 0.352880 0.483524 -0.379877
C38   C     C_3   0.936944 0.539533 0.547636 -0.403397
C39   C     C_3   0.927080 0.354861 0.480364 -0.375716
C40   C     C_3   0.064549 0.605608 0.458996 -0.380908
C41   C     C_3   0.121805 0.500893 0.496811 0.165827
C42   C     C_3   0.877656 0.500090 0.496705 0.180263
C43   C     C_3   0.920421 0.609011 0.460244 -0.370573
C44   C     C_3   0.614900 0.085686 0.530099 0.124670
C45   C     C_3   0.613873 0.916617 0.529330 0.132417
C46   C     C_3   0.387909 0.084405 0.522205 -0.211891
C47   C     C_3   0.386646 0.918860 0.521183 -0.183118
C48   C     C_3   0.502778 0.080927 0.451555 -0.258485
C49   C     C_3   0.502688 0.915078 0.451496 -0.256547
C50   C     C_R   0.421305 0.580375 0.175709 0.531956
C51   C     C_R   0.583521 0.407575 0.178960 0.533836
C52   C     C_R   0.472900 0.372656 0.277790 -0.099172
C53   C     C_R   0.472962 0.373713 0.328101 -0.231607
C54   C     C_R   0.529578 0.618938 0.330061 -0.231218
Cu1   Cu    Cu3+1 0.499860 0.642410 0.500020 0.893653
Cu2   Cu    Cu3+1 0.499860 0.357590 0.500020 0.900324
H1    H     H_    0.552167 0.715260 0.349618 0.146917
H2    H     H_    0.449757 0.277396 0.257698 0.148526
H3    H     H_    0.720731 0.238105 0.123821 0.185807
H4    H     H_    0.674699 0.618380 0.652449 0.144542
H5    H     H_    0.807631 0.361524 0.885767 0.180575
H6    H     H_    0.721484 0.240989 0.037027 0.144411
H7    H     H_    0.113150 0.651702 0.556908 0.161128
H8    H     H_    0.103937 0.316475 0.448281 0.158720
H9    H     H_    0.122686 0.472495 0.575206 0.147484
H10   H     H_    0.104045 0.276502 0.511448 0.162540
H11   H     H_    0.911800 0.462646 0.574727 0.158086
H12   H     H_    0.894119 0.269309 0.502560 0.162574
H13   H     H_    0.554337 0.711521 0.261380 0.146615
H14   H     H_    0.901279 0.643345 0.559457 0.146195
H15   H     H_    0.891500 0.332019 0.442469 0.161227
H16   H     H_    0.101379 0.712657 0.466646 0.161825
H17   H     H_    0.091040 0.574184 0.422194 0.158838
H18   H     H_    0.889874 0.716029 0.470890 0.163752
H19   H     H_    0.876885 0.586351 0.423453 0.153997
H20   H     H_    0.698087 0.114620 0.510464 0.110486
H21   H     H_    0.695748 0.887166 0.508337 0.066717
H22   H     H_    0.380173 0.123658 0.559739 0.132926
H23   H     H_    0.373020 0.877446 0.557464 0.162281
H24   H     H_    0.420468 0.118809 0.428787 0.157721
H25   H     H_    0.420449 0.877209 0.428584 0.162418
H26   H     H_    0.586710 0.117723 0.434001 0.146729
H27   H     H_    0.586443 0.875356 0.433759 0.143745
H28   H     H_    0.302067 0.121892 0.501605 0.144763
H29   H     H_    0.302245 0.884463 0.498832 0.132180
H30   H     H_    0.275919 0.741292 0.115565 0.185294
H31   H     H_    0.344706 0.366951 0.648200 0.140659
H32   H     H_    0.355135 0.362721 0.736973 0.164250
H33   H     H_    0.243052 0.673908 0.871308 0.183252
H34   H     H_    0.240816 0.683758 0.957124 0.138644
H35   H     H_    0.277298 0.746064 0.029566 0.140646
H36   H     H_    0.449972 0.278498 0.346134 0.146792
N1    N     N_R   0.502081 0.493698 0.201590 -0.466000
N2    N     N_R   0.519497 0.495133 0.797806 -0.447936
N3    N     N_3   0.500250 0.143650 0.501060 -0.131420
N4    N     N_3   0.500250 0.856350 0.501060 -0.124455
O1    O     O_R   0.317570 0.620260 0.500030 -0.592376
O2    O     O_R   0.317570 0.379740 0.500030 -0.595742
O3    O     O_R   0.499900 0.620250 0.430280 -0.590494
O4    O     O_R   0.499900 0.379750 0.430280 -0.589740
O5    O     O_R   0.682190 0.620260 0.500010 -0.611728
O6    O     O_R   0.682190 0.379740 0.500010 -0.575037
O7    O     O_R   0.499860 0.620280 0.569750 -0.579277
O8    O     O_R   0.499860 0.379720 0.569750 -0.572675
O9    O     O_2   0.339054 0.660634 0.198773 -0.546423
O10   O     O_2   0.328538 0.618986 0.791860 -0.551989
O11   O     O_2   0.661962 0.322930 0.205269 -0.547842
O12   O     O_2   0.710246 0.370881 0.802653 -0.546376
C55   C     C_3   0.861469 0.401489 0.979909 -0.395641
C56   C     C_3   0.893384 0.537935 0.007220 -0.791118
H37   H     H_    0.880816 0.628103 0.982516 0.250101
H38   H     H_    0.833647 0.553644 0.038076 0.261132
H39   H     H_    0.992412 0.534564 0.021667 0.238305
H40   H     H_    0.876564 0.311512 0.004012 0.193817
H41   H     H_    0.933645 0.386671 0.953175 0.198319
O13   O     O_3   0.700902 0.639096 0.750601 -0.570304
C57   C     C_3   0.821026 0.626979 0.732776 -0.259572
H42   H     H_    0.831945 0.703419 0.703593 0.144063
H43   H     H_    0.842221 0.518629 0.720176 0.163347
H44   H     H_    0.891297 0.653224 0.762583 0.203935
C58   C     C_3   0.643629 0.151749 0.583123 -0.283556
C59   C     C_3   0.748171 0.259331 0.591627 -0.835345
H45   H     H_    0.832297 0.224916 0.573565 0.216841
H46   H     H_    0.719918 0.366289 0.582275 0.267095
H47   H     H_    0.776340 0.267662 0.630953 0.217364
H48   H     H_    0.559404 0.178693 0.602063 0.210401
H49   H     H_    0.686210 0.077078 0.608124 0.197854
C60   C     C_3   0.651673 0.845386 0.579094 -0.300213
C61   C     C_3   0.565137 0.871002 0.621642 -0.813813
H50   H     H_    0.505077 0.964490 0.617150 0.211090
H51   H     H_    0.498848 0.787209 0.627545 0.271150
H52   H     H_    0.623602 0.883377 0.655980 0.237295
H53   H     H_    0.677229 0.734907 0.575282 0.223930
H54   H     H_    0.747467 0.880944 0.590773 0.112913

loop_
_geom_bond_atom_site_label_1
_geom_bond_atom_site_label_2
_ccdc_geom_bond_type
C10   C27   A    
C26   N2    S    
Cu2   N3    S    
C21   C26   A    
C38   H14   S    
C48   N3    S    
C39   H12   S    
C47   H23   S    
Cu1   Cu2   S    
C60   C61   S    
O13   C57   S    
C23   C42   S    
C47   H29   S    
C28   C29   A    
Cu1   O5    S    
C38   C42   S    
C57   H43   S    
C5    C6    A    
C9    C22   A    
C23   O6    A    
C45   C60   S    
C31   H3    S    
C15   C16   A    
Cu1   O7    S    
C44   C58   S    
C40   H17   S    
C18   C19   A    
C49   H25   S    
C44   H20   S    
C56   H37   S    
C14   H34   S    
C12   O3    A    
C40   C43   S    
C46   N3    S    
C16   C17   A    
C50   O9    S    
C47   N4    S    
C30   H35   S    
Cu2   O2    S    
C36   H7    S    
C55   C56   S    
C16   C20   A    
C61   H52   S    
C19   O12   S    
C43   H18   S    
C21   H32   S    
C21   C22   A    
C27   C30   A    
C36   C41   S    
C4    C7    A    
C4    C28   A    
C39   C42   S    
C20   O10   S    
C43   H19   S    
C7    C31   A    
C32   C55   S    
C24   C25   A    
Cu2   O8    S    
C10   C14   A    
C57   H44   S    
C1    O1    A    
C46   H22   S    
C36   H9    S    
C4    C5    A    
C25   C26   A    
C9    C24   A    
C34   O8    A    
C1    O2    A    
C60   H54   S    
C15   H33   S    
C8    C12   S    
C37   H10   S    
Cu1   O1    S    
C53   H36   S    
C17   C18   A    
C3    N1    S    
C22   H31   S    
C56   H39   S    
C58   C59   S    
C19   N2    A    
C52   H2    S    
C55   H40   S    
C51   N1    A    
C46   H28   S    
C1    C41   S    
C40   C41   S    
C6    C30   A    
C11   C32   A    
C2    C54   A    
C9    C34   S    
C31   C35   A    
C5    C50   A    
C25   O13   S    
C42   C43   S    
Cu2   O4    S    
C8    C54   A    
C2    H13   S    
C37   H8    S    
C44   C45   S    
C61   H50   S    
C20   N2    A    
C46   C47   S    
C48   C49   S    
C40   H16   S    
Cu1   N4    S    
C10   C13   A    
C8    C53   A    
C3    C52   A    
C50   N1    A    
C58   H49   S    
C29   C35   A    
C34   O7    A    
C6    H30   S    
C13   C17   A    
C32   C33   A    
C49   H27   S    
C59   H47   S    
C36   C38   S    
C2    C3    A    
C7    C51   A    
C58   H48   S    
C37   C39   S    
C44   N3    S    
C57   H42   S    
C11   C13   A    
C48   H24   S    
C23   O5    A    
C33   H5    S    
C48   H26   S    
C35   H6    S    
C49   N4    S    
C37   C41   S    
C18   C33   A    
C56   H38   S    
C12   O4    A    
C55   H41   S    
Cu2   O6    S    
C38   H11   S    
C11   C29   A    
C51   O11   S    
Cu1   O3    S    
C27   C28   A    
C39   H15   S    
C14   C15   A    
C45   H21   S    
C24   H4    S    
C59   H45   S    
C60   H53   S    
C45   N4    S    
C59   H46   S    
C52   C53   A    
C61   H51   S    
C54   H1    S    
