data_mof_unit_8912.cif
_audit_creation_date              2012-12-11T14:36:02-0500
_audit_creation_method            fapswitch 2.2
_symmetry_space_group_name_H-M    P1
_symmetry_Int_Tables_number       1
_space_group_crystal_system       triclinic
_cell_length_a                    13.503356
_cell_length_b                    13.494443
_cell_length_c                    27.490558
_cell_angle_alpha                 90.989985
_cell_angle_beta                  90.225143
_cell_angle_gamma                 60.015674
_cell_volume                      4338.18628806

loop_
_atom_site_label
_atom_site_type_symbol
_atom_type_description
_atom_site_fract_x
_atom_site_fract_y
_atom_site_fract_z
_atom_type_partial_charge
C1    C     C_R   0.620258 0.101593 0.570122 0.543417
C2    C     C_1   0.631253 0.732001 0.616113 0.038349
C3    C     C_3   0.654388 0.581682 0.769500 -0.166957
C4    C     C_3   0.680844 0.653996 0.805966 0.021947
C5    C     C_3   0.566967 0.693192 0.744243 0.114267
C6    C     C_3   0.661982 0.683657 0.710380 -0.017859
C7    C     C_3   0.594496 0.763248 0.780514 0.231113
C8    C     C_3   0.688515 0.756507 0.746537 -0.107439
C9    C     C_1   0.688506 0.634075 0.858361 0.042571
C10   C     C_1   0.649061 0.704753 0.658078 0.015812
C11   C     C_3   0.064448 0.181086 0.736231 -0.126808
C12   C     C_R   0.599726 0.779493 0.568638 0.549493
C13   C     C_3   0.135010 0.084028 0.772077 0.087946
C14   C     C_1   0.095863 0.201261 0.901683 0.037822
C15   C     C_1   0.228824 0.139334 0.617369 0.009239
C16   C     C_3   0.074110 0.267002 0.771471 -0.126582
C17   C     C_3   0.144592 0.168895 0.806791 0.031045
C18   C     C_3   0.186487 0.242761 0.746102 -0.103321
C19   C     C_3   0.176688 0.156882 0.711741 0.020425
C20   C     C_3   0.256562 0.144840 0.781975 -0.111520
C21   C     C_3   0.247437 0.058518 0.746796 -0.073270
C22   C     C_1   0.122729 0.182214 0.859355 0.017421
C23   C     C_R   0.277657 0.122135 0.569636 0.542837
C24   C     C_1   0.200108 0.149029 0.659419 -0.027215
C25   C     C_3   0.598669 0.276437 0.742435 0.271211
C26   C     C_3   0.550603 0.228309 0.780211 -0.102836
C27   C     C_1   0.691241 0.206922 0.903314 0.026109
C28   C     C_1   0.635337 0.133469 0.618306 0.008921
C29   C     C_3   0.709961 0.235021 0.771248 -0.110807
C30   C     C_3   0.663240 0.183983 0.808687 0.003397
C31   C     C_3   0.764542 0.120090 0.741801 -0.163798
C32   C     C_3   0.652054 0.164445 0.713246 0.067648
C33   C     C_3   0.717509 0.070444 0.779776 0.013714
C34   C     C_R   0.623430 0.100069 0.431842 0.542630
C35   C     C_3   0.605502 0.113379 0.750715 -0.148180
C36   C     C_1   0.674487 0.195356 0.861137 -0.008928
C37   C     C_1   0.644150 0.151338 0.660692 0.002296
C38   C     C_R   0.746955 0.679378 0.362262 0.004208
C39   C     C_R   0.761442 0.658527 0.311154 0.015051
C40   C     C_R   0.775208 0.642898 0.208610 -0.024097
C41   C     C_R   0.873185 0.611881 0.236124 -0.080969
C42   C     C_R   0.868057 0.618026 0.287170 0.288660
C43   C     C_R   0.784213 0.623956 0.158534 -0.161410
C44   C     C_R   0.688518 0.642441 0.131348 0.034097
C45   C     C_R   0.602791 0.773552 0.430652 0.578809
C46   C     C_R   0.557810 0.698220 0.356236 0.215603
C47   C     C_R   0.562443 0.700897 0.305513 0.006110
C48   C     C_R   0.664169 0.681449 0.282850 -0.036469
C49   C     C_R   0.465619 0.727445 0.277319 -0.126622
C50   C     C_R   0.469102 0.733702 0.227174 -0.104166
C51   C     C_R   0.570588 0.709719 0.203580 0.012770
C52   C     C_R   0.669616 0.679886 0.231709 0.018749
C53   C     C_R   0.579268 0.701415 0.152377 0.248700
C54   C     C_R   0.640281 0.709208 0.383778 -0.002401
C55   C     C_R   0.208231 0.060041 0.359119 -0.145829
C56   C     C_R   0.275183 0.122069 0.431728 0.534154
C57   C     C_R   0.188383 0.070200 0.308937 -0.018340
C58   C     C_R   0.156713 0.088247 0.207353 0.048912
C59   C     C_R   0.170462 0.990121 0.231767 0.235581
C60   C     C_R   0.185141 0.983055 0.282422 -0.106363
C61   C     C_R   0.124230 0.107944 0.158004 0.226447
C62   C     C_R   0.117553 0.203241 0.134246 -0.014585
C63   C     C_R   0.182959 0.251463 0.362162 0.245764
C64   C     C_R   0.183944 0.252511 0.311456 0.057229
C65   C     C_R   0.181506 0.164419 0.284537 0.003246
C66   C     C_R   0.196487 0.335659 0.287559 -0.101803
C67   C     C_3   0.750353 0.572010 0.735012 -0.160556
C68   C     C_R   0.203193 0.334866 0.237086 0.016667
C69   C     C_R   0.179453 0.259130 0.208864 -0.044751
C70   C     C_R   0.172009 0.170972 0.233451 -0.052272
C71   C     C_R   0.158153 0.270358 0.157990 -0.003167
C72   C     C_R   0.212073 0.147818 0.385550 -0.019759
C73   C     C_R   0.573900 0.241691 0.366354 -0.118799
C74   C     C_R   0.583464 0.261538 0.317415 -0.009146
C75   C     C_R   0.587212 0.295489 0.216445 0.042881
C76   C     C_R   0.509116 0.386280 0.248008 0.260398
C77   C     C_R   0.506529 0.366365 0.297686 -0.117129
C78   C     C_3   0.775557 0.644531 0.771924 0.050803
C79   C     C_R   0.591498 0.307869 0.165226 -0.001259
C80   C     C_R   0.677292 0.216742 0.136948 -0.050365
C81   C     C_R   0.742509 0.054638 0.358169 -0.091611
C82   C     C_R   0.751350 0.070675 0.308609 -0.017306
C83   C     C_R   0.667519 0.173737 0.287654 0.026261
C84   C     C_R   0.835363 0.981483 0.279169 0.022897
C85   C     C_R   0.823756 0.989066 0.228146 0.028497
C86   C     C_R   0.742410 0.094207 0.207377 -0.029375
C87   C     C_R   0.666206 0.188227 0.237133 -0.016572
C88   C     C_R   0.743376 0.109663 0.157496 -0.109428
C89   C     C_1   0.696917 0.608333 0.900485 0.044946
C90   C     C_R   0.649629 0.135832 0.386009 -0.010178
C91   C     C_R   0.049149 0.236071 0.949752 0.550708
C92   C     C_R   0.711460 0.563071 0.948333 0.545774
C93   C     C_R   0.722068 0.225144 0.951081 0.549076
C94   C     C_R   0.050077 0.244140 0.088394 0.565485
C95   C     C_R   0.707654 0.576974 0.085838 0.569540
C96   C     C_R   0.717936 0.234859 0.089745 0.527085
Cr1   Cr    Cr6+3 0.417550 0.169090 0.500530 1.062517
Cr2   Cr    Cr6+3 0.669180 0.913420 0.499920 1.072600
Cr3   Cr    Cr6+3 0.413260 0.917540 0.499520 1.081897
Cr4   Cr    Cr6+3 0.909170 0.177380 0.020380 1.108390
Cr5   Cr    Cr6+3 0.912710 0.429210 0.018220 1.078403
Cr6   Cr    Cr6+3 0.657170 0.432570 0.019030 1.119904
H1    H     H_    0.335454 0.129881 0.800978 0.143696
H2    H     H_    0.207437 0.308793 0.734814 0.151709
H3    H     H_    0.002780 0.353002 0.782081 0.137351
H4    H     H_    0.463018 0.273772 0.795966 0.124869
H5    H     H_    0.563601 0.062462 0.741812 0.119105
H6    H     H_    0.851327 0.077802 0.725289 0.129448
H7    H     H_    0.751423 0.286418 0.779938 0.108286
H8    H     H_    0.868156 0.583667 0.141684 0.178781
H9    H     H_    0.815347 0.492767 0.716009 0.135276
H10   H     H_    0.954931 0.579076 0.217848 0.172175
H11   H     H_    0.393731 0.749899 0.207129 0.190685
H12   H     H_    0.385413 0.745991 0.293734 0.114586
H13   H     H_    0.227355 0.981344 0.376899 0.161034
H14   H     H_    0.701862 0.828619 0.737034 0.135744
H15   H     H_    0.194226 0.909034 0.301203 0.122809
H16   H     H_    0.211195 0.395999 0.308479 0.190412
H17   H     H_    0.503864 0.305936 0.388291 0.140689
H18   H     H_    0.443750 0.433687 0.321217 0.102314
H19   H     H_    0.804995 0.040344 0.134598 0.183942
H20   H     H_    0.800801 0.973118 0.374020 0.203996
H21   H     H_    0.640150 0.510275 0.779223 0.124358
H22   H     H_    0.985646 0.195779 0.717221 0.116935
H23   H     H_    0.318584 0.972650 0.736028 0.178639
O1    O     O_R   0.301710 0.195650 0.554160 -0.501934
O2    O     O_R   0.658900 0.818120 0.449760 -0.494275
O3    O     O_R   0.503220 0.801620 0.445520 -0.436941
O4    O     O_R   0.319370 0.022040 0.450020 -0.499283
O5    O     O_3   0.499990 0.000010 0.499990 -0.272287
O6    O     O_R   0.818720 0.150820 0.967160 -0.484017
O7    O     O_R   0.006410 0.181720 0.970200 -0.479901
O8    O     O_R   0.027890 0.334070 0.964920 -0.497704
O9    O     O_R   0.809600 0.521790 0.967960 -0.485915
O10   O     O_R   0.635520 0.542770 0.964420 -0.496004
O11   O     O_R   0.665950 0.325030 0.970100 -0.496520
O12   O     O_R   0.522390 0.158990 0.550460 -0.489019
O13   O     O_R   0.816620 0.158530 0.074540 -0.505304
O14   O     O_R   0.004460 0.188870 0.069750 -0.443475
O15   O     O_R   0.025800 0.341780 0.072300 -0.495104
O16   O     O_R   0.807650 0.528950 0.067500 -0.521067
O17   O     O_R   0.633420 0.550490 0.071810 -0.416582
O18   O     O_R   0.664000 0.332180 0.069640 -0.482569
O19   O     O_3   0.826350 0.346390 0.019210 -0.291806
O20   O     O_R   0.694390 0.003530 0.554040 -0.503027
O21   O     O_R   0.657700 0.819660 0.549320 -0.498532
O22   O     O_R   0.501930 0.803280 0.552920 -0.484732
O23   O     O_R   0.318170 0.023580 0.549580 -0.492546
O24   O     O_R   0.303010 0.193990 0.446760 -0.485739
O25   O     O_R   0.523600 0.157450 0.450900 -0.494233
O26   O     O_R   0.695690 0.001860 0.446640 -0.502474
C97   C     C_2   0.893677 0.616595 0.786319 0.613213
O27   O     O_2   0.960768 0.610958 0.755204 -0.482791
O28   O     O_R   0.926797 0.596708 0.835001 -0.673976
H24   H     H_    0.008680 0.578197 0.839994 0.355409
O29   O     O_3   0.536848 0.384193 0.721509 -0.666207
H25   H     H_    0.507523 0.439507 0.749237 0.333457
C98   C     C_2   0.780114 0.954315 0.802521 0.584291
O30   O     O_2   0.733216 0.931236 0.834629 -0.474003
O31   O     O_R   0.890288 0.871909 0.787710 -0.623837
H26   H     H_    0.920384 0.897270 0.759792 0.327787
C99   C     C_2   0.839246 0.674270 0.393466 0.677240
O32   O     O_2   0.879185 0.736139 0.385331 -0.460743
O33   O     O_R   0.876954 0.601628 0.433306 -0.683105
H27   H     H_    0.939114 0.606380 0.452205 0.340514
O34   O     O_3   0.967331 0.577726 0.313743 -0.624987
H28   H     H_    0.031197 0.562345 0.291627 0.370081
O35   O     O_3   0.485061 0.738161 0.122613 -0.613411
H29   H     H_    0.420380 0.807151 0.137806 0.346301
O36   O     O_3   0.469307 0.694335 0.379585 -0.672280
H30   H     H_    0.448086 0.645616 0.359888 0.312904
O37   O     O_3   0.090909 0.039707 0.133339 -0.599140
H31   H     H_    0.031279 0.037460 0.153497 0.359889
O38   O     O_3   0.174420 0.899869 0.205606 -0.643114
H32   H     H_    0.187457 0.837843 0.228109 0.345434
C100  C     C_2   0.169776 0.356203 0.129370 0.648901
O39   O     O_2   0.101649 0.458293 0.135262 -0.515489
O40   O     O_R   0.254877 0.319112 0.093637 -0.629498
H33   H     H_    0.252936 0.385016 0.075660 0.369827
C101  C     C_2   0.243778 0.408862 0.216915 0.599741
O41   O     O_2   0.328607 0.366886 0.190860 -0.442503
O42   O     O_R   0.186625 0.525811 0.228426 -0.689885
H34   H     H_    0.218381 0.568630 0.210261 0.394012
O43   O     O_3   0.161639 0.349398 0.387664 -0.660179
H35   H     H_    0.125757 0.350071 0.419172 0.349880
C102  C     C_2   0.509754 0.415188 0.140791 0.719828
O44   O     O_2   0.438277 0.416070 0.113215 -0.404659
O45   O     O_R   0.517026 0.513968 0.147111 -0.577421
H36   H     H_    0.583151 0.500567 0.168901 0.289350
O46   O     O_3   0.434597 0.493475 0.230331 -0.676275
H37   H     H_    0.390158 0.546457 0.257463 0.318565
O47   O     O_3   0.511400 0.862873 0.804118 -0.691064
H38   H     H_    0.554345 0.890338 0.824121 0.355259
C103  C     C_2   0.895414 0.887401 0.196468 0.594040
O48   O     O_2   0.999539 0.841918 0.197128 -0.454838
O49   O     O_R   0.842482 0.844839 0.165501 -0.689928
H39   H     H_    0.899566 0.775576 0.145760 0.355100
C104  C     C_2   0.935221 0.882026 0.301775 0.603692
O50   O     O_2   0.963562 0.784423 0.288784 -0.448188
O51   O     O_R   0.997252 0.901005 0.337958 -0.708802
H40   H     H_    0.063414 0.827228 0.350465 0.350257
C105  C     C_2   0.448266 0.721254 0.730643 0.604350
O52   O     O_2   0.383174 0.723958 0.762074 -0.456235
O53   O     O_R   0.412284 0.744757 0.682403 -0.692222
H41   H     H_    0.330136 0.763574 0.678043 0.361611
C106  C     C_2   0.106425 0.994019 0.785310 0.596010
O54   O     O_2   0.106674 0.929054 0.753733 -0.503538
O55   O     O_R   0.079275 0.984915 0.833390 -0.674715
H42   H     H_    0.060867 0.921338 0.837557 0.372040

loop_
_geom_bond_atom_site_label_1
_geom_bond_atom_site_label_2
_ccdc_geom_bond_type
C66   C68   A    
Cr3   O23   S    
C4    C9    S    
C40   C41   A    
O46   H37   S    
C73   H17   S    
C79   C102  S    
C94   O15   A    
C41   C42   A    
C1    O20   A    
C11   H22   S    
C74   C83   A    
C43   C44   A    
C93   O11   A    
C2    C12   S    
C26   H4    S    
O40   H33   S    
C34   O25   A    
Cr4   O6    S    
C78   C97   S    
C7    C8    S    
C47   C49   A    
C20   H1    S    
Cr5   O9    S    
C101  O41   D    
C67   C78   S    
C11   C19   S    
O55   H42   S    
C105  O53   S    
C12   O22   A    
C29   H7    S    
O33   H27   S    
C19   C21   S    
O37   H31   S    
C45   O2    A    
Cr1   O5    S    
C96   O13   A    
C5    C6    S    
Cr5   O19   S    
C106  O55   S    
C85   C103  S    
O36   H30   S    
C45   O3    A    
C65   C70   A    
C17   C20   S    
C58   C70   A    
C71   C100  S    
C18   C19   S    
C73   C74   A    
C12   O21   A    
C69   C71   A    
O38   H32   S    
Cr6   O10   S    
Cr5   O16   S    
C44   C53   A    
C98   O31   S    
C40   C43   A    
C31   C32   S    
C3    H21   S    
O51   H40   S    
C56   C72   S    
C41   H10   S    
C38   C54   A    
C1    C28   S    
Cr1   O25   S    
C31   C33   S    
C100  O39   D    
C104  O50   D    
C43   H8    S    
C80   C96   S    
C18   C20   S    
C56   O4    A    
C30   C33   S    
C59   O38   S    
C58   C61   A    
C15   C23   S    
C103  O48   D    
C59   C60   A    
C25   O29   S    
C8    C78   S    
C94   O14   A    
C46   C54   A    
C61   C62   A    
C77   H18   S    
Cr6   O19   S    
C4    C7    S    
C30   C36   S    
Cr1   O12   S    
Cr5   O15   S    
C101  O42   S    
C81   C82   A    
C39   C42   A    
C99   O33   S    
Cr2   O26   S    
C25   C29   S    
C38   C39   A    
C3    C67   S    
C105  O52   D    
Cr3   O4    S    
C51   C52   A    
C32   C35   S    
Cr1   O1    S    
C76   O46   S    
C84   C85   A    
Cr4   O19   S    
C9    C89   T    
C5    C105  S    
C5    C7    S    
C106  O54   D    
C16   C17   S    
C57   C60   A    
C6    C8    S    
C91   O7    A    
Cr2   O21   S    
C84   C104  S    
C25   C26   S    
C40   C52   A    
C74   C77   A    
C63   C64   A    
O45   H36   S    
C51   C53   A    
O29   H25   S    
C75   C76   A    
C34   C90   S    
C4    C78   S    
C29   C30   S    
Cr4   O14   S    
C11   C16   S    
C53   O35   S    
C47   C48   A    
C91   O8    A    
C48   C52   A    
Cr2   O5    S    
C50   C51   A    
C13   C21   S    
C60   H15   S    
C61   O37   S    
C18   H2    S    
C32   C37   S    
C76   C77   A    
C89   C92   S    
O28   H24   S    
Cr4   O13   S    
C16   H3    S    
C23   O1    A    
C81   C90   A    
C88   H19   S    
C67   H9    S    
O35   H29   S    
C97   O28   S    
C45   C54   S    
C95   O16   A    
C82   C84   A    
C62   C94   S    
O34   H28   S    
C7    O47   S    
C27   C93   S    
C92   O10   A    
Cr6   O18   S    
C21   H23   S    
C3    C4    S    
C2    C10   T    
C31   H6    S    
C103  O49   S    
C1    O12   A    
C33   C98   S    
C99   O32   D    
C75   C87   A    
C56   O24   A    
Cr3   O22   S    
C46   C47   A    
Cr2   O2    S    
C63   O43   S    
Cr3   O5    S    
C20   C21   S    
C86   C87   A    
C68   C69   A    
C16   C18   S    
C92   O9    A    
C55   C72   A    
C57   C65   A    
O49   H39   S    
C3    C5    S    
C85   C86   A    
C83   C87   A    
C6    C10   S    
C104  O51   S    
C34   O26   A    
Cr4   O7    S    
C26   C30   S    
Cr3   O3    S    
Cr2   O20   S    
Cr5   O8    S    
C27   C36   T    
C23   O23   A    
C17   C22   S    
C13   C17   S    
C81   H20   S    
C50   H11   S    
O47   H38   S    
C14   C22   T    
C55   C57   A    
C19   C24   S    
C58   C59   A    
C80   C88   A    
C44   C95   S    
C6    C67   S    
O31   H26   S    
C15   C24   T    
C11   C13   S    
C98   O30   D    
C55   H13   S    
C28   C37   T    
C25   C32   S    
C64   C65   A    
C100  O40   S    
C63   C72   A    
C33   C35   S    
C68   C101  S    
C62   C71   A    
C49   H12   S    
C86   C88   A    
C69   C70   A    
C42   O34   S    
C102  O45   S    
Cr6   O11   S    
C14   C91   S    
C35   H5    S    
C8    H14   S    
C79   C80   A    
C46   O36   S    
C26   C35   S    
C38   C99   S    
O53   H41   S    
C73   C90   A    
C95   O17   A    
C29   C31   S    
C49   C50   A    
C66   H16   S    
Cr1   O24   S    
C13   C106  S    
O43   H35   S    
C97   O27   D    
Cr6   O17   S    
C82   C83   A    
C102  O44   D    
C93   O6    A    
C75   C79   A    
O42   H34   S    
C64   C66   A    
C39   C48   A    
C96   O18   A    
