data_mof_unit_46103.cif
_audit_creation_date              2012-12-11T14:44:16-0500
_audit_creation_method            fapswitch 2.2
_symmetry_space_group_name_H-M    P1
_symmetry_Int_Tables_number       1
_space_group_crystal_system       triclinic
_cell_length_a                    18.988862
_cell_length_b                    10.923675
_cell_length_c                    18.885944
_cell_angle_alpha                 89.75191
_cell_angle_beta                  89.917871
_cell_angle_gamma                 90.147536
_cell_volume                      3917.42276031

loop_
_atom_site_label
_atom_site_type_symbol
_atom_type_description
_atom_site_fract_x
_atom_site_fract_y
_atom_site_fract_z
_atom_type_partial_charge
C1    C     C_R   0.729550 0.376185 0.145738 0.566391
C2    C     C_R   0.068483 0.984862 0.013391 -0.087868
C3    C     C_R   0.025884 0.773163 0.028431 -0.041350
C4    C     C_R   0.489036 0.057229 0.036905 0.216393
C5    C     C_R   0.499806 0.045866 0.964089 0.186842
C6    C     C_R   0.986425 0.557798 0.038247 0.184918
C7    C     C_R   0.996199 0.545222 0.965253 0.177449
C8    C     C_R   0.569590 0.473010 0.941003 -0.083019
C9    C     C_R   0.566926 0.486622 0.013736 -0.091738
C10   C     C_R   0.706116 0.848711 0.043028 -0.152618
C11   C     C_R   0.285879 0.052414 0.986148 -0.147468
C12   C     C_R   0.211363 0.336854 0.046307 -0.181315
C13   C     C_R   0.782199 0.554498 0.986056 -0.148474
C14   C     C_R   0.714515 0.820553 0.971680 -0.145573
C15   C     C_R   0.272613 0.024023 0.056581 -0.081100
C16   C     C_R   0.217708 0.312143 0.974103 -0.139555
C17   C     C_R   0.287478 0.332245 0.861648 0.538097
C18   C     C_R   0.768618 0.525967 0.056324 -0.079083
C19   C     C_R   0.775486 0.858211 0.935901 -0.019777
C20   C     C_R   0.246223 0.908672 0.073700 0.058754
C21   C     C_R   0.276212 0.356673 0.936529 -0.000699
C22   C     C_R   0.745458 0.408623 0.073572 0.063992
C23   C     C_R   0.829303 0.917142 0.972423 -0.095443
C24   C     C_R   0.231379 0.823049 0.020646 -0.068330
C25   C     C_R   0.329141 0.419843 0.972146 -0.097002
C26   C     C_R   0.732557 0.321872 0.020611 -0.065444
C27   C     C_R   0.820324 0.952030 0.041476 0.091968
C28   C     C_R   0.229806 0.876561 0.145883 0.562786
C29   C     C_R   0.240296 0.854398 0.949706 0.118201
C30   C     C_R   0.320762 0.453477 0.041535 0.090554
C31   C     C_R   0.741301 0.353382 0.949664 0.121828
C32   C     C_R   0.757609 0.918107 0.078010 0.006607
C33   C     C_R   0.265359 0.972075 0.932577 0.048676
C34   C     C_R   0.259796 0.414508 0.079353 0.018327
C35   C     C_R   0.764712 0.472088 0.932519 0.053709
C36   C     C_R   0.473596 0.059577 0.454727 0.093970
C37   C     C_R   0.476164 0.048177 0.528105 0.098727
C38   C     C_R   0.973558 0.559600 0.454708 0.094316
C39   C     C_R   0.787382 0.832485 0.861561 0.530680
C40   C     C_R   0.976119 0.548190 0.528086 0.098873
C41   C     C_R   0.486461 0.155410 0.570146 0.000496
C42   C     C_R   0.501072 0.165936 0.423348 0.013138
C43   C     C_R   0.986433 0.655413 0.570133 0.000743
C44   C     C_R   0.001055 0.665948 0.423337 0.013157
C45   C     C_R   0.533365 0.156261 0.145002 0.584393
C46   C     C_R   0.470203 0.153435 0.852211 0.533804
C47   C     C_R   0.033160 0.656301 0.145217 0.586827
C48   C     C_R   0.969759 0.653218 0.852491 0.536798
C49   C     C_R   0.505228 0.265305 0.537503 -0.160436
C50   C     C_R   0.548144 0.363502 0.910779 -0.064043
C51   C     C_R   0.517387 0.268121 0.465148 -0.139599
C52   C     C_R   0.005212 0.765306 0.537495 -0.160372
C53   C     C_R   0.017375 0.768126 0.465142 -0.139643
C54   C     C_R   0.817098 0.950011 0.460452 0.073866
C55   C     C_R   0.188902 0.983147 0.534650 0.076592
C56   C     C_R   0.317103 0.449984 0.460446 0.073803
C57   C     C_R   0.688898 0.483137 0.534654 0.076433
C58   C     C_R   0.819638 0.941547 0.532834 -0.110564
C59   C     C_R   0.192311 0.976950 0.462298 -0.117008
C60   C     C_R   0.319646 0.441511 0.532828 -0.110590
C61   C     C_R   0.543557 0.390403 0.056600 -0.064349
C62   C     C_R   0.692307 0.476938 0.462301 -0.117002
C63   C     C_R   0.760599 0.904644 0.572231 -0.002138
C64   C     C_R   0.238832 0.896853 0.429430 0.010971
C65   C     C_R   0.260605 0.404622 0.572226 -0.002062
C66   C     C_R   0.738826 0.396839 0.429434 0.011094
C67   C     C_R   0.697884 0.874888 0.538028 -0.125623
C68   C     C_R   0.282436 0.821545 0.470901 -0.111951
C69   C     C_R   0.197888 0.374877 0.538024 -0.125601
C70   C     C_R   0.782426 0.321524 0.470906 -0.111976
C71   C     C_R   0.693928 0.884887 0.464843 -0.144643
C72   C     C_R   0.048282 0.861520 0.910856 -0.064950
C73   C     C_R   0.286101 0.839143 0.543703 -0.136683
C74   C     C_R   0.193931 0.384879 0.464839 -0.144517
C75   C     C_R   0.786087 0.339118 0.543709 -0.136627
C76   C     C_R   0.752775 0.925411 0.425639 0.025170
C77   C     C_R   0.241542 0.924120 0.575793 0.027325
C78   C     C_R   0.252777 0.425399 0.425635 0.025076
C79   C     C_R   0.741536 0.424107 0.575797 0.027177
C80   C     C_R   0.742055 0.970265 0.147188 0.544752
C81   C     C_R   0.271375 0.014569 0.860080 0.522151
C82   C     C_R   0.242666 0.468762 0.147813 0.544636
C83   C     C_R   0.044588 0.889484 0.056517 -0.064364
C84   C     C_R   0.771239 0.514348 0.860072 0.526121
C85   C     C_R   0.727256 0.372090 0.354934 0.563685
C86   C     C_R   0.271723 0.376128 0.646295 0.569525
C87   C     C_R   0.227258 0.872095 0.354932 0.562806
C88   C     C_R   0.771719 0.876138 0.646299 0.568604
C89   C     C_R   0.531205 0.157263 0.352845 0.573663
C90   C     C_R   0.465459 0.155274 0.644657 0.558900
C91   C     C_R   0.031201 0.657265 0.352842 0.574335
C92   C     C_R   0.965446 0.655272 0.644650 0.559329
C93   C     C_R   0.741881 0.970471 0.354198 0.552415
C94   C     C_R   0.070610 0.970790 0.940704 -0.080531
C95   C     C_R   0.257026 0.969893 0.646370 0.567464
C96   C     C_R   0.241882 0.470469 0.354197 0.551470
C97   C     C_R   0.757024 0.469889 0.646371 0.567822
C98   C     C_R   0.504854 0.153598 0.922063 -0.063712
C99   C     C_R   0.508807 0.167588 0.070682 -0.059518
C100  C     C_R   0.003183 0.652650 0.922854 -0.035451
C101  C     C_R   0.007950 0.667774 0.071275 -0.051661
C102  C     C_R   0.525143 0.264214 0.953349 -0.030490
C103  C     C_R   0.525987 0.273849 0.028160 -0.040830
C104  C     C_R   0.024673 0.762954 0.953738 -0.030624
Cr1   Cr    Cr6+3 0.772000 0.169640 0.250110 1.113722
Cr2   Cr    Cr6+3 0.383330 0.010620 0.749160 1.143201
Cr3   Cr    Cr6+3 0.116670 0.510620 0.250840 1.086083
Cr4   Cr    Cr6+3 0.883330 0.510620 0.749160 1.142230
Cr5   Cr    Cr6+3 0.228000 0.169640 0.749890 1.092320
Cr6   Cr    Cr6+3 0.272000 0.669640 0.250110 1.115583
Cr7   Cr    Cr6+3 0.728000 0.669640 0.749890 1.090116
Cr8   Cr    Cr6+3 0.614960 0.323350 0.249260 1.037519
Cr9   Cr    Cr6+3 0.385040 0.323350 0.750740 1.051217
Cr10  Cr    Cr6+3 0.114960 0.823350 0.249260 1.038483
Cr11  Cr    Cr6+3 0.885040 0.823350 0.750740 1.051848
Cr12  Cr    Cr6+3 0.616670 0.010620 0.250840 1.086830
H1    H     H_    0.869619 0.961150 0.557989 0.177624
H2    H     H_    0.323367 0.787007 0.574789 0.170805
H3    H     H_    0.143813 0.366934 0.439522 0.174872
H4    H     H_    0.823346 0.286971 0.574797 0.170895
H5    H     H_    0.552936 0.355236 0.853907 0.157635
H6    H     H_    0.535620 0.414740 0.111026 0.182580
H7    H     H_    0.052919 0.852888 0.853999 0.157918
H8    H     H_    0.037015 0.914615 0.110862 0.184155
H9    H     H_    0.089015 0.045098 0.907358 0.173078
H10   H     H_    0.083698 0.071368 0.036655 0.167416
H11   H     H_    0.587614 0.547935 0.907900 0.172228
H12   H     H_    0.154430 0.029280 0.431896 0.170552
H13   H     H_    0.581198 0.573497 0.037180 0.169135
H14   H     H_    0.658290 0.820855 0.069950 0.196420
H15   H     H_    0.312610 0.136728 0.973341 0.085284
H16   H     H_    0.167749 0.299067 0.076135 0.145637
H17   H     H_    0.807220 0.640234 0.973405 0.086238
H18   H     H_    0.674463 0.767955 0.944729 0.190657
H19   H     H_    0.284986 0.089807 0.097500 0.146803
H20   H     H_    0.178498 0.255825 0.948277 0.176982
H21   H     H_    0.778732 0.593136 0.097118 0.147682
H22   H     H_    0.878082 0.941784 0.946012 0.178834
H23   H     H_    0.369630 0.461100 0.557982 0.177614
H24   H     H_    0.211132 0.733162 0.034457 0.123592
H25   H     H_    0.376692 0.448685 0.944912 0.178873
H26   H     H_    0.713929 0.230967 0.034484 0.123030
H27   H     H_    0.513173 0.347097 0.568461 0.178060
H28   H     H_    0.540981 0.349439 0.442194 0.182843
H29   H     H_    0.013168 0.847091 0.568457 0.178098
H30   H     H_    0.040980 0.849437 0.442192 0.182889
H31   H     H_    0.484188 0.797274 0.158058 0.366951
H32   H     H_    0.613743 0.958393 0.877148 0.342925
H33   H     H_    0.972392 0.301746 0.163940 0.375067
H34   H     H_    0.654427 0.529271 0.431899 0.170421
H35   H     H_    0.074475 0.350251 0.016752 0.343243
H36   H     H_    0.652289 0.844928 0.567843 0.189558
H37   H     H_    0.314027 0.750339 0.447147 0.190340
H38   H     H_    0.152290 0.344928 0.567840 0.189337
H39   H     H_    0.814017 0.250318 0.447152 0.190262
H40   H     H_    0.643812 0.866934 0.439524 0.174706
I1    I     I_    0.914076 0.008877 0.412837 -0.328901
I2    I     I_    0.477052 0.862986 0.568290 -0.272143
I3    I     I_    0.929576 0.415283 0.390749 -0.264294
I4    I     I_    0.976992 0.362994 0.568258 -0.274608
I5    I     I_    0.097988 0.079032 0.571633 -0.337803
I6    I     I_    0.414079 0.508851 0.412829 -0.329615
I7    I     I_    0.597987 0.579028 0.571638 -0.336353
I8    I     I_    0.902797 0.071330 0.076057 -0.216981
I9    I     I_    0.217039 0.719959 0.872251 -0.262077
I10   I     I_    0.402035 0.575472 0.075556 -0.225577
I11   I     I_    0.719464 0.218222 0.872264 -0.302511
I12   I     I_    0.429623 0.915226 0.390789 -0.264238
O1    O     O_R   0.787540 0.042690 0.170470 -0.479199
O2    O     O_R   0.454130 0.051100 0.669160 -0.470089
O3    O     O_R   0.045870 0.551100 0.330840 -0.478588
O4    O     O_R   0.954130 0.551100 0.669160 -0.471960
O5    O     O_R   0.681340 0.959300 0.325510 -0.513177
O6    O     O_R   0.318660 0.959300 0.674490 -0.486907
O7    O     O_R   0.181340 0.459300 0.325510 -0.512949
O8    O     O_R   0.818660 0.459300 0.674490 -0.486812
O9    O     O_3   0.667880 0.167870 0.250070 -0.288202
O10   O     O_3   0.332120 0.167870 0.749930 -0.324857
O11   O     O_3   0.167880 0.667870 0.250070 -0.287796
O12   O     O_R   0.212460 0.042690 0.829530 -0.524220
O13   O     O_3   0.832120 0.667870 0.749930 -0.323064
O14   O     O_R   0.765660 0.292160 0.175050 -0.449803
O15   O     O_R   0.234340 0.292160 0.824950 -0.474168
O16   O     O_R   0.265660 0.792160 0.175050 -0.448267
O17   O     O_R   0.734340 0.792160 0.824950 -0.487320
O18   O     O_R   0.670190 0.408980 0.168550 -0.543505
O19   O     O_R   0.329810 0.408980 0.831450 -0.480059
O20   O     O_R   0.170190 0.908980 0.168550 -0.543492
O21   O     O_R   0.829810 0.908980 0.831450 -0.476783
O22   O     O_R   0.556580 0.251450 0.175160 -0.532377
O23   O     O_R   0.287540 0.542690 0.170470 -0.479777
O24   O     O_R   0.443420 0.251450 0.824840 -0.540962
O25   O     O_R   0.056580 0.751450 0.175160 -0.532290
O26   O     O_R   0.943420 0.751450 0.824840 -0.542687
O27   O     O_R   0.545920 0.049510 0.170320 -0.425414
O28   O     O_R   0.454080 0.049510 0.829680 -0.424785
O29   O     O_R   0.045920 0.549510 0.170320 -0.426815
O30   O     O_R   0.954080 0.549510 0.829680 -0.429690
O31   O     O_R   0.681390 0.957840 0.176710 -0.504350
O32   O     O_R   0.318610 0.957840 0.823290 -0.441490
O33   O     O_R   0.181390 0.457840 0.176710 -0.505081
O34   O     O_R   0.712460 0.542690 0.829530 -0.522017
O35   O     O_R   0.818610 0.457840 0.823290 -0.438989
O36   O     O_R   0.787500 0.044280 0.330990 -0.479760
O37   O     O_R   0.212500 0.044280 0.669010 -0.476171
O38   O     O_R   0.287500 0.544280 0.330990 -0.479884
O39   O     O_R   0.712500 0.544280 0.669010 -0.475410
O40   O     O_R   0.765610 0.293630 0.323860 -0.478461
O41   O     O_R   0.234390 0.293630 0.676140 -0.473876
O42   O     O_R   0.265610 0.793630 0.323860 -0.478085
O43   O     O_R   0.734390 0.793630 0.676140 -0.472795
O44   O     O_R   0.670140 0.410570 0.329080 -0.523946
O45   O     O_R   0.556540 0.252920 0.323970 -0.500923
O46   O     O_R   0.329860 0.410570 0.670920 -0.509718
O47   O     O_R   0.170140 0.910570 0.329080 -0.524093
O48   O     O_R   0.829860 0.910570 0.670920 -0.509728
O49   O     O_2   0.405107 0.986985 0.145243 -0.322132
O50   O     O_2   0.397974 0.866577 0.036589 -0.211708
O51   O     O_3   0.506998 0.836870 0.116664 -0.462234
O52   O     O_2   0.549577 0.813888 0.981278 -0.276841
O53   O     O_2   0.450073 0.840167 0.901707 -0.169571
O54   O     O_3   0.573208 0.911348 0.858500 -0.491180
O55   O     O_2   0.898793 0.497690 0.145179 -0.320481
O56   O     O_R   0.443460 0.252920 0.676030 -0.505676
O57   O     O_2   0.893963 0.368713 0.039587 -0.206436
O58   O     O_3   0.998819 0.341207 0.124727 -0.485846
O59   O     O_2   0.941489 0.343200 0.902440 -0.171754
O60   O     O_2   0.061340 0.402686 0.868205 -0.262296
O61   O     O_3   0.042495 0.298189 0.988968 -0.477107
O62   O     O_R   0.056540 0.752920 0.323970 -0.500701
O63   O     O_R   0.943460 0.752920 0.676030 -0.505239
O64   O     O_R   0.545870 0.051100 0.330840 -0.479466
S1    S     S_3+6 0.446740 0.935328 0.084559 0.074988
S2    S     S_3+6 0.517333 0.897688 0.927328 0.080658
S3    S     S_3+6 0.941709 0.439848 0.087381 0.055656
S4    S     S_3+6 0.009960 0.395174 0.928754 0.089681

loop_
_geom_bond_atom_site_label_1
_geom_bond_atom_site_label_2
_ccdc_geom_bond_type
C3    C104  A    
C45   O27   A    
C99   C103  A    
C6    S3    S    
C85   O44   A    
C95   O37   A    
C16   C21   A    
C47   C101  S    
C96   O7    A    
C55   C59   A    
C63   C88   S    
C4    S1    S    
O51   S1    S    
C23   H22   S    
C36   C42   A    
C86   O41   A    
C36   I12   S    
C81   O32   A    
C10   H14   S    
Cr10  O20   S    
C57   C62   A    
Cr3   O3    S    
C51   H28   S    
C24   H24   S    
C90   O56   A    
C74   H3    S    
C59   C64   A    
C52   H29   S    
Cr1   O1    S    
C13   C18   A    
C9    C61   A    
Cr8   O44   S    
O52   S2    D    
C36   C37   A    
C61   C103  A    
C95   O6    A    
C92   O4    A    
C38   I3    S    
C13   C35   A    
Cr4   O35   S    
C28   O20   A    
Cr8   O18   S    
C71   C76   A    
C55   C77   A    
C43   C52   A    
C94   H9    S    
C67   C71   A    
C15   H19   S    
Cr9   O19   S    
C29   C33   A    
Cr6   O23   S    
C100  C104  A    
C56   C78   A    
C6    C101  A    
C29   I9    S    
C93   O36   A    
H32   O54   S    
C24   C29   A    
C33   C81   S    
Cr12  O27   S    
C11   C15   A    
Cr5   O10   S    
C40   C43   A    
C12   C16   A    
C78   C96   S    
C8    C9    A    
C49   C51   A    
C88   O43   A    
C89   O45   A    
C23   C27   A    
Cr1   O14   S    
C62   H34   S    
C64   C87   S    
Cr11  O63   S    
C74   C78   A    
C42   C51   A    
Cr3   O11   S    
C3    C101  A    
Cr9   O10   S    
C46   C98   S    
Cr6   O16   S    
C26   C31   A    
C89   O64   A    
C97   O8    A    
Cr12  O9    S    
Cr12  O64   S    
Cr4   O30   S    
H33   O58   S    
Cr2   O2    S    
C82   O23   A    
Cr12  O5    S    
C2    C83   A    
Cr6   O42   S    
C50   H5    S    
Cr9   O46   S    
C66   C85   S    
C81   O12   A    
Cr5   O41   S    
C44   C53   A    
Cr7   O34   S    
C41   C49   A    
Cr11  O13   S    
C47   O25   A    
C80   O1    A    
C88   O48   A    
C15   C20   A    
C48   C100  S    
C63   C67   A    
Cr7   O17   S    
C7    C100  A    
C62   C66   A    
C91   O62   A    
C70   H39   S    
O57   S3    D    
C58   C63   A    
C20   C24   A    
C65   C86   S    
C27   C32   A    
C55   I5    S    
C68   H37   S    
C45   C99   S    
O49   S1    D    
Cr3   O29   S    
Cr12  O31   S    
C30   C34   A    
Cr1   O36   S    
Cr2   O28   S    
C20   C28   S    
C92   O63   A    
C59   H12   S    
C1    O18   A    
C80   O31   A    
C77   C95   S    
C58   H1    S    
C17   C21   S    
O58   S3    S    
C56   C60   A    
C56   I6    S    
C48   O30   A    
C61   H6    S    
Cr11  O21   S    
C37   I2    S    
C18   H21   S    
C19   C23   A    
C86   O46   A    
Cr9   O56   S    
C38   C44   A    
O59   S4    D    
C27   I8    S    
C32   C80   S    
C17   O15   A    
C8    H11   S    
C96   O38   A    
C57   I7    S    
C2    C94   A    
C35   C84   S    
C90   O2    A    
Cr2   O6    S    
C69   C74   A    
Cr6   O38   S    
Cr8   O45   S    
C97   O39   A    
Cr5   O37   S    
O53   S2    D    
C30   I10   S    
C44   C91   S    
C19   C39   S    
C54   C76   A    
Cr4   O13   S    
C84   O35   A    
Cr1   O9    S    
Cr11  O26   S    
C31   I11   S    
C60   C65   A    
C50   C102  A    
C5    S2    S    
Cr4   O4    S    
C72   H7    S    
C3    C83   A    
C83   H8    S    
C87   O42   A    
C31   C35   A    
C75   C79   A    
C12   C34   A    
C16   H20   S    
C64   C68   A    
Cr7   O39   S    
C70   C75   A    
C52   C53   A    
Cr1   O40   S    
Cr2   O32   S    
C54   C58   A    
Cr10  O25   S    
C84   O34   A    
C25   C30   A    
Cr9   O24   S    
C21   C25   A    
C7    S4    S    
O54   S2    S    
C87   O47   A    
C73   H2    S    
C12   H16   S    
C48   O26   A    
C67   H36   S    
C18   C22   A    
C13   H17   S    
C14   C19   A    
C79   C97   S    
C25   H25   S    
C75   H4    S    
O55   S3    D    
O50   S1    D    
C46   O24   A    
C4    C5    A    
C11   H15   S    
Cr10  O62   S    
C82   O33   A    
C1    O14   A    
Cr3   O33   S    
C6    C7    A    
C11   C33   A    
C9    H13   S    
C14   H18   S    
C66   C70   A    
C43   C92   S    
Cr7   O13   S    
C91   O3    A    
C42   C89   S    
O61   S4    S    
C28   O16   A    
C72   C94   A    
C98   C102  A    
C54   I1    S    
C38   C40   A    
Cr5   O12   S    
Cr5   O15   S    
H35   O61   S    
Cr3   O7    S    
Cr6   O11   S    
C17   O19   A    
C65   C69   A    
C71   H40   S    
Cr4   O8    S    
C93   O5    A    
C53   H30   S    
Cr11  O48   S    
C41   C90   S    
C8    C50   A    
C76   C93   S    
C40   I4    S    
C37   C41   A    
C102  C103  A    
Cr10  O47   S    
C57   C79   A    
Cr7   O43   S    
O60   S4    D    
H31   O51   S    
C2    H10   S    
C60   H23   S    
Cr8   O22   S    
C49   H27   S    
C39   O17   A    
C10   C32   A    
C45   O22   A    
C1    C22   S    
C5    C98   A    
Cr10  O11   S    
C22   C26   A    
C4    C99   A    
C46   O28   A    
C39   O21   A    
C73   C77   A    
C68   C73   A    
C47   O29   A    
C69   H38   S    
C34   C82   S    
C26   H26   S    
C72   C104  A    
Cr2   O10   S    
C85   O40   A    
C10   C14   A    
Cr8   O9    S    
