data_mof_unit_42532.cif
_audit_creation_date              2013-03-05T16:07:22-0500
_audit_creation_method            fapswitch 2.2
_symmetry_space_group_name_H-M    P1
_symmetry_Int_Tables_number       1
_space_group_crystal_system       triclinic
_cell_length_a                    9.548154
_cell_length_b                    10.998822
_cell_length_c                    16.885821
_cell_angle_alpha                 89.150276
_cell_angle_beta                  92.833923
_cell_angle_gamma                 90.34282
_cell_volume                      1770.93473728

loop_
_atom_site_label
_atom_site_type_symbol
_atom_site_description
_atom_site_fract_x
_atom_site_fract_y
_atom_site_fract_z
_atom_type_partial_charge
O1    O     O_R   0.618740 0.319660 0.500000 -0.587548
O2    O     O_R   0.381260 0.680340 0.500000 -0.587667
O3    O     O_R   0.381170 0.319630 0.500010 -0.569554
O4    O     O_R   0.618830 0.680370 0.499990 -0.570792
C1    C     C_R   0.499463 0.262317 0.496176 0.838934
C2    C     C_R   0.500552 0.737644 0.503927 0.838121
O5    O     O_R   0.631780 0.498870 0.613920 -0.578625
O6    O     O_R   0.368220 0.501130 0.386080 -0.576867
O7    O     O_R   0.394210 0.498840 0.613930 -0.584287
O8    O     O_R   0.605790 0.501160 0.386070 -0.584902
C3    C     C_R   0.516375 0.499867 0.651098 0.859892
C4    C     C_R   0.483637 0.499842 0.348857 0.860739
Cu1   Cu    Cu3+1 0.640660 0.500020 0.500000 1.006937
Cu2   Cu    Cu3+1 0.359340 0.499980 0.500000 1.007508
C5    C     C_R   0.524574 0.509010 0.738085 -0.151158
C6    C     C_R   0.475639 0.488805 0.261895 -0.151240
C7    C     C_R   0.463258 0.609859 0.773629 -0.142458
C8    C     C_R   0.542979 0.390180 0.227226 -0.139638
C9    C     C_R   0.476224 0.623881 0.856482 -0.067817
C10   C     C_R   0.530717 0.373958 0.144679 -0.063404
C11   C     C_R   0.545334 0.533934 0.903580 0.258718
C12   C     C_R   0.455790 0.459376 0.096706 0.260118
C13   C     C_R   0.614480 0.436611 0.868209 -0.103032
C14   C     C_R   0.381066 0.554236 0.131014 -0.098975
C15   C     C_R   0.603734 0.423846 0.784873 -0.116612
C16   C     C_R   0.391332 0.569391 0.214279 -0.119035
N1    N     N_2   0.537127 0.538521 0.987060 -0.175713
N2    N     N_2   0.464393 0.453815 0.013306 -0.172931
C17   C     C_R   0.371302 0.062428 0.491092 -0.040217
C18   C     C_R   0.628779 0.937420 0.509533 -0.042141
C19   C     C_R   0.372108 0.936316 0.502811 -0.119114
C20   C     C_R   0.628011 0.063572 0.498015 -0.124218
C21   C     C_R   0.500581 0.871991 0.507577 -0.140509
C22   C     C_R   0.499499 0.127905 0.492879 -0.142543
C23   C     C_R   0.077350 0.432281 0.554707 0.052010
C24   C     C_R   0.922652 0.567786 0.445328 0.053995
C25   C     C_R   0.928994 0.433005 0.554611 -0.013477
C26   C     C_R   0.071010 0.567109 0.445450 -0.011468
H1    H     H_    0.875190 0.378945 0.597905 0.156581
H2    H     H_    0.124817 0.621305 0.402236 0.156067
N3    N     N_R   0.852070 0.500030 0.499980 -0.201907
N4    N     N_R   0.147930 0.499970 0.500020 -0.202064
C27   C     C_1   0.616821 0.300450 0.277072 0.348177
N5    N     N_1   0.675811 0.228613 0.316536 -0.236865
C28   C     C_1   0.395131 0.703467 0.724342 0.345438
N6    N     N_1   0.340738 0.778398 0.685320 -0.234085
C29   C     C_2   0.595270 0.267284 0.107711 0.906590
O9    O     O_2   0.529095 0.211012 0.056201 -0.541138
O10   O     O_R   0.731077 0.230979 0.131807 -0.711873
H3    H     H_    0.762696 0.157148 0.102340 0.353046
C30   C     C_2   0.419934 0.733088 0.895005 0.896444
O11   O     O_2   0.306171 0.775089 0.872669 -0.555048
O12   O     O_R   0.498317 0.788283 0.956861 -0.705921
H4    H     H_    0.450767 0.862903 0.977361 0.378492
C31   C     C_2   0.697738 0.349221 0.919099 0.952063
O13   O     O_2   0.775460 0.386738 0.973198 -0.537373
O14   O     O_R   0.687239 0.224340 0.905353 -0.694141
H5    H     H_    0.750107 0.174672 0.943449 0.356975
C32   C     C_2   0.292438 0.635781 0.078636 0.946930
O15   O     O_2   0.291727 0.745406 0.089682 -0.540394
O16   O     O_R   0.209995 0.586499 0.016176 -0.707896
H6    H     H_    0.152657 0.650288 0.985406 0.367057
C33   C     C_2   0.676347 0.323053 0.746015 0.914255
O17   O     O_2   0.801199 0.305234 0.761134 -0.566926
O18   O     O_R   0.602005 0.249825 0.691336 -0.747160
H7    H     H_    0.662966 0.185339 0.668345 0.334031
C34   C     C_2   0.313394 0.667967 0.252181 0.910847
O19   O     O_2   0.187546 0.680124 0.237314 -0.561523
O20   O     O_R   0.383903 0.745386 0.305875 -0.751029
H8    H     H_    0.319478 0.807472 0.328600 0.334273
C35   C     C_2   0.234572 0.122960 0.472919 0.883673
O21   O     O_2   0.143955 0.119061 0.521476 -0.569338
O22   O     O_R   0.210443 0.183988 0.400326 -0.733138
H9    H     H_    0.114494 0.223100 0.395276 0.350838
C36   C     C_2   0.765414 0.876766 0.527885 0.884912
O23   O     O_2   0.856419 0.880863 0.479555 -0.571352
O24   O     O_R   0.788969 0.815356 0.600389 -0.733243
H10   H     H_    0.884855 0.776148 0.605573 0.349870
C37   C     C_1   0.238753 0.875147 0.512346 0.385913
N7    N     N_1   0.133017 0.826140 0.520836 -0.219559
C38   C     C_1   0.761578 0.124775 0.489425 0.386205
N8    N     N_1   0.867551 0.173779 0.481725 -0.217239
C39   C     C_1   0.151881 0.357886 0.613292 0.377240
N9    N     N_1   0.210850 0.297669 0.660688 -0.185360
C40   C     C_1   0.848121 0.642302 0.386812 0.379922
N10   N     N_1   0.789151 0.702625 0.339477 -0.192296

loop_
_geom_bond_atom_site_label_1
_geom_bond_atom_site_label_2
_geom_bond_distance
_ccdc_geom_bond_type
C18   C20   1.398235 A    
C31   O13   1.223100 D    
C33   O18   1.398376 S    
O22   H9    1.013677 S    
C36   O23   1.221319 D    
Cu1   N3    2.018591 S    
C38   N8    1.155697 T    
C29   O10   1.398453 S    
O12   H4    1.013900 S    
O5    C3    1.295060 A    
C20   C38   1.451121 S    
O1    C1    1.297822 A    
C16   C34   1.488703 S    
C9    C11   1.406854 A    
C14   C16   1.416809 A    
C26   N4    1.361319 A    
O20   H8    1.013957 S    
C40   N10   1.157729 T    
C5    C15   1.414343 A    
C15   C33   1.488611 S    
O4    Cu1   1.995794 S    
C23   N4    1.377068 A    
C3    C5    1.471953 S    
C29   O9    1.223026 D    
C19   C21   1.417998 A    
Cu2   N4    2.018592 S    
C11   N1    1.417334 S    
C32   O15   1.222924 D    
C12   N2    1.416965 S    
Cu1   Cu2   2.686083 S    
C24   N3    1.377049 A    
O2    C2    1.297765 A    
C11   C13   1.415923 A    
C6    C16   1.415447 A    
C25   H1    1.082823 S    
C32   O16   1.398430 S    
C34   O19   1.223068 D    
C4    C6    1.473407 S    
C37   N7    1.155797 T    
O4    C2    1.301466 A    
C35   O22   1.398472 S    
C23   C39   1.438041 S    
O24   H10   1.013657 S    
C17   C22   1.415724 A    
C30   O11   1.223061 D    
C34   O20   1.398597 S    
C20   C22   1.418424 A    
O7    Cu2   1.935980 S    
C9    C30   1.490042 S    
O7    C3    1.297037 A    
C39   N9    1.157741 T    
O6    C4    1.295627 A    
C1    C22   1.480258 S    
C19   C37   1.451432 S    
C36   O24   1.398480 S    
O3    Cu2   1.995796 S    
O8    C4    1.297308 A    
C10   C12   1.406717 A    
O18   H7    1.013920 S    
C31   O14   1.398590 S    
C27   N5    1.156801 T    
C12   C14   1.414539 A    
O1    Cu1   1.993512 S    
C5    C7    1.412656 A    
O6    Cu2   1.929537 S    
C18   C21   1.415440 A    
C23   C25   1.416517 A    
C7    C28   1.450820 S    
O3    C1    1.301628 A    
O8    Cu1   1.935980 S    
C13   C31   1.487064 S    
C24   C40   1.438026 S    
C2    C21   1.479854 S    
C24   C26   1.416508 A    
C35   O21   1.221227 D    
C17   C19   1.398232 A    
C8    C27   1.450717 S    
C26   H2    1.082697 S    
C18   C36   1.485736 S    
O14   H5    1.013844 S    
C14   C32   1.488060 S    
C7    C9    1.409081 A    
C8    C10   1.406922 A    
C13   C15   1.414875 A    
C25   N3    1.361324 A    
O16   H6    1.013699 S    
O2    Cu2   1.993512 S    
C10   C29   1.488144 S    
C33   O17   1.223083 D    
C28   N6    1.156847 T    
O5    Cu1   1.929533 S    
C6    C8    1.413232 A    
O10   H3    1.013861 S    
N1    N2    1.247864 D    
C30   O12   1.398465 S    
C17   C35   1.485434 S    
