data_mof_unit_42061.cif
_audit_creation_date              2012-12-10T17:02:59-0500
_audit_creation_method            fapswitch 2.2
_symmetry_space_group_name_H-M    P1
_symmetry_Int_Tables_number       1
_space_group_crystal_system       triclinic
_cell_length_a                    9.805088
_cell_length_b                    11.044227
_cell_length_c                    13.434572
_cell_angle_alpha                 94.241229
_cell_angle_beta                  81.498922
_cell_angle_gamma                 111.248821
_cell_volume                      1340.6937052

loop_
_atom_site_label
_atom_site_type_symbol
_atom_type_description
_atom_site_fract_x
_atom_site_fract_y
_atom_site_fract_z
_atom_type_partial_charge
C1    C     C_R   0.556488 0.745460 0.507335 0.860821
C2    C     C_R   0.439235 0.506317 0.972281 0.082648
C3    C     C_R   0.480152 0.543858 0.870375 0.070969
C4    C     C_R   0.550313 0.542012 0.037621 0.061882
C5    C     C_R   0.697003 0.624617 0.003201 0.106357
C6    C     C_R   0.730116 0.673846 0.905419 -0.049190
C7    C     C_R   0.622070 0.635302 0.841260 -0.241167
C8    C     C_R   0.519857 0.496784 0.136368 -0.227014
C9    C     C_R   0.770923 0.616111 0.167194 -0.199361
C10   C     C_R   0.376844 0.490376 0.800402 -0.097487
C11   C     C_2   0.588285 0.884593 0.511505 -0.353522
C12   C     C_R   0.423622 0.494378 0.690796 0.785543
C13   C     C_2   0.483966 0.930498 0.498685 -0.144104
C14   C     C_2   0.411465 0.115365 0.489096 -0.350816
C15   C     C_2   0.515567 0.069435 0.502409 -0.149485
C16   C     C_2   0.922350 0.489612 0.491653 -0.073392
C17   C     C_2   0.076996 0.509215 0.509221 -0.071324
C18   C     C_R   0.443429 0.254530 0.492863 0.872073
C19   C     C_R   0.578190 0.513570 0.309603 0.795077
C20   C     C_R   0.806355 0.658261 0.068376 -0.181958
C21   C     C_R   0.626487 0.538064 0.202122 -0.051161
C22   C     C_R   0.229085 0.419670 0.835550 -0.177495
C23   C     C_R   0.184937 0.395506 0.937302 -0.138557
C24   C     C_R   0.288307 0.435580 0.004865 -0.174995
Cu1   Cu    Cu3+1 0.362000 0.479240 0.482530 0.941486
Cu2   Cu    Cu3+1 0.638000 0.520760 0.517470 0.942122
H1    H     H_    0.854864 0.649050 0.217296 0.155992
H2    H     H_    0.374312 0.865391 0.485181 0.182097
H3    H     H_    0.302092 0.049981 0.475401 0.151931
H4    H     H_    0.697732 0.949974 0.525045 0.151705
H5    H     H_    0.125425 0.576832 0.568194 0.163654
H6    H     H_    0.873290 0.420825 0.433497 0.158049
H7    H     H_    0.106497 0.385186 0.400192 0.189682
H8    H     H_    0.894693 0.617147 0.598240 0.199279
H9    H     H_    0.918961 0.720349 0.044391 0.151684
H10   H     H_    0.412705 0.429987 0.165177 0.142615
H11   H     H_    0.147848 0.379868 0.783912 0.158977
H12   H     H_    0.245313 0.412103 0.082345 0.125435
H13   H     H_    0.070280 0.341554 0.963705 0.145231
H14   H     H_    0.649825 0.680828 0.768779 0.169625
H15   H     H_    0.625147 0.134534 0.516078 0.180739
N1    N     N_2   0.845330 0.551960 0.543750 -0.284561
N2    N     N_2   0.154690 0.448120 0.456210 -0.286944
O1    O     O_R   0.426290 0.668220 0.490680 -0.576093
O2    O     O_R   0.659360 0.703290 0.520190 -0.579072
O3    O     O_R   0.326580 0.473880 0.629020 -0.577681
O4    O     O_R   0.559660 0.508940 0.658530 -0.571520
O5    O     O_R   0.340640 0.296710 0.479810 -0.572758
O6    O     O_R   0.573710 0.331780 0.509320 -0.574799
O7    O     O_R   0.440340 0.491060 0.341470 -0.575573
O8    O     O_R   0.673420 0.526120 0.370980 -0.581955
C25   C     C_1   0.874515 0.764368 0.868107 0.210579
N3    N     N_1   0.989970 0.836714 0.838121 -0.294270

loop_
_geom_bond_atom_site_label_1
_geom_bond_atom_site_label_2
_ccdc_geom_bond_type
C24   H12   S    
C23   C24   A    
C17   N2    D    
C13   H2    S    
C6    C7    A    
C16   N1    D    
C16   H6    S    
C14   C18   S    
C9    C20   A    
C2    C4    A    
C19   O7    A    
C4    C8    A    
C9    C21   A    
Cu1   N2    S    
C14   C15   D    
C2    C3    A    
C18   O6    A    
C18   O5    A    
C3    C10   A    
Cu2   O8    S    
C10   C22   A    
C11   C13   D    
Cu1   O5    S    
C1    O2    A    
C10   C12   S    
Cu2   O4    S    
C12   O4    A    
C23   H13   S    
Cu1   O1    S    
C19   C21   S    
C8    C21   A    
C3    C7    A    
C13   C15   S    
Cu2   N1    S    
C2    C24   A    
C5    C6    A    
C17   H5    S    
H8    N1    S    
C15   H15   S    
H7    N2    S    
C19   O8    A    
C25   N3    T    
C9    H1    S    
C12   O3    A    
C8    H10   S    
Cu2   O6    S    
C5    C20   A    
Cu1   O7    S    
C16   C17   S    
C1    O1    A    
Cu2   O2    S    
C6    C25   S    
Cu1   Cu2   S    
C7    H14   S    
C22   H11   S    
Cu1   O3    S    
C20   H9    S    
C22   C23   A    
C11   H4    S    
C14   H3    S    
C4    C5    A    
C1    C11   S    
