data_mof_unit_44311.cif
_audit_creation_date              2012-12-11T15:21:53-0500
_audit_creation_method            fapswitch 2.2
_symmetry_space_group_name_H-M    P1
_symmetry_Int_Tables_number       1
_space_group_crystal_system       triclinic
_cell_length_a                    8.232321
_cell_length_b                    12.611564
_cell_length_c                    19.042344
_cell_angle_alpha                 94.348051
_cell_angle_beta                  94.420785
_cell_angle_gamma                 97.788145
_cell_volume                      1945.49852633

loop_
_atom_site_label
_atom_site_type_symbol
_atom_type_description
_atom_site_fract_x
_atom_site_fract_y
_atom_site_fract_z
_atom_type_partial_charge
Ba1   Ba    Ba6+2 0.160910 0.552960 0.466220 1.644538
Ba2   Ba    Ba6+2 0.649260 0.447030 0.533730 1.662858
C1    C     C_3   0.392338 0.859937 0.203051 -0.169225
C2    C     C_R   0.734204 0.816044 0.472890 -0.277041
C3    C     C_R   0.707418 0.996918 0.444759 -0.103248
C4    C     C_3   0.934476 0.844122 0.305067 0.390702
C5    C     C_R   0.642380 0.888241 0.442424 -0.027400
C6    C     C_R   0.887292 0.850431 0.509876 0.052966
C7    C     C_R   0.952501 0.962345 0.515658 -0.049111
C8    C     C_R   0.860724 0.036872 0.482453 -0.050272
C9    C     C_R   0.924144 0.149161 0.489391 0.058826
C10   C     C_R   0.171216 0.110897 0.555048 -0.030085
C11   C     C_R   0.107319 0.002043 0.552294 -0.096252
C12   C     C_3   0.472936 0.857733 0.277842 0.310037
C13   C     C_R   0.616660 0.544279 0.298951 -0.277563
C14   C     C_R   0.461699 0.487562 0.276776 0.081147
C15   C     C_R   0.406956 0.474934 0.204586 -0.115433
C16   C     C_3   0.932013 0.950416 0.272661 -0.394602
C17   C     C_R   0.508262 0.518136 0.154193 -0.006665
C18   C     C_R   0.667423 0.571215 0.177561 -0.145822
C19   C     C_R   0.721788 0.582389 0.249554 -0.000825
C20   C     C_R   0.489907 0.589889 0.034607 -0.076552
C21   C     C_R   0.437239 0.578836 0.962544 -0.079525
C22   C     C_R   0.345033 0.482710 0.930926 0.064015
C23   C     C_3   0.548065 0.770921 0.629951 0.286131
C24   C     C_R   0.305070 0.398357 0.973662 -0.066863
C25   C     C_R   0.357043 0.409728 0.046032 -0.077445
C26   C     C_R   0.450567 0.505680 0.077417 0.063014
C27   C     C_R   0.135190 0.416589 0.827740 -0.157827
C28   C     C_3   0.764238 0.317346 0.320458 0.320523
C29   C     C_R   0.086988 0.406207 0.754960 -0.019017
C30   C     C_R   0.345723 0.507435 0.733020 0.057474
C31   C     C_R   0.396774 0.516766 0.805297 -0.081123
C32   C     C_R   0.292570 0.470406 0.853664 0.000823
C33   C     C_R   0.194986 0.447972 0.707959 -0.230813
C34   C     C_3   0.559191 0.891408 0.642775 -0.360738
C35   C     C_3   0.758328 0.292321 0.240324 -0.220298
C36   C     C_3   0.045718 0.679732 0.678030 0.311922
C37   C     C_3   0.083050 0.707985 0.757251 -0.402798
C38   C     C_3   0.238044 0.228569 0.379588 0.280199
C39   C     C_3   0.264919 0.111439 0.375059 -0.343573
C40   C     C_3   0.613334 0.207144 0.212090 -0.397238
C41   C     C_3   0.518278 0.862183 0.148358 -0.519227
C42   C     C_3   0.876563 0.108737 0.678936 -0.330341
C43   C     C_3   0.873575 0.164485 0.752734 0.392318
C44   C     C_3   0.806757 0.084077 0.803221 -0.312025
C45   C     C_3   0.334467 0.152581 0.724514 0.873242
C46   C     C_3   0.270266 0.050109 0.757636 -0.363780
C47   C     C_R   0.077070 0.183534 0.526495 -0.274759
H1    H     H_    0.517888 0.778668 0.281496 -0.004954
H2    H     H_    0.291548 0.266241 0.432391 0.048246
H3    H     H_    0.298788 0.787321 0.190430 0.149987
H4    H     H_    0.259472 0.078859 0.319132 0.131706
H5    H     H_    0.170429 0.062706 0.402099 0.069063
H6    H     H_    0.387745 0.104676 0.400568 0.133398
H7    H     H_    0.577328 0.924233 0.288392 -0.010223
H8    H     H_    0.671604 0.750491 0.619881 0.011105
H9    H     H_    0.460592 0.745644 0.582430 0.074615
H10   H     H_    0.646434 0.919824 0.689696 0.112706
H11   H     H_    0.602801 0.929751 0.595845 0.081014
H12   H     H_    0.748124 0.366525 0.213650 0.061341
H13   H     H_    0.436101 0.913139 0.652245 0.131859
H14   H     H_    0.328984 0.932144 0.200065 0.117041
H15   H     H_    0.835609 0.941186 0.227944 0.107823
H16   H     H_    0.000772 0.197819 0.774646 -0.052029
H17   H     H_    0.880183 0.016474 0.804847 0.059625
H18   H     H_    0.813617 0.124738 0.857405 0.103250
H19   H     H_    0.676200 0.051829 0.786600 0.139299
H20   H     H_    0.227192 0.186858 0.700855 -0.242631
H21   H     H_    0.186697 0.067790 0.798616 0.054906
H22   H     H_    0.374245 0.014764 0.782730 0.112755
H23   H     H_    0.875068 0.263756 0.226901 0.118173
H24   H     H_    0.021373 0.857023 0.353593 0.083813
H25   H     H_    0.202008 0.990118 0.716381 0.070850
H26   H     H_    0.635474 0.049245 0.418089 0.094803
H27   H     H_    0.181445 0.949828 0.578175 0.097584
H28   H     H_    0.126633 0.267936 0.530872 0.061884
H29   H     H_    0.681931 0.732263 0.470730 0.067234
H30   H     H_    0.516087 0.561551 0.823530 0.069350
H31   H     H_    0.467461 0.646371 0.931754 0.057657
H32   H     H_    0.560377 0.665094 0.056886 0.063565
H33   H     H_    0.286000 0.431181 0.187992 0.074074
H34   H     H_    0.152170 0.648544 0.656254 0.000630
H35   H     H_    0.236257 0.322697 0.950862 0.056092
H36   H     H_    0.808326 0.816688 0.319578 -0.110308
H37   H     H_    0.326978 0.342457 0.077078 0.055751
H38   H     H_    0.048268 0.386496 0.863906 0.071504
H39   H     H_    0.750811 0.601001 0.139940 0.074926
H40   H     H_    0.155321 0.442924 0.652120 0.047273
H41   H     H_    0.659706 0.552496 0.354500 0.065790
H42   H     H_    0.906016 0.012998 0.312828 0.079559
H43   H     H_    0.051812 0.975903 0.251840 0.128268
H44   H     H_    0.645427 0.339516 0.335122 0.009685
H45   H     H_    0.936482 0.617002 0.669005 0.077409
H46   H     H_    0.863281 0.385852 0.335956 0.046080
H47   H     H_    0.619003 0.131700 0.238179 0.151946
H48   H     H_    0.495329 0.236971 0.221186 0.137373
H49   H     H_    0.617293 0.189189 0.154312 0.112565
H50   H     H_    0.598105 0.798994 0.156012 0.136785
H51   H     H_    0.453560 0.847998 0.094420 0.145100
H52   H     H_    0.595591 0.942055 0.152888 0.135145
H53   H     H_    0.951035 0.163379 0.647536 0.066131
H54   H     H_    0.931151 0.033161 0.680925 0.057626
H55   H     H_    0.750903 0.091718 0.651862 0.162931
H56   H     H_    0.198313 0.765833 0.767877 0.127508
H57   H     H_    0.338097 0.251621 0.807847 0.261054
H58   H     H_    0.097766 0.634848 0.784402 0.063897
H59   H     H_    0.980201 0.744695 0.779000 0.126267
H60   H     H_    0.104849 0.232524 0.373082 0.019713
O1    O     O_2   0.160820 0.763040 0.533820 -0.463364
O2    O     O_2   0.773746 0.447022 0.749324 -0.458342
O3    O     O_3   0.770031 0.244224 0.749712 -0.512419
O4    O     O_3   0.890970 0.628600 0.535400 -0.495300
O5    O     O_3   0.427530 0.446070 0.416950 -0.486113
O6    O     O_2   0.637430 0.550200 0.669460 -0.447785
O7    O     O_3   0.493825 0.723986 0.690089 -0.647917
O8    O     O_2   0.505107 0.114379 0.543868 -0.489471
O9    O     O_3   0.444949 0.126168 0.675295 -0.585902
O10   O     O_3   0.385950 0.698560 0.408070 -0.464172
O11   O     O_2   0.312009 0.885546 0.458708 -0.481283
O12   O     O_3   0.311137 0.277359 0.324108 -0.646451
O13   O     O_3   0.015402 0.772659 0.646704 -0.645198
O14   O     O_3   0.355568 0.872716 0.325833 -0.595001
O15   O     O_2   0.172860 0.449730 0.330520 -0.469210
O16   O     O_3   0.962080 0.644700 0.373110 -0.484070
O17   O     O_2   0.060053 0.575122 0.249442 -0.477280
O18   O     O_3   0.420469 0.227711 0.777069 -0.677682
O19   O     O_3   0.987357 0.770300 0.255842 -0.587844
O20   O     O_2   0.649470 0.236890 0.466160 -0.457581
O21   O     O_3   0.919320 0.371390 0.464540 -0.499347
O22   O     O_3   0.424350 0.301430 0.591880 -0.449821
O23   O     O_3   0.795848 0.225939 0.353284 -0.652242
O24   O     O_3   0.382770 0.553920 0.582990 -0.486379
O25   O     O_3   0.848220 0.355290 0.626830 -0.472880
P1    P     P_3+3 0.986780 0.745970 0.554690 0.966959
P2    P     P_3+3 0.341450 0.417130 0.341310 0.981626
P3    P     P_3+3 0.933325 0.640726 0.281103 0.968858
P4    P     P_3+3 0.823520 0.254020 0.445250 0.966300
P5    P     P_3+3 0.872846 0.360961 0.720071 1.006523
P6    P     P_3+3 0.427483 0.838374 0.408577 0.956358
P7    P     P_3+3 0.462138 0.584760 0.671144 0.950794
P8    P     P_3+3 0.383904 0.161604 0.591166 0.986804

loop_
_geom_bond_atom_site_label_1
_geom_bond_atom_site_label_2
_ccdc_geom_bond_type
C6    C7    A    
C12   H7    S    
O6    P7    D    
O17   P3    D    
C36   H34   S    
C17   C18   A    
C19   P3    S    
C2    C6    A    
C34   H10   S    
C41   H52   S    
C10   C47   A    
C42   H55   S    
C43   O3    S    
O2    P5    D    
C43   C44   S    
C37   H58   S    
C38   O12   S    
C1    C41   S    
C24   C25   A    
Ba2   O25   S    
C4    H36   S    
C23   H8    S    
C40   H47   S    
O10   P6    S    
C9    P4    S    
C22   C24   A    
C15   H33   S    
C28   H44   S    
C40   H49   S    
C36   C37   S    
Ba2   O4    S    
C34   H13   S    
O23   P4    S    
C13   C14   A    
C18   H39   S    
Ba2   O20   S    
Ba1   Ba2   S    
Ba1   O10   S    
C35   C40   S    
C7    C11   A    
C39   H6    S    
Ba2   O21   S    
C45   O9    S    
C45   H20   S    
O20   P4    D    
C10   P8    S    
C14   C15   A    
C21   C22   A    
O11   P6    D    
C21   H31   S    
Ba1   P2    S    
C7    C8    A    
C20   C26   A    
C6    P1    S    
O3    P5    S    
O1    P1    D    
Ba1   O4    S    
C2    C5    A    
Ba1   O24   S    
C42   H54   S    
C31   C32   A    
C37   H59   S    
C4    C16   S    
Ba2   O24   S    
O15   P2    D    
Ba2   P4    S    
C20   H32   S    
C46   H25   S    
C41   H51   S    
Ba1   O21   S    
C23   O7    S    
O25   P5    S    
C3    C5    A    
C42   H53   S    
C31   H30   S    
O16   P3    S    
H57   O18   S    
C22   C32   S    
C28   C35   S    
C3    H26   S    
C25   H37   S    
O19   P3    S    
C30   C33   A    
C44   H19   S    
C28   H46   S    
C9    C47   A    
Ba1   O1    S    
Ba2   O6    S    
C45   C46   S    
C11   H27   S    
C13   C19   A    
C36   H45   S    
Ba2   O22   S    
C10   C11   A    
C45   O18   S    
C17   C26   S    
O22   P8    S    
C39   H4    S    
C30   P7    S    
C36   O13   S    
C1    C12   S    
O4    P1    S    
C33   H40   S    
C38   C39   S    
C34   H11   S    
C43   H16   S    
C29   C33   A    
C40   H48   S    
Ba1   O5    S    
C16   H42   S    
C46   H22   S    
C29   P5    S    
O21   P4    S    
C42   C43   S    
C4    H24   S    
C37   H56   S    
C24   H35   S    
C12   O14   S    
C46   H21   S    
O13   P1    S    
O9    P8    S    
C35   H12   S    
C1    H3    S    
C44   H17   S    
C38   H60   S    
C1    H14   S    
C2    H29   S    
C38   H2    S    
O24   P7    S    
Ba1   O16   S    
C16   H43   S    
C30   C31   A    
O8    P8    D    
Ba1   O15   S    
C4    O19   S    
C44   H18   S    
C27   C29   A    
C41   H50   S    
C13   H41   S    
Ba2   O5    S    
C16   H15   S    
C12   H1    S    
C28   O23   S    
C27   C32   A    
C15   C17   A    
C47   H28   S    
O12   P2    S    
C39   H5    S    
C27   H38   S    
C8    C9    A    
C23   C34   S    
O7    P7    S    
O14   P6    S    
C5    P6    S    
C3    C8    A    
C18   C19   A    
C23   H9    S    
C35   H23   S    
C25   C26   A    
O5    P2    S    
C20   C21   A    
Ba1   P1    S    
C14   P2    S    
