data_mof_unit_16059.cif
_audit_creation_date              2012-12-10T20:32:45-0500
_audit_creation_method            fapswitch 2.2
_symmetry_space_group_name_H-M    P1
_symmetry_Int_Tables_number       1
_space_group_crystal_system       triclinic
_cell_length_a                    11.512274
_cell_length_b                    10.723446
_cell_length_c                    9.900011
_cell_angle_alpha                 88.864364
_cell_angle_beta                  90.078
_cell_angle_gamma                 90.705906
_cell_volume                      1221.83515763

loop_
_atom_site_label
_atom_site_type_symbol
_atom_type_description
_atom_site_fract_x
_atom_site_fract_y
_atom_site_fract_z
_atom_type_partial_charge
C1    C     C_R   0.508494 0.260700 0.500738 0.897991
C2    C     C_R   0.585616 0.559468 0.070983 -0.042882
C3    C     C_R   0.587364 0.557232 0.926532 0.200881
C4    C     C_R   0.282028 0.499663 0.499942 0.919798
C5    C     C_R   0.417140 0.434897 0.930441 0.005534
C6    C     C_3   0.288369 0.453574 0.926095 -0.031254
C7    C     C_3   0.289991 0.449623 0.080389 -0.036150
C8    C     C_R   0.501450 0.740478 0.498075 0.892334
C9    C     C_R   0.717975 0.499841 0.500047 0.897519
C10   C     C_1   0.161581 0.499150 0.499857 -0.162732
C11   C     C_1   0.059323 0.498837 0.499927 -0.021324
C12   C     C_R   0.534440 0.130661 0.499707 -0.197074
C13   C     C_1   0.940669 0.498813 0.499996 -0.016106
C14   C     C_1   0.838420 0.499162 0.500039 -0.187878
C15   C     C_R   0.534628 0.060417 0.619007 0.030688
C16   C     C_3   0.709844 0.182307 0.256860 -0.737002
C17   C     C_3   0.107115 0.349396 0.148633 -0.769485
C18   C     C_1   0.521057 0.888113 0.238540 0.219992
C19   C     C_1   0.351246 0.117228 0.737593 0.125360
C20   C     C_3   0.659143 0.093094 0.868832 -0.776866
C21   C     C_1   0.672358 0.631137 0.141588 0.261943
C22   C     C_3   0.789429 0.562453 0.858740 -0.751551
C23   C     C_R   0.556133 0.070847 0.376176 0.169108
C24   C     C_3   0.133712 0.597580 0.862733 -0.782680
C25   C     C_R   0.536808 0.941936 0.370592 -0.085538
C26   C     C_R   0.519671 0.873023 0.493576 -0.177819
C27   C     C_R   0.532006 0.933485 0.615996 0.045004
C28   C     C_3   0.465144 0.920762 0.745700 -0.469022
C29   C     C_3   0.468354 0.063206 0.749794 0.224329
C30   C     C_R   0.418425 0.432724 0.072758 0.088114
H1    H     H_    0.241617 0.374902 0.877493 0.177117
H2    H     H_    0.072158 0.267462 0.206364 0.241561
H3    H     H_    0.083515 0.435096 0.202983 0.250474
H4    H     H_    0.066982 0.351469 0.046494 0.232869
H5    H     H_    0.513803 0.203033 0.887254 0.230824
H6    H     H_    0.693538 0.123939 0.967398 0.233598
H7    H     H_    0.703375 0.148782 0.787782 0.239393
H8    H     H_    0.679935 0.993031 0.858561 0.245953
H9    H     H_    0.681609 0.715163 0.873452 0.204362
H10   H     H_    0.830176 0.572897 0.959502 0.215091
H11   H     H_    0.847697 0.607563 0.782528 0.241120
H12   H     H_    0.265698 0.537895 0.129988 0.175739
H13   H     H_    0.781572 0.461533 0.836329 0.249335
H14   H     H_    0.303982 0.649789 0.908955 0.228454
H15   H     H_    0.118479 0.686604 0.806717 0.239438
H16   H     H_    0.096047 0.604000 0.965587 0.233489
H17   H     H_    0.089381 0.521260 0.807644 0.250364
H18   H     H_    0.377234 0.878930 0.730092 0.179567
H19   H     H_    0.515690 0.873268 0.826836 0.207612
H20   H     H_    0.561590 0.108673 0.166178 0.236182
H21   H     H_    0.767716 0.101071 0.245173 0.226948
H22   H     H_    0.732153 0.230846 0.351758 0.238275
H23   H     H_    0.724384 0.249046 0.171197 0.229027
H24   H     H_    0.258702 0.255848 0.100397 0.231125
N1    N     N_R   0.499240 0.499140 0.142800 -0.135987
N2    N     N_2   0.257152 0.575410 0.871282 -0.251846
N3    N     N_R   0.499240 0.499180 0.857150 -0.112919
N4    N     N_2   0.589672 0.141229 0.257911 -0.274996
N5    N     N_2   0.231923 0.339960 0.137855 -0.272620
N6    N     N_1   0.506751 0.847530 0.132261 -0.239118
N7    N     N_1   0.259487 0.159336 0.727709 -0.232478
N8    N     N_2   0.534617 0.112870 0.863476 -0.297049
N9    N     N_1   0.742385 0.689438 0.196908 -0.222625
N10   N     N_2   0.676683 0.621295 0.853124 -0.251423
O1    O     O_R   0.500010 0.316790 0.614690 -0.626920
O2    O     O_R   0.500000 0.316760 0.385350 -0.575286
O3    O     O_R   0.334450 0.500030 0.614670 -0.584964
O4    O     O_R   0.334440 0.500000 0.385330 -0.613059
O5    O     O_R   0.500000 0.683240 0.614650 -0.602947
O6    O     O_R   0.499990 0.683210 0.385310 -0.616556
O7    O     O_R   0.665560 0.500000 0.614670 -0.589580
O8    O     O_R   0.665550 0.499970 0.385330 -0.613642
Zn1   Zn    Zn3+2 0.500010 0.500020 0.653130 0.969669
Zn2   Zn    Zn3+2 0.499990 0.499980 0.346870 0.973195

loop_
_geom_bond_atom_site_label_1
_geom_bond_atom_site_label_2
_ccdc_geom_bond_type
O6    Zn2   S    
C4    O3    A    
C1    O1    A    
C9    C14   S    
C16   H21   S    
O5    Zn1   S    
C6    C7    S    
O3    Zn1   S    
C7    H12   S    
C23   N4    S    
O2    Zn2   S    
C20   H8    S    
C30   N1    A    
H14   N2    S    
C20   H6    S    
C8    O6    A    
C4    O4    A    
C12   C15   A    
C5    N3    A    
H24   N5    S    
C22   H10   S    
H9    N10   S    
C2    C21   S    
C1    O2    A    
C26   C27   A    
C24   H16   S    
N1    Zn2   S    
C7    C30   S    
C16   N4    S    
C3    N10   S    
C20   H7    S    
C11   C13   S    
C12   C23   A    
C8    O5    A    
C29   N8    S    
C18   C25   S    
C17   H3    S    
C17   N5    S    
C24   H15   S    
C3    N3    A    
C7    N5    S    
C28   C29   S    
N3    Zn1   S    
C19   N7    T    
C15   C29   S    
H5    N8    S    
C2    C3    A    
C2    N1    A    
C23   C25   A    
C20   N8    S    
C5    C6    S    
C21   N9    T    
C22   H11   S    
C24   N2    S    
C17   H4    S    
O4    Zn2   S    
C19   C29   S    
C9    O7    A    
C8    C26   S    
O8    Zn2   S    
C5    C30   A    
C10   C11   T    
O1    Zn1   S    
C18   N6    T    
C27   C28   S    
O7    Zn1   S    
C17   H2    S    
C16   H23   S    
C28   H18   S    
C9    O8    A    
C6    H1    S    
C22   N10   S    
C25   C26   A    
C13   C14   T    
C24   H17   S    
C4    C10   S    
C22   H13   S    
C1    C12   S    
C16   H22   S    
C6    N2    S    
C15   C27   A    
C28   H19   S    
H20   N4    S    
