data_mof_unit_51659.cif
_audit_creation_date              2012-12-11T15:49:47-0500
_audit_creation_method            fapswitch 2.2
_symmetry_space_group_name_H-M    P1
_symmetry_Int_Tables_number       1
_space_group_crystal_system       triclinic
_cell_length_a                    8.315456
_cell_length_b                    19.12769
_cell_length_c                    26.94437
_cell_angle_alpha                 95.348233
_cell_angle_beta                  92.974672
_cell_angle_gamma                 84.904898
_cell_volume                      4246.0191452

loop_
_atom_site_label
_atom_site_type_symbol
_atom_type_description
_atom_site_fract_x
_atom_site_fract_y
_atom_site_fract_z
_atom_type_partial_charge
Ba1   Ba    Ba6+2 0.854000 0.466860 0.523710 1.657191
Ba2   Ba    Ba6+2 0.335820 0.533080 0.476290 1.661702
C1    C     C_3   0.710785 0.221303 0.668787 -0.242031
C2    C     C_R   0.918809 0.568978 0.176828 0.640868
C3    C     C_2   0.764232 0.548413 0.271525 -0.093672
C4    C     C_3   0.172950 0.306512 0.659153 0.274512
C5    C     C_3   0.747368 0.571494 0.326350 -0.051088
C6    C     C_1   0.981266 0.488164 0.342676 0.012225
C7    C     C_2   0.017166 0.480889 0.294543 -0.095353
C8    C     C_2   0.902475 0.512170 0.255480 0.218879
C9    C     C_R   0.022320 0.504282 0.100941 -0.081192
C10   C     C_R   0.051271 0.443912 0.127395 -0.036056
C11   C     C_R   0.121242 0.381869 0.102477 -0.052563
C12   C     C_3   0.686282 0.289703 0.643253 0.293118
C13   C     C_R   0.954343 0.566916 0.125916 -0.039385
C14   C     C_2   0.854007 0.527409 0.360075 -0.286874
C15   C     C_2   0.376549 0.509709 0.643305 -0.182359
C16   C     C_3   0.146778 0.291233 0.712297 -0.349645
C17   C     C_R   0.184945 0.439124 0.974804 0.019266
C18   C     C_R   0.056905 0.559863 0.971099 0.020145
C19   C     C_R   0.140960 0.498731 0.947597 0.052142
C20   C     C_R   0.276026 0.381122 0.950332 -0.097146
C21   C     C_R   0.319143 0.381174 0.900929 -0.052976
C22   C     C_R   0.272405 0.438701 0.873216 -0.035464
C23   C     C_3   0.524989 0.653965 0.626836 0.299605
C24   C     C_R   0.181949 0.497379 0.896395 -0.076998
C25   C     C_R   0.133491 0.554996 0.868495 -0.033931
C26   C     C_R   0.175265 0.553218 0.818038 0.590514
C27   C     C_R   0.315405 0.438882 0.822920 0.582046
C28   C     C_3   0.185494 0.317966 0.418584 0.314555
C29   C     C_2   0.467919 0.488847 0.731904 -0.065891
C30   C     C_3   0.518871 0.499057 0.679810 -0.052825
C31   C     C_1   0.225665 0.520706 0.657636 0.039973
C32   C     C_2   0.183646 0.509959 0.703026 -0.120727
C33   C     C_2   0.310135 0.495834 0.743662 0.206653
C34   C     C_3   0.534724 0.682356 0.681455 -0.373132
C35   C     C_R   0.138164 0.439716 0.025365 0.019452
C36   C     C_R   0.061766 0.502223 0.049545 0.054013
C37   C     C_R   0.024745 0.562874 0.022929 0.018842
C38   C     C_R   0.164406 0.379798 0.052879 -0.096802
C39   C     C_R   0.924756 0.627033 0.099719 -0.046617
C40   C     C_3   0.192934 0.238713 0.405423 -0.360437
C41   C     C_R   0.006965 0.616031 0.941585 -0.097860
C42   C     C_R   0.044299 0.613516 0.891609 -0.058437
C43   C     C_R   0.958374 0.625119 0.049526 -0.097755
C44   C     C_R   0.404467 0.296669 0.524304 -0.283094
C45   C     C_3   0.020975 0.710983 0.337245 0.322442
C46   C     C_R   0.535868 0.274842 0.494718 0.020385
C47   C     C_R   0.580251 0.202389 0.485392 -0.106455
C48   C     C_R   0.491285 0.152082 0.504651 -0.010708
C49   C     C_R   0.349523 0.175750 0.530229 -0.144095
C50   C     C_R   0.303946 0.247972 0.538764 0.006698
C51   C     C_R   0.530215 0.031830 0.536194 -0.073160
C52   C     C_3   0.002596 0.678877 0.575990 0.305312
C53   C     C_R   0.578630 0.959718 0.530054 -0.070836
C54   C     C_R   0.641967 0.928679 0.484993 0.053338
C55   C     C_R   0.657446 0.972028 0.446404 -0.067066
C56   C     C_3   0.966335 0.767529 0.301470 -0.184895
C57   C     C_R   0.608738 0.044378 0.452544 -0.064979
C58   C     C_R   0.543770 0.075176 0.497502 0.055415
C59   C     C_R   0.835900 0.825281 0.455841 -0.150876
C60   C     C_R   0.883694 0.752707 0.452453 0.020108
C61   C     C_R   0.647555 0.731366 0.495223 0.051373
C62   C     C_R   0.597798 0.803451 0.498607 -0.114500
C63   C     C_R   0.690534 0.851420 0.478515 -0.014863
C64   C     C_3   0.975613 0.758350 0.587482 -0.379050
C65   C     C_R   0.785111 0.706058 0.469922 -0.272810
C66   C     C_3   0.674556 0.382476 0.376383 0.302360
C67   C     C_3   0.509054 0.719049 0.349533 0.255894
C68   C     C_3   0.674059 0.365873 0.320068 -0.346375
C69   C     C_2   0.552889 0.197888 0.682436 0.554629
C70   C     C_2   0.103661 0.646491 0.310424 0.593123
C71   C     C_2   0.894522 0.833448 0.329344 0.595596
C72   C     C_2   0.496138 0.779301 0.270732 0.506509
C73   C     C_2   0.374218 0.370148 0.543159 0.521037
C74   C     C_3   0.451361 0.785743 0.324295 -0.235910
C75   C     C_R   0.008454 0.446571 0.178041 0.596698
H1    H     H_    0.803203 0.298592 0.628071 0.103529
H2    H     H_    0.792045 0.228774 0.702579 0.136873
H3    H     H_    0.766539 0.321898 0.310262 0.135181
H4    H     H_    0.701508 0.412723 0.301855 0.070145
H5    H     H_    0.553149 0.350671 0.305820 0.138887
H6    H     H_    0.596111 0.283471 0.611713 0.011229
H7    H     H_    0.396573 0.645915 0.616239 0.024465
H8    H     H_    0.601998 0.603487 0.622320 0.026304
H9    H     H_    0.464196 0.734414 0.686595 0.136811
H10   H     H_    0.483976 0.645669 0.704858 0.073260
H11   H     H_    0.662661 0.688322 0.693851 0.130899
H12   H     H_    0.276736 0.223281 0.374749 0.132568
H13   H     H_    0.910680 0.694644 0.352855 -0.234982
H14   H     H_    0.070118 0.780053 0.280423 0.121360
H15   H     H_    0.475366 0.726780 0.389196 0.077886
H16   H     H_    0.504642 0.831732 0.345049 0.077338
H17   H     H_    0.127560 0.362235 0.655300 0.091342
H18   H     H_    0.318684 0.795746 0.325625 0.129653
H19   H     H_    0.134483 0.456413 0.283791 0.132324
H20   H     H_    0.143958 0.334209 0.121434 0.127472
H21   H     H_    0.561707 0.481330 0.760931 0.098457
H22   H     H_    0.389762 0.335373 0.884385 0.134175
H23   H     H_    0.236190 0.210417 0.438095 0.059865
H24   H     H_    0.319534 0.335056 0.968743 0.075470
H25   H     H_    0.674476 0.569956 0.245129 0.115777
H26   H     H_    0.304381 0.299297 0.652690 0.053042
H27   H     H_    0.002951 0.658263 0.871044 0.124851
H28   H     H_    0.057499 0.516650 0.712175 0.124776
H29   H     H_    0.934329 0.674288 0.032964 0.076572
H30   H     H_    0.840515 0.539249 0.399888 0.083993
H31   H     H_    0.405079 0.515558 0.605119 0.076452
H32   H     H_    0.490456 0.822153 0.518597 0.085966
H33   H     H_    0.568528 0.928385 0.561027 0.067741
H34   H     H_    0.070667 0.222808 0.393361 0.132094
H35   H     H_    0.484193 0.053931 0.571673 0.064610
H36   H     H_    0.704483 0.949723 0.411113 0.098092
H37   H     H_    0.017251 0.302586 0.720617 0.120020
H38   H     H_    0.619307 0.075931 0.421729 0.077314
H39   H     H_    0.272831 0.138345 0.542379 0.082123
H40   H     H_    0.824706 0.650501 0.468728 0.053668
H41   H     H_    0.184715 0.235164 0.717506 0.161649
H42   H     H_    0.106604 0.331682 0.450662 0.047235
H43   H     H_    0.091798 0.667551 0.546551 0.078113
H44   H     H_    0.587096 0.428754 0.384947 0.084530
H45   H     H_    0.887584 0.657537 0.562623 0.007498
H46   H     H_    0.769830 0.179281 0.642902 0.031064
H47   H     H_    0.463679 0.183269 0.653346 -0.049473
H48   H     H_    0.218886 0.325261 0.738581 0.153222
H49   H     H_    0.145052 0.602567 0.331636 0.013097
H50   H     H_    0.873518 0.747185 0.274029 0.107555
H51   H     H_    0.788817 0.831730 0.350858 -0.050457
H52   H     H_    0.642506 0.712007 0.348225 -0.049081
H53   H     H_    0.455165 0.736592 0.245169 0.068658
H54   H     H_    0.215510 0.329587 0.036805 0.075372
H55   H     H_    0.874433 0.676406 0.118013 0.133912
H56   H     H_    0.881309 0.771131 0.615398 0.140852
H57   H     H_    0.935372 0.662618 0.955703 0.073929
H58   H     H_    0.684909 0.185581 0.463662 0.081892
H59   H     H_    0.915145 0.861237 0.443137 0.091694
H60   H     H_    0.329360 0.409830 0.518808 0.043293
H61   H     H_    0.308557 0.333545 0.428558 -0.023929
H62   H     H_    0.936356 0.784113 0.553324 0.061968
H63   H     H_    0.089885 0.779714 0.602620 0.125117
H64   H     H_    0.797088 0.394836 0.390215 0.008814
N1    N     N_R   0.943223 0.508876 0.202674 -0.418752
N2    N     N_R   0.265100 0.495455 0.795508 -0.426888
O1    O     O_2   0.913240 0.537010 0.617740 -0.475738
O2    O     O_2   0.215286 0.750338 0.468363 -0.482425
O3    O     O_3   0.131182 0.738464 0.373953 -0.619040
O4    O     O_3   0.145240 0.536960 0.557560 -0.496526
O5    O     O_3   0.557280 0.416300 0.475860 -0.519215
O6    O     O_2   0.376710 0.670070 0.522470 -0.461378
O7    O     O_3   0.581629 0.702964 0.598090 -0.641940
O8    O     O_2   0.434692 0.523647 0.322944 -0.484036
O9    O     O_3   0.435905 0.660783 0.325223 -0.583713
O10   O     O_2   0.027631 0.393044 0.199845 -0.592151
O11   O     O_2   0.397516 0.388509 0.803593 -0.578204
O12   O     O_3   0.631111 0.323439 0.397877 -0.628476
O13   O     O_2   0.867740 0.625045 0.198265 -0.581026
O14   O     O_2   0.133997 0.603889 0.794451 -0.596831
O15   O     O_3   0.669960 0.410470 0.588880 -0.454354
O16   O     O_2   0.842440 0.437416 0.673004 -0.515271
O17   O     O_3   0.059744 0.649713 0.619852 -0.627516
O18   O     O_3   0.633244 0.346018 0.677606 -0.579893
O19   O     O_2   0.812980 0.329910 0.477500 -0.460372
O20   O     O_3   0.078660 0.374870 0.564770 -0.469837
O21   O     O_2   0.965049 0.249570 0.535076 -0.490601
O22   O     O_2   0.524335 0.194446 0.726077 -0.543543
O23   O     O_3   0.089051 0.259938 0.626090 -0.615151
O24   O     O_2   0.131624 0.643367 0.266190 -0.574418
O25   O     O_2   0.954467 0.889197 0.328098 -0.558224
O26   O     O_2   0.576887 0.822317 0.255392 -0.563017
O27   O     O_2   0.376509 0.384676 0.588001 -0.650325
O28   O     O_2   0.276450 0.462960 0.382230 -0.459404
O29   O     O_3   0.044470 0.462980 0.442430 -0.507050
O30   O     O_3   0.519740 0.589470 0.411120 -0.479150
O31   O     O_3   0.123839 0.350734 0.376642 -0.617983
O32   O     O_3   0.632420 0.583650 0.524140 -0.480710
O33   O     O_3   0.111040 0.625070 0.435230 -0.489230
P1    P     P_3+3 0.082480 0.557670 0.610090 1.003676
P2    P     P_3+3 0.635220 0.340300 0.462910 0.973004
P3    P     P_3+3 0.107621 0.282125 0.565280 0.956295
P4    P     P_3+3 0.107220 0.442270 0.389900 0.984840
P5    P     P_3+3 0.085260 0.716978 0.432979 0.958801
P6    P     P_3+3 0.666703 0.426010 0.654271 1.030852
P7    P     P_3+3 0.562029 0.672791 0.534913 0.949990
P8    P     P_3+3 0.534600 0.583874 0.346312 0.961077

loop_
_geom_bond_atom_site_label_1
_geom_bond_atom_site_label_2
_ccdc_geom_bond_type
C21   H22   S    
C53   C54   A    
C4    O23   S    
C28   H61   S    
C52   H43   S    
C41   H57   S    
C19   C24   A    
C66   O12   S    
C1    H2    S    
C16   H37   S    
C46   P2    S    
C42   H27   S    
O8    P8    D    
C34   H11   S    
C24   C25   A    
C20   H24   S    
C72   C74   S    
C5    P8    S    
C30   P6    S    
Ba1   O15   S    
C17   C19   A    
C22   C24   A    
Ba1   Ba2   S    
C35   C38   A    
C16   H48   S    
C2    N1    Am   
C36   C37   A    
C74   H16   S    
C55   C57   A    
C28   H42   S    
Ba2   O5    S    
C54   C63   S    
C27   N2    Am   
C44   C50   A    
C54   C55   A    
C67   C74   S    
C32   C33   S    
C8    N1    S    
C29   H21   S    
O18   P6    S    
C68   H4    S    
C6    P4    S    
C75   N1    Am   
C72   O26   D    
C17   C35   A    
C14   H30   S    
Ba2   O33   S    
C22   C27   A    
C9    C13   A    
C25   C42   A    
C64   H62   S    
O30   P8    S    
C6    C7    D    
C4    H17   S    
C59   H59   S    
C23   H7    S    
C21   C22   A    
O2    P5    D    
O9    P8    S    
C67   H15   S    
C56   H14   S    
C16   H41   S    
O12   P2    S    
Ba2   O28   S    
C37   C43   A    
C75   O10   D    
O29   P4    S    
Ba2   O6    S    
C52   H45   S    
C45   O3    S    
C57   C58   A    
C6    C14   D    
C67   O9    S    
C15   C31   D    
C12   H6    S    
C71   O25   D    
C44   C73   S    
C51   C58   A    
C1    H46   S    
C31   C32   D    
C44   C46   A    
C51   C53   A    
C34   H10   S    
O33   P5    S    
C4    C16   S    
C61   C65   A    
C61   P7    S    
C68   H3    S    
C49   C50   A    
O17   P1    S    
C69   H47   S    
C17   C20   A    
C13   C39   A    
C73   H60   S    
C15   H31   S    
C3    C5    S    
C18   C37   A    
O1    P1    D    
C55   H36   S    
C34   H9    S    
Ba2   O4    S    
C31   P1    S    
C47   H58   S    
C70   H49   S    
C23   O7    S    
C9    C36   A    
C1    C69   S    
C40   H34   S    
C35   C36   A    
C40   H23   S    
Ba2   O32   S    
C64   H56   S    
O15   P6    S    
Ba1   P2    S    
O4    P1    S    
C29   C30   S    
C10   C75   A    
C73   O27   D    
C23   H8    S    
C48   C49   A    
C66   H64   S    
C26   N2    Am   
C4    H26   S    
C18   C19   A    
C74   H18   S    
C65   H40   S    
C7    H19   S    
O21   P3    D    
C60   C65   A    
C51   H35   S    
C57   H38   S    
C46   C47   A    
C2    O13   D    
C38   H54   S    
Ba1   O19   S    
C72   H53   S    
C41   C42   A    
O20   P3    S    
C70   O24   D    
C29   C33   D    
O28   P4    D    
Ba1   O4    S    
C11   C38   A    
O31   P4    S    
C18   C41   A    
C43   H29   S    
O32   P7    S    
C7    C8    S    
C3    H25   S    
Ba1   O32   S    
O5    P2    S    
O3    P5    S    
C32   H28   S    
C5    C14   S    
C66   H44   S    
C39   H55   S    
C9    C10   A    
O7    P7    S    
C52   C64   S    
C1    C12   S    
C71   H51   S    
Ba1   O29   S    
C49   H39   S    
Ba2   P4    S    
C40   H12   S    
C48   C58   S    
C62   C63   A    
C2    C13   A    
C50   P3    S    
C3    C8    D    
Ba2   O30   S    
Ba1   O1    S    
C45   C56   S    
C62   H32   S    
C12   O18   S    
C67   H52   S    
C26   O14   D    
C45   H13   S    
C12   H1    S    
O16   P6    D    
C11   H20   S    
C59   C60   A    
C68   H5    S    
C45   C70   S    
O19   P2    D    
C23   C34   S    
C52   O17   S    
C61   C62   A    
C53   H33   S    
C59   C63   A    
C56   H50   S    
C64   H63   S    
C10   C11   A    
Ba1   O20   S    
C66   C68   S    
C47   C48   A    
C69   O22   D    
Ba2   O29   S    
C25   C26   A    
O6    P7    D    
C15   C30   S    
C39   C43   A    
C20   C21   A    
C28   C40   S    
Ba1   O5    S    
O23   P3    S    
Ba1   P1    S    
C28   O31   S    
C56   C71   S    
C33   N2    S    
C27   O11   D    
C60   P5    S    
