data_mof_unit_11758.cif
_audit_creation_date              2012-12-11T14:43:41-0500
_audit_creation_method            fapswitch 2.2
_symmetry_space_group_name_H-M    P1
_symmetry_Int_Tables_number       1
_space_group_crystal_system       triclinic
_cell_length_a                    20.920965
_cell_length_b                    7.090673
_cell_length_c                    16.468579
_cell_angle_alpha                 88.877927
_cell_angle_beta                  92.959997
_cell_angle_gamma                 89.111495
_cell_volume                      2438.94926026

loop_
_atom_site_label
_atom_site_type_symbol
_atom_type_description
_atom_site_fract_x
_atom_site_fract_y
_atom_site_fract_z
_atom_type_partial_charge
O1    O     O_R   0.564840 0.505290 0.579830 -0.510256
O2    O     O_R   0.435160 0.005290 0.420170 -0.548311
O3    O     O_R   0.556720 0.179930 0.409350 -0.542647
O4    O     O_R   0.443280 0.679930 0.590650 -0.534084
C1    C     C_R   0.570503 0.345610 0.381673 0.726044
C2    C     C_R   0.429480 0.844293 0.618286 0.736924
O5    O     O_R   0.572280 0.175810 0.578530 -0.542949
O6    O     O_R   0.427720 0.675810 0.421470 -0.514273
O7    O     O_R   0.450830 0.001920 0.590540 -0.542887
O8    O     O_R   0.549170 0.501920 0.409460 -0.535952
C3    C     C_R   0.591287 0.341885 0.603446 0.766025
C4    C     C_R   0.409419 0.847113 0.396052 0.767016
O9    O     O_3   0.460130 0.338030 0.503750 -0.370814
O10   O     O_3   0.539870 0.838030 0.496250 -0.357232
V1    V     V_3+5 0.507400 0.064560 0.499310 1.534574
V2    V     V_3+5 0.492600 0.564560 0.500690 1.585570
C5    C     C_R   0.139786 0.898077 0.172136 -0.134121
C6    C     C_R   0.858829 0.429418 0.828451 -0.131968
C7    C     C_R   0.355131 0.868565 0.334412 -0.180708
C8    C     C_R   0.647601 0.339835 0.663072 -0.191751
C9    C     C_R   0.310733 0.034832 0.212323 0.431404
C10   C     C_R   0.708857 0.168242 0.772471 0.425344
C11   C     C_R   0.361503 0.995286 0.268915 -0.223641
C12   C     C_R   0.655352 0.186505 0.718298 -0.205069
C13   C     C_R   0.295878 0.779761 0.343492 0.350318
C14   C     C_R   0.695655 0.478222 0.662306 0.353044
C15   C     C_R   0.243600 0.820182 0.286787 -0.037458
C16   C     C_R   0.750343 0.460927 0.717131 -0.028714
C17   C     C_R   0.251031 0.948673 0.220681 0.006073
C18   C     C_R   0.756955 0.305406 0.772830 0.005225
C19   C     C_R   0.198729 0.986977 0.164383 -0.130957
C20   C     C_R   0.811300 0.291402 0.827736 -0.121249
C21   C     C_R   0.132455 0.774584 0.239015 0.360840
C22   C     C_R   0.852764 0.579796 0.770789 0.385894
C23   C     C_R   0.183628 0.736780 0.295179 -0.065002
C24   C     C_R   0.799241 0.594790 0.716715 -0.040328
H1    H     H_    0.203921 0.080683 0.112552 0.199340
H2    H     H_    0.816150 0.176659 0.872040 0.203007
H3    H     H_    0.175681 0.640489 0.345252 0.221305
H4    H     H_    0.796662 0.713560 0.674417 0.213163
H5    H     H_    0.406629 0.065413 0.261910 0.172140
H6    H     H_    0.619324 0.078385 0.719249 0.185118
C25   C     C_R   0.384985 0.793664 0.834809 0.432049
C26   C     C_R   0.612413 0.428609 0.165860 0.429412
H7    H     H_    0.472032 0.784074 0.771675 0.160759
H8    H     H_    0.525798 0.403313 0.229032 0.162177
C27   C     C_R   0.390852 0.848721 0.690220 -0.121100
C28   C     C_R   0.608870 0.359052 0.309669 -0.119067
C29   C     C_R   0.083923 0.966989 0.738666 -0.180342
C30   C     C_R   0.917680 0.351254 0.260316 -0.157175
C31   C     C_R   0.118567 0.986094 0.669565 0.458794
C32   C     C_R   0.884101 0.314501 0.329060 0.461232
C33   C     C_R   0.184389 0.953947 0.673618 -0.166523
C34   C     C_R   0.817614 0.324666 0.325302 -0.175908
C35   C     C_R   0.217756 0.897124 0.747235 -0.000025
C36   C     C_R   0.782313 0.375937 0.252342 0.002071
C37   C     C_R   0.181631 0.871354 0.818680 -0.010630
C38   C     C_R   0.817106 0.420015 0.181285 -0.015749
C39   C     C_R   0.286069 0.866836 0.751675 0.053934
C40   C     C_R   0.713402 0.382544 0.248151 0.056860
C41   C     C_R   0.317644 0.819028 0.827996 -0.044115
C42   C     C_R   0.680174 0.425745 0.172423 -0.046306
C43   C     C_R   0.281602 0.790296 0.895864 -0.096068
C44   C     C_R   0.714731 0.471953 0.104940 -0.103804
C45   C     C_R   0.215339 0.808492 0.891591 0.313055
C46   C     C_R   0.781145 0.475903 0.108980 0.317503
C47   C     C_R   0.324369 0.879618 0.682763 -0.161431
C48   C     C_R   0.675978 0.350377 0.316802 -0.164728
C49   C     C_R   0.420672 0.808159 0.766117 -0.187252
C50   C     C_R   0.577660 0.396099 0.234306 -0.184969
C51   C     C_R   0.113813 0.911609 0.813429 -0.141328
C52   C     C_R   0.885947 0.403322 0.186257 -0.138854
H9    H     H_    0.207987 0.977453 0.617888 0.162919
H10   H     H_    0.795162 0.288447 0.380675 0.158195
O11   O     O_R   0.950790 0.256670 0.090520 -0.551294
O12   O     O_R   0.049210 0.756670 0.909480 -0.507085
O13   O     O_R   0.927720 0.590370 0.921470 -0.492816
O14   O     O_R   0.072280 0.090370 0.078530 -0.549838
C53   C     C_R   0.911696 0.424888 0.892738 0.799320
C54   C     C_R   0.088202 0.919204 0.106946 0.804704
O15   O     O_R   0.943270 0.586180 0.090640 -0.505208
O16   O     O_R   0.056730 0.086180 0.909360 -0.551041
O17   O     O_R   0.064850 0.759970 0.079840 -0.499596
O18   O     O_R   0.935150 0.259970 0.920160 -0.550162
C55   C     C_R   0.927589 0.416729 0.116134 0.804271
C56   C     C_R   0.072135 0.917444 0.883616 0.806726
O19   O     O_3   0.039850 0.428050 0.996240 -0.365711
O20   O     O_3   0.960150 0.928050 0.003760 -0.367181
V3    V     V_3+5 0.992610 0.701540 0.000700 1.711981
V4    V     V_3+5 0.007390 0.201540 0.999300 1.577844
H11   H     H_    0.304234 0.907125 0.622110 0.138098
H12   H     H_    0.697033 0.324745 0.377130 0.128963
H13   H     H_    0.032982 0.998785 0.734236 0.191083
H14   H     H_    0.969385 0.335594 0.264404 0.190611
Cl1   Cl    Cl    0.079214 0.057196 0.576979 -0.453860
Cl2   Cl    Cl    0.925900 0.248438 0.420682 -0.452040
Cl3   Cl    Cl    0.179853 0.729479 0.979822 -0.662391
Cl4   Cl    Cl    0.813066 0.570563 0.021083 -0.638306
Cl5   Cl    Cl    0.058822 0.667138 0.256224 -0.611654
Cl6   Cl    Cl    0.912162 0.751808 0.761386 -0.617725
Cl7   Cl    Cl    0.324366 0.196303 0.132466 -0.543037
Cl8   Cl    Cl    0.713729 0.967828 0.837863 -0.559941
Cl9   Cl    Cl    0.286546 0.627979 0.428685 -0.634208
Cl10  Cl    Cl    0.689376 0.666326 0.589586 -0.633455
H15   H     H_    0.304719 0.745519 0.953495 0.232096
H16   H     H_    0.690007 0.512795 0.047795 0.231181
Cl11  Cl    Cl    0.427380 0.739265 0.928040 -0.477470
Cl12  Cl    Cl    0.568155 0.476622 0.073355 -0.484440

loop_
_geom_bond_atom_site_label_1
_geom_bond_atom_site_label_2
_ccdc_geom_bond_type
C43   C45   A    
C35   C39   A    
C15   C17   A    
C12   H6    S    
C23   H3    S    
O1    C3    A    
O2    C4    A    
C2    O7    A    
C52   C55   S    
O14   V4    S    
O5    C3    A    
O13   V3    S    
C48   H12   S    
C5    C21   A    
C53   O18   A    
O14   C54   A    
C40   C42   A    
C41   C43   A    
C30   C52   A    
C27   C49   A    
C42   C44   A    
O11   V4    S    
C39   C47   A    
C34   H10   S    
O11   C55   A    
C8    C12   A    
C6    C53   S    
C29   C31   A    
C22   Cl6   S    
C26   C50   A    
C20   H2    S    
C43   H15   S    
C26   Cl12  S    
O12   V3    S    
O15   V3    S    
O13   C53   A    
O6    V2    S    
O18   V4    S    
C54   O17   A    
C10   Cl8   S    
C27   C47   A    
C32   C34   A    
C33   C35   A    
O17   V3    S    
C1    C28   S    
C34   C36   A    
C3    C8    S    
C39   C41   A    
C2    C27   S    
H7    C49   S    
C24   H4    S    
O4    C2    A    
C37   C45   A    
C13   Cl9   S    
O5    V1    S    
C15   C23   A    
O16   C56   A    
C9    C17   A    
C5    C54   S    
C37   C51   A    
C36   C40   A    
C21   Cl5   S    
C44   C46   A    
O4    V2    S    
C7    C11   A    
C51   C56   S    
C30   C32   A    
O6    C4    A    
C47   H11   S    
O1    V2    S    
C25   Cl11  S    
C28   C48   A    
O2    V1    S    
C6    C22   A    
C40   C48   A    
O20   V4    S    
C35   C37   A    
C5    C19   A    
C10   C12   A    
O19   V4    S    
C6    C20   A    
O12   C56   A    
O3    V1    S    
C25   C41   A    
C38   C46   A    
C10   C18   A    
C33   H9    S    
C30   H14   S    
C28   C50   A    
O3    C1    A    
C11   H5    S    
C44   H16   S    
C13   C15   A    
C14   C16   A    
O16   V4    S    
C29   H13   S    
C26   C42   A    
C46   Cl4   S    
C9    C11   A    
O7    V1    S    
C9    Cl7   S    
C1    O8    A    
C17   C19   A    
O8    V2    S    
C18   C20   A    
C38   C52   A    
C8    C14   A    
C4    C7    S    
C16   C18   A    
C21   C23   A    
C36   C38   A    
C32   Cl2   S    
C22   C24   A    
C7    C13   A    
C14   Cl10  S    
H8    C50   S    
C45   Cl3   S    
C19   H1    S    
O20   V3    S    
C16   C24   A    
C25   C49   A    
C29   C51   A    
O9    V2    S    
O19   V3    S    
O10   V1    S    
C31   C33   A    
O15   C55   A    
C31   Cl1   S    
