data_mof_unit_33466.cif
_audit_creation_date              2012-12-10T18:33:38-0500
_audit_creation_method            fapswitch 2.2
_symmetry_space_group_name_H-M    P1
_symmetry_Int_Tables_number       1
_space_group_crystal_system       triclinic
_cell_length_a                    10.538236
_cell_length_b                    15.065346
_cell_length_c                    15.528897
_cell_angle_alpha                 82.498667
_cell_angle_beta                  89.909849
_cell_angle_gamma                 104.731899
_cell_volume                      2362.39398702

loop_
_atom_site_label
_atom_site_type_symbol
_atom_type_description
_atom_site_fract_x
_atom_site_fract_y
_atom_site_fract_z
_atom_type_partial_charge
C1    C     C_R   0.478883 0.441937 0.661900 0.899899
C2    C     C_R   0.516673 0.557852 0.338095 0.920143
C3    C     C_R   0.443707 0.469272 0.810818 -0.239866
C4    C     C_R   0.490206 0.526024 0.188381 -0.184346
C5    C     C_R   0.417785 0.440972 0.899536 0.082217
C6    C     C_R   0.452888 0.546410 0.103654 0.088493
C7    C     C_R   0.402892 0.346236 0.931620 0.179716
C8    C     C_R   0.450510 0.638813 0.073467 0.163259
C9    C     C_R   0.416730 0.505914 0.957605 0.057483
C10   C     C_R   0.423785 0.477784 0.047436 0.071707
C11   C     C_R   0.401243 0.382100 0.078104 -0.199957
C12   C     C_R   0.411289 0.598161 0.929099 -0.176817
C13   C     C_R   0.388695 0.317264 0.020731 -0.230890
C14   C     C_R   0.425627 0.662982 0.986737 -0.202120
C15   C     C_R   0.686099 0.844784 0.640585 -0.330788
C16   C     C_R   0.302821 0.151738 0.366773 -0.332465
C17   C     C_R   0.651953 0.754419 0.621703 0.108102
C18   C     C_R   0.325814 0.239179 0.392299 0.099754
C19   C     C_R   0.526414 0.796331 0.503433 -0.077267
C20   C     C_R   0.498105 0.210211 0.481486 -0.074704
C21   C     C_R   0.555738 0.889306 0.521813 0.005261
C22   C     C_R   0.472684 0.118093 0.461080 0.004444
C23   C     C_R   0.742573 0.501680 0.498504 0.945137
C24   C     C_R   0.257310 0.498441 0.501444 0.939087
C25   C     C_R   0.640061 0.912421 0.590700 0.153889
C26   C     C_R   0.375925 0.091551 0.399940 0.156189
C27   C     C_R   0.501919 0.958997 0.476652 0.089109
C28   C     C_R   0.535620 0.050765 0.500792 0.087414
C29   C     C_R   0.626344 0.070830 0.566545 -0.226012
C30   C     C_R   0.411525 0.938988 0.410706 -0.232110
C31   C     C_R   0.676662 0.002559 0.610912 -0.184998
C32   C     C_R   0.349105 0.004021 0.373742 -0.192099
C33   C     C_3   0.929573 0.435109 0.561367 -0.252527
C34   C     C_3   0.070222 0.565802 0.438365 -0.259056
C35   C     C_3   0.044397 0.516541 0.577795 0.026772
C36   C     C_3   0.955223 0.484360 0.421865 0.023161
C37   C     C_3   0.121660 0.497361 0.502111 -0.049237
C38   C     C_3   0.878160 0.503374 0.497654 -0.043557
C39   C     C_3   0.008464 0.415774 0.484735 -0.211079
C40   C     C_3   0.991138 0.585068 0.514980 -0.175011
C41   C     C_R   0.452015 0.406534 0.754029 -0.035218
C42   C     C_R   0.507639 0.590954 0.246271 -0.045043
C43   C     C_R   0.405854 0.282173 0.874121 -0.192418
C44   C     C_R   0.473917 0.705760 0.130582 -0.186325
C45   C     C_R   0.430355 0.312235 0.785475 -0.196257
C46   C     C_R   0.500115 0.681472 0.217290 -0.205900
H1    H     H_    0.573538 0.237562 0.524560 0.135831
H2    H     H_    0.466085 0.772941 0.450920 0.130607
H3    H     H_    0.748788 0.862245 0.694576 0.165071
H4    H     H_    0.225778 0.130009 0.321827 0.169665
H5    H     H_    0.657827 0.138131 0.587431 0.136823
H6    H     H_    0.383221 0.872594 0.387769 0.135271
H7    H     H_    0.017054 0.346160 0.474485 0.191322
H8    H     H_    0.981639 0.654116 0.527200 0.190223
H9    H     H_    0.512441 0.732696 0.261570 0.155156
H10   H     H_    0.434465 0.262257 0.742037 0.158859
H11   H     H_    0.743199 0.020214 0.662872 0.148068
H12   H     H_    0.276603 0.984758 0.325436 0.146391
N1    N     N_R   0.574200 0.731700 0.552740 -0.137778
N2    N     N_R   0.425800 0.268300 0.447260 -0.136760
O1    O     O_R   0.462600 0.383110 0.605620 -0.640652
O2    O     O_R   0.537400 0.616890 0.394380 -0.647885
O3    O     O_R   0.510210 0.531900 0.639510 -0.600031
O4    O     O_R   0.489790 0.468100 0.360490 -0.557126
O5    O     O_R   0.662240 0.425610 0.483080 -0.612007
O6    O     O_R   0.337760 0.574390 0.516920 -0.604303
O7    O     O_R   0.709860 0.574400 0.516970 -0.586103
O8    O     O_R   0.290140 0.425600 0.483030 -0.615878
Zn1   Zn    Zn3+2 0.468210 0.400660 0.477370 0.989803
Zn2   Zn    Zn3+2 0.531790 0.599340 0.522630 0.989670
C47   C     C_2   0.088838 0.534404 0.666919 0.904011
O9    O     O_2   0.011980 0.548714 0.719185 -0.592634
O10   O     O_R   0.216719 0.534688 0.690144 -0.817094
H13   H     H_    0.233863 0.548467 0.751818 0.333570
C48   C     C_2   0.908780 0.468267 0.332606 0.889031
O11   O     O_2   0.984343 0.454938 0.278896 -0.611873
O12   O     O_R   0.780794 0.469728 0.310660 -0.816451
H14   H     H_    0.761846 0.458350 0.248490 0.339114
C49   C     C_2   0.233475 0.293979 0.360166 0.923708
O13   O     O_2   0.272666 0.371376 0.319999 -0.599121
O14   O     O_R   0.098768 0.251636 0.367598 -0.831371
H15   H     H_    0.044402 0.292167 0.337247 0.362422
C50   C     C_2   0.701474 0.686695 0.680186 0.942327
O15   O     O_2   0.778307 0.647677 0.652977 -0.594392
O16   O     O_R   0.671022 0.675200 0.769243 -0.837461
H16   H     H_    0.713625 0.629338 0.803774 0.354063
H17   H     H_    0.868821 0.382285 0.611827 0.154810
H18   H     H_    0.131032 0.618591 0.387905 0.158624
H19   H     H_    0.373458 0.244733 0.046353 0.148482
H20   H     H_    0.420985 0.732919 0.962757 0.151828
H21   H     H_    0.506922 0.459209 0.210565 0.167357
H22   H     H_    0.462550 0.541213 0.784889 0.194608
H23   H     H_    0.392578 0.209405 0.897983 0.139271
H24   H     H_    0.470153 0.776280 0.108483 0.139212
H25   H     H_    0.390092 0.355293 0.146402 0.168561
H26   H     H_    0.392441 0.621649 0.862901 0.159995

loop_
_geom_bond_atom_site_label_1
_geom_bond_atom_site_label_2
_ccdc_geom_bond_type
C25   C31   A    
C38   C40   S    
C26   C32   A    
C34   C37   S    
O10   H13   S    
C32   H12   S    
O14   H15   S    
C39   H7    S    
O16   H16   S    
C33   C39   S    
C34   C40   S    
C28   C29   A    
C35   C37   S    
C16   H4    S    
C15   C25   A    
C11   H25   S    
O2    Zn2   S    
C42   C46   A    
C23   O7    A    
C14   H20   S    
C30   H6    S    
C33   C35   S    
C45   H10   S    
C2    O4    A    
C18   C49   S    
C46   H9    S    
C7    C43   A    
C20   N2    A    
C9    C10   A    
C24   O6    A    
C4    H21   S    
C21   C27   A    
C35   C47   S    
C22   C28   A    
C27   C30   A    
C1    O3    A    
C44   C46   A    
C16   C26   A    
C4    C6    A    
C49   O14   S    
C19   H2    S    
O8    Zn1   S    
C6    C8    A    
C19   N1    A    
O12   H14   S    
C3    H22   S    
C17   C50   S    
C48   O11   D    
C5    C9    A    
C36   C48   S    
C48   O12   S    
C50   O15   D    
O3    Zn2   S    
C24   C37   S    
C16   C18   A    
C34   H18   S    
O4    Zn1   S    
C43   C45   A    
C17   N1    A    
C18   N2    A    
C50   O16   S    
C20   C22   A    
C40   H8    S    
C5    C7    A    
C29   H5    S    
C1    C41   S    
C15   C17   A    
C21   C25   A    
C3    C41   A    
C8    C14   A    
C13   H19   S    
C36   C39   S    
C8    C44   A    
C12   C14   A    
C3    C5    A    
C1    O1    A    
C6    C10   A    
C23   C38   S    
C33   C38   S    
O7    Zn2   S    
O1    Zn1   S    
C23   O5    A    
C36   C38   S    
C35   C40   S    
C33   H17   S    
C47   O9    D    
C37   C39   S    
C30   C32   A    
C11   C13   A    
C31   H11   S    
O6    Zn2   S    
C4    C42   A    
N2    Zn1   S    
C2    C42   S    
O5    Zn1   S    
C43   H23   S    
C34   C36   S    
C15   H3    S    
C9    C12   A    
C20   H1    S    
C44   H24   S    
C10   C11   A    
C24   O8    A    
N1    Zn2   S    
C49   O13   D    
C7    C13   A    
C29   C31   A    
C22   C26   A    
C47   O10   S    
C27   C28   A    
C41   C45   A    
C12   H26   S    
C2    O2    A    
C19   C21   A    
