data_mof_unit_54275.cif
_audit_creation_date              2012-12-10T19:03:36-0500
_audit_creation_method            fapswitch 2.2
_symmetry_space_group_name_H-M    P1
_symmetry_Int_Tables_number       1
_space_group_crystal_system       triclinic
_cell_length_a                    15.87468
_cell_length_b                    10.832864
_cell_length_c                    9.55338
_cell_angle_alpha                 90.280108
_cell_angle_beta                  89.972146
_cell_angle_gamma                 90.054775
_cell_volume                      1642.85746138

loop_
_atom_site_label
_atom_site_type_symbol
_atom_type_description
_atom_site_fract_x
_atom_site_fract_y
_atom_site_fract_z
_atom_type_partial_charge
C1    C     C_R   0.498314 0.262393 0.499630 0.789966
C2    C     C_3   0.950828 0.436702 0.631987 -0.366296
C3    C     C_3   0.917126 0.502946 0.499998 0.319226
C4    C     C_3   0.951380 0.636972 0.499615 -0.387656
C5    C     C_3   0.049035 0.636561 0.499785 -0.369117
C6    C     C_1   0.824984 0.502699 0.499916 -0.110217
C7    C     C_1   0.174857 0.501664 0.500174 -0.120283
C8    C     C_1   0.250456 0.500945 0.500148 -0.189233
C9    C     C_R   0.484639 0.064597 0.624096 0.123448
C10   C     C_R   0.489867 0.129400 0.498597 -0.098008
C11   C     C_R   0.483708 0.063780 0.371688 -0.222885
C12   C     C_R   0.340191 0.500170 0.500079 0.825940
C13   C     C_R   0.484327 0.935072 0.372106 -0.229948
C14   C     C_R   0.491071 0.871011 0.499435 -0.097785
C15   C     C_R   0.485362 0.937499 0.624630 0.137484
C16   C     C_3   0.539476 0.933576 0.752409 -0.499922
C17   C     C_3   0.538133 0.073555 0.752139 -0.451844
C18   C     C_R   0.572466 0.522112 0.073697 0.175526
C19   C     C_R   0.430525 0.465607 0.074107 -0.095236
C20   C     C_R   0.430472 0.465811 0.925549 -0.091712
C21   C     C_R   0.572721 0.520873 0.926522 0.168218
C22   C     C_3   0.627506 0.632519 0.919912 0.236426
C23   C     C_R   0.498937 0.737758 0.500125 0.780551
C24   C     C_3   0.625794 0.635430 0.080028 0.242316
C25   C     C_R   0.659770 0.500443 0.499926 0.827161
C26   C     C_3   0.048443 0.436212 0.632019 -0.384154
C27   C     C_3   0.048590 0.434557 0.368540 -0.384511
C28   C     C_3   0.950978 0.434964 0.368462 -0.365588
C29   C     C_1   0.749430 0.501694 0.499882 -0.124470
C30   C     C_3   0.082652 0.502271 0.500136 0.334392
Cu1   Cu    Cu3+1 0.500000 0.499980 0.640670 0.951738
Cu2   Cu    Cu3+1 0.500000 0.500020 0.359330 0.951544
H1    H     H_    0.927133 0.340000 0.634767 0.160958
H2    H     H_    0.071952 0.483300 0.728198 0.160415
H3    H     H_    0.927486 0.484146 0.728069 0.174315
H4    H     H_    0.928246 0.686678 0.405547 0.151569
H5    H     H_    0.482717 0.111170 0.272134 0.167737
H6    H     H_    0.483620 0.886532 0.272719 0.161050
H7    H     H_    0.505839 0.893307 0.843510 0.191532
H8    H     H_    0.603017 0.894987 0.730882 0.184687
H9    H     H_    0.503288 0.113790 0.842411 0.199632
H10   H     H_    0.600829 0.115578 0.731300 0.199384
H11   H     H_    0.373835 0.438925 0.128786 0.149354
H12   H     H_    0.071565 0.339276 0.634659 0.159451
H13   H     H_    0.373725 0.439384 0.870677 0.149393
H14   H     H_    0.594336 0.710921 0.869372 0.037735
H15   H     H_    0.590448 0.715372 0.125363 0.029216
H16   H     H_    0.072173 0.480477 0.272163 0.160594
H17   H     H_    0.071750 0.337609 0.366383 0.159522
H18   H     H_    0.927322 0.338209 0.366256 0.160774
H19   H     H_    0.927708 0.481105 0.272069 0.175923
H20   H     H_    0.072496 0.687254 0.593622 0.158336
H21   H     H_    0.072668 0.686130 0.405813 0.158615
H22   H     H_    0.928042 0.688014 0.593222 0.150046
N1    N     N_R   0.500530 0.500930 0.147930 -0.211648
N2    N     N_R   0.500530 0.500890 0.852020 -0.211418
O1    O     O_R   0.500000 0.319640 0.618810 -0.575708
O2    O     O_R   0.500010 0.319680 0.381230 -0.581594
O3    O     O_R   0.379430 0.499990 0.618840 -0.586017
O4    O     O_R   0.379440 0.500030 0.381260 -0.585703
O5    O     O_R   0.499990 0.680320 0.618770 -0.582245
O6    O     O_R   0.500000 0.680360 0.381190 -0.591281
O7    O     O_R   0.620560 0.499970 0.618740 -0.548396
O8    O     O_R   0.620570 0.500010 0.381160 -0.543709
O9    O     O_3   0.707527 0.601058 0.865129 -0.504928
C31   C     C_3   0.744431 0.705360 0.802382 -0.271517
H23   H     H_    0.745674 0.786025 0.874906 0.135054
H24   H     H_    0.710763 0.729240 0.704158 0.138714
H25   H     H_    0.810486 0.682821 0.774579 0.170251
O10   O     O_3   0.704946 0.608415 0.140536 -0.504961
C32   C     C_3   0.737674 0.715174 0.205495 -0.269771
H26   H     H_    0.699056 0.741328 0.298216 0.145604
H27   H     H_    0.741723 0.793621 0.131068 0.135822
H28   H     H_    0.802335 0.694913 0.242626 0.168141

loop_
_geom_bond_atom_site_label_1
_geom_bond_atom_site_label_2
_ccdc_geom_bond_type
C2    H3    S    
C27   H16   S    
C31   H24   S    
C4    H4    S    
C18   C21   A    
Cu1   O5    S    
C19   C20   A    
Cu2   O2    S    
C20   N2    A    
C3    C6    S    
C24   O10   S    
C7    C8    T    
C18   C24   S    
C5    H21   S    
C3    C28   S    
C28   H19   S    
C31   H25   S    
C15   C16   S    
C25   O7    A    
Cu1   O3    S    
C11   H5    S    
C17   H10   S    
C12   O3    A    
C28   H18   S    
C26   H2    S    
C23   O6    A    
C16   C17   S    
C5    H20   S    
O10   C32   S    
Cu1   N2    S    
C9    C10   A    
Cu2   N1    S    
C20   H13   S    
C31   H23   S    
C7    C30   S    
C13   C14   A    
C27   C30   S    
C19   H11   S    
C25   C29   S    
C26   H12   S    
Cu1   O7    S    
Cu2   O8    S    
C32   H27   S    
C25   O8    A    
C14   C23   S    
C22   O9    S    
C1    O1    A    
C32   H28   S    
Cu1   Cu2   S    
C8    C12   S    
C2    C26   S    
C13   H6    S    
C18   N1    A    
C16   H8    S    
C2    H1    S    
C9    C17   S    
C22   H14   S    
C26   C30   S    
C22   C24   S    
Cu2   O4    S    
C3    C4    S    
C5    C30   S    
C19   N1    A    
C4    H22   S    
C24   H15   S    
C1    C10   S    
C4    C5    S    
C21   N2    A    
Cu1   O1    S    
C2    C3    S    
C9    C15   A    
Cu2   O6    S    
C32   H26   S    
C1    O2    A    
C11   C13   A    
C17   H9    S    
C10   C11   A    
C16   H7    S    
C12   O4    A    
C23   O5    A    
C6    C29   T    
O9    C31   S    
C27   C28   S    
C14   C15   A    
C21   C22   S    
C27   H17   S    
