data_mof_unit_58293.cif
_audit_creation_date              2012-12-10T18:43:48-0500
_audit_creation_method            fapswitch 2.2
_symmetry_space_group_name_H-M    P1
_symmetry_Int_Tables_number       1
_space_group_crystal_system       triclinic
_cell_length_a                    10.879286
_cell_length_b                    10.635783
_cell_length_c                    9.897717
_cell_angle_alpha                 89.225065
_cell_angle_beta                  103.725738
_cell_angle_gamma                 91.030875
_cell_volume                      1112.32585845

loop_
_atom_site_label
_atom_site_type_symbol
_atom_type_description
_atom_site_fract_x
_atom_site_fract_y
_atom_site_fract_z
_atom_type_partial_charge
C1    C     C_R   0.502615 0.260359 0.501445 0.910258
C2    C     C_2   0.876029 0.500825 0.590838 -0.326153
C3    C     C_2   0.067218 0.503577 0.513804 -0.119757
C4    C     C_2   0.932782 0.496424 0.486196 -0.119757
C5    C     C_R   0.416357 0.066795 0.396039 -0.213543
C6    C     C_R   0.583643 0.933204 0.603961 -0.213543
C7    C     C_R   0.412528 0.937734 0.392720 0.174567
C8    C     C_R   0.587472 0.062265 0.607279 0.174567
C9    C     C_R   0.497248 0.872033 0.497344 -0.100965
C10   C     C_R   0.502752 0.127967 0.502656 -0.100966
C11   C     C_R   0.497385 0.739641 0.498555 0.910258
C12   C     C_R   0.259703 0.500317 0.442045 0.954205
C13   C     C_R   0.740297 0.499683 0.557955 0.954205
C14   C     C_R   0.576228 0.581973 0.088542 0.232505
C15   C     C_R   0.423772 0.418027 0.911458 0.232505
C16   C     C_R   0.575724 0.581366 0.945458 -0.121519
C17   C     C_R   0.424276 0.418634 0.054542 -0.121519
C18   C     C_2   0.123971 0.499176 0.409162 -0.326152
H1    H     H_    0.880077 0.488326 0.378426 0.203603
H2    H     H_    0.119923 0.511676 0.621574 0.203603
H3    H     H_    0.929188 0.507339 0.698517 0.166532
H4    H     H_    0.070812 0.492661 0.301483 0.166532
H5    H     H_    0.636149 0.646283 0.904965 0.164370
H6    H     H_    0.363851 0.353717 0.095035 0.164370
H7    H     H_    0.350632 0.119586 0.316956 0.174615
H8    H     H_    0.649368 0.880414 0.683044 0.174615
I1    I     I_    0.700040 0.715316 0.209859 -0.291766
I2    I     I_    0.299960 0.284684 0.790141 -0.291766
I3    I     I_    0.271513 0.850558 0.233823 -0.282819
I4    I     I_    0.728487 0.149441 0.766177 -0.282818
N1    N     N_R   0.499970 0.499970 0.857200 -0.112634
N2    N     N_R   0.500030 0.500030 0.142800 -0.112634
O1    O     O_R   0.499990 0.316750 0.614620 -0.573908
O2    O     O_R   0.500010 0.683250 0.385380 -0.573907
O3    O     O_R   0.499990 0.316780 0.385290 -0.626506
O4    O     O_R   0.500010 0.683220 0.614710 -0.626506
O5    O     O_R   0.317810 0.500000 0.571850 -0.604245
O6    O     O_R   0.682190 0.500000 0.428150 -0.604245
O7    O     O_R   0.317810 0.500030 0.342520 -0.609911
O8    O     O_R   0.682190 0.499970 0.657480 -0.609911
Zn1   Zn    Zn3+2 0.500000 0.499980 0.653120 1.003069
Zn2   Zn    Zn3+2 0.500000 0.500020 0.346880 1.003069

loop_
_geom_bond_atom_site_label_1
_geom_bond_atom_site_label_2
_ccdc_geom_bond_type
C2    C4    D    
C15   N1    A    
C7    I3    S    
C14   I1    S    
O7    Zn2   S    
O2    Zn2   S    
O1    Zn1   S    
C8    I4    S    
C2    H3    S    
O4    Zn1   S    
C1    O1    A    
C5    C10   A    
C16   N1    A    
C9    C11   S    
C13   O6    A    
C6    H8    S    
C12   O7    A    
C5    H7    S    
C15   C17   A    
C2    C13   S    
C11   O4    A    
O6    Zn2   S    
C16   H5    S    
C5    C7    A    
O5    Zn1   S    
C14   C16   A    
C17   H6    S    
C15   I2    S    
C3    C4    S    
C7    C9    A    
C3    H2    S    
C6    C9    A    
C1    O3    A    
C3    C18   D    
C8    C10   A    
C12   C18   S    
C12   O5    A    
C17   N2    A    
O3    Zn2   S    
N2    Zn2   S    
O8    Zn1   S    
C13   O8    A    
C6    C8    A    
N1    Zn1   S    
C18   H4    S    
C4    H1    S    
C11   O2    A    
C1    C10   S    
C14   N2    A    
