data_mof_unit_6280.cif
_audit_creation_date              2012-12-10T17:58:20-0500
_audit_creation_method            fapswitch 2.2
_symmetry_space_group_name_H-M    P1
_symmetry_Int_Tables_number       1
_space_group_crystal_system       triclinic
_cell_length_a                    9.512437
_cell_length_b                    10.801311
_cell_length_c                    15.392327
_cell_angle_alpha                 89.983504
_cell_angle_beta                  75.227108
_cell_angle_gamma                 89.9912
_cell_volume                      1529.23387837

loop_
_atom_site_label
_atom_site_type_symbol
_atom_type_description
_atom_site_fract_x
_atom_site_fract_y
_atom_site_fract_z
_atom_type_partial_charge
C1    C     C_R   0.001191 0.262329 0.497144 0.835197
C2    C     C_R   0.998811 0.737671 0.502851 0.835114
C3    C     C_R   0.573943 0.566338 0.091126 -0.197196
C4    C     C_R   0.426141 0.433507 0.908912 -0.197189
C5    C     C_R   0.719015 0.583030 0.047333 -0.179935
C6    C     C_R   0.281071 0.416806 0.952700 -0.179946
C7    C     C_R   0.928503 0.060836 0.441776 -0.016541
C8    C     C_R   0.071523 0.939163 0.558198 -0.016494
C9    C     C_R   0.924937 0.932498 0.448885 -0.220937
C10   C     C_R   0.075077 0.067500 0.551096 -0.220945
C11   C     C_R   0.997162 0.871607 0.505137 -0.117005
C12   C     C_R   0.002845 0.128392 0.494850 -0.116992
C13   C     C_R   0.554367 0.414172 0.548488 -0.012093
C14   C     C_R   0.445633 0.585827 0.451511 -0.012070
C15   C     C_R   0.405611 0.414079 0.548330 0.042517
C16   C     C_R   0.594390 0.585920 0.451669 0.042578
C17   C     C_R   0.919547 0.500090 0.672810 0.831101
C18   C     C_R   0.080451 0.499920 0.327191 0.831110
C19   C     C_R   0.877525 0.506424 0.772375 -0.117755
C20   C     C_R   0.122473 0.493585 0.227626 -0.117764
C21   C     C_R   0.918396 0.568497 0.915532 -0.258545
C22   C     C_R   0.081662 0.431387 0.084480 -0.258598
C23   C     C_R   0.974510 0.541694 0.824513 0.016012
C24   C     C_R   0.025519 0.458222 0.175491 0.015966
C25   C     C_R   0.730463 0.486718 0.815543 -0.257170
C26   C     C_R   0.269521 0.513361 0.184458 -0.257124
C27   C     C_R   0.674560 0.506241 0.908359 0.101733
C28   C     C_R   0.325473 0.493729 0.091656 0.101753
C29   C     C_R   0.770668 0.552343 0.957173 0.129756
C30   C     C_R   0.229390 0.447559 0.042847 0.129750
C31   C     C_R   0.525527 0.484945 0.953453 0.064742
C32   C     C_R   0.474522 0.514987 0.046573 0.064727
Cu1   Cu    Cu3+1 0.140660 0.500020 0.500000 0.999545
Cu2   Cu    Cu3+1 0.859340 0.499980 0.500000 0.999555
H1    H     H_    0.791408 0.622056 0.084252 0.165734
H2    H     H_    0.208704 0.377715 0.915789 0.165751
H3    H     H_    0.339430 0.540815 0.225888 0.156469
H4    H     H_    0.660494 0.459428 0.774108 0.156526
H5    H     H_    0.991237 0.600497 0.954766 0.162670
H6    H     H_    0.008847 0.399329 0.045247 0.162710
H7    H     H_    0.543904 0.596212 0.160046 0.157685
H8    H     H_    0.456232 0.403524 0.840016 0.157647
H9    H     H_    0.871067 0.878881 0.407209 0.179345
H10   H     H_    0.128955 0.121111 0.592771 0.179288
H11   H     H_    0.594268 0.345559 0.587507 0.129528
H12   H     H_    0.405732 0.654440 0.412492 0.129520
H13   H     H_    0.333585 0.345154 0.586982 0.153889
H14   H     H_    0.666417 0.654843 0.413015 0.153844
N1    N     N_R   0.352080 0.500030 0.499980 -0.169923
N2    N     N_R   0.647920 0.499970 0.500020 -0.169910
O1    O     O_R   0.118740 0.319660 0.500000 -0.588829
O2    O     O_R   0.881260 0.680340 0.500000 -0.588833
O3    O     O_R   0.881170 0.319630 0.500010 -0.574731
O4    O     O_R   0.118830 0.680370 0.499990 -0.574771
O5    O     O_R   0.055570 0.500030 0.629830 -0.533133
O6    O     O_R   0.944430 0.499970 0.370170 -0.533085
O7    O     O_R   0.818000 0.500000 0.629840 -0.594505
O8    O     O_R   0.182000 0.500000 0.370160 -0.594486
C33   C     C_2   0.866038 0.447935 0.211320 0.889136
O9    O     O_2   0.796614 0.534390 0.252295 -0.632492
O10   O     O_R   0.793726 0.342890 0.191955 -0.739247
H15   H     H_    0.684608 0.347941 0.217829 0.329091
C34   C     C_2   0.133992 0.551918 0.788674 0.889067
O11   O     O_2   0.203365 0.465425 0.747718 -0.632528
O12   O     O_R   0.206361 0.656956 0.807998 -0.739166
H16   H     H_    0.315472 0.651876 0.782094 0.329078
C35   C     C_2   0.860977 0.119307 0.374877 0.860226
O13   O     O_2   0.914046 0.212538 0.334547 -0.584642
O14   O     O_R   0.739242 0.064617 0.355458 -0.760791
H17   H     H_    0.703842 0.112096 0.308284 0.351101
C36   C     C_2   0.139111 0.880685 0.625062 0.860235
O15   O     O_2   0.085973 0.787529 0.665470 -0.584607
O16   O     O_R   0.261001 0.935278 0.644350 -0.760776
H18   H     H_    0.296448 0.887796 0.691503 0.351055

loop_
_geom_bond_atom_site_label_1
_geom_bond_atom_site_label_2
_ccdc_geom_bond_type
Cu1   O5    S    
C34   O12   S    
Cu2   O6    S    
Cu1   O8    S    
C27   C29   A    
O16   H18   S    
C10   H10   S    
C15   H13   S    
C16   H14   S    
C14   H12   S    
C20   C26   A    
C22   C24   A    
C16   N2    A    
C8    C11   A    
C14   N1    A    
Cu1   N1    S    
C1    O3    A    
C18   O8    A    
C20   C24   A    
Cu2   O7    S    
C17   O5    A    
O10   H15   S    
C18   O6    A    
C23   C34   S    
C9    H9    S    
C33   O9    D    
O14   H17   S    
C1    C12   S    
C2    C11   S    
C10   C12   A    
C5    C29   A    
C21   C23   A    
C7    C12   A    
Cu2   N2    S    
C33   O10   S    
C27   C31   A    
C35   O13   D    
C28   C32   A    
C4    C6    A    
C2    O4    A    
C36   O16   S    
C21   C29   A    
C34   O11   D    
C35   O14   S    
C19   C23   A    
C25   H4    S    
C9    C11   A    
C31   C32   A    
C21   H5    S    
C22   H6    S    
Cu1   Cu2   S    
C1    O1    A    
C2    O2    A    
C6    C30   A    
C13   C15   A    
C14   C16   A    
C25   C27   A    
Cu1   O4    S    
C7    C9    A    
C3    H7    S    
C8    C36   S    
C22   C30   A    
Cu2   O2    S    
C3    C5    A    
C26   H3    S    
Cu1   O1    S    
C26   C28   A    
C28   C30   A    
C36   O15   D    
C13   H11   S    
C4    H8    S    
C24   C33   S    
C5    H1    S    
C17   C19   S    
C6    H2    S    
C18   C20   S    
C15   N1    A    
C3    C32   A    
C19   C25   A    
C4    C31   A    
C7    C35   S    
C13   N2    A    
Cu2   O3    S    
C8    C10   A    
O12   H16   S    
C17   O7    A    
