data_mof_unit_42685.cif
_audit_creation_date              2012-12-10T17:34:59-0500
_audit_creation_method            fapswitch 2.2
_symmetry_space_group_name_H-M    P1
_symmetry_Int_Tables_number       1
_space_group_crystal_system       triclinic
_cell_length_a                    12.348992
_cell_length_b                    13.199435
_cell_length_c                    13.877992
_cell_angle_alpha                 105.2599
_cell_angle_beta                  73.781208
_cell_angle_gamma                 116.648422
_cell_volume                      1916.11795537

loop_
_atom_site_label
_atom_site_type_symbol
_atom_type_description
_atom_site_fract_x
_atom_site_fract_y
_atom_site_fract_z
_atom_type_partial_charge
C1    C     C_R   0.144442 0.713568 0.508720 0.768830
C2    C     C_1   0.975641 0.508348 0.791708 -0.186807
C3    C     C_R   0.736544 0.975803 0.365783 -0.200080
C4    C     C_R   0.775086 0.164818 0.464635 -0.052780
C5    C     C_R   0.178171 0.916124 0.574992 -0.176691
C6    C     C_R   0.255125 0.031309 0.595072 -0.152445
C7    C     C_R   0.381550 0.068311 0.559693 -0.182573
C8    C     C_R   0.433735 0.990474 0.499458 0.079799
C9    C     C_R   0.353059 0.875501 0.469311 0.083081
C10   C     C_R   0.563183 0.023210 0.467148 0.074324
C11   C     C_R   0.609086 0.944564 0.398189 0.168741
C12   C     C_R   0.984371 0.504528 0.686363 0.820646
C13   C     C_R   0.527394 0.836689 0.360270 -0.240319
C14   C     C_R   0.401367 0.803274 0.393888 -0.201045
C15   C     C_R   0.648781 0.131687 0.501878 -0.255381
C16   C     C_R   0.819284 0.085814 0.398340 -0.182649
C17   C     C_R   0.225944 0.836641 0.514539 -0.108588
C18   C     C_R   0.640620 0.677065 0.659177 -0.391054
C19   C     C_R   0.252255 0.351094 0.363480 0.703430
C20   C     C_R   0.349862 0.315897 0.337703 -0.339812
C21   C     C_R   0.448157 0.372292 0.388954 -0.269784
C22   C     C_R   0.450659 0.464153 0.468702 0.021509
C23   C     C_R   0.856178 0.286335 0.485328 0.796307
C24   C     C_R   0.347426 0.495016 0.495663 0.188066
C25   C     C_R   0.550779 0.525329 0.523534 -0.008492
C26   C     C_R   0.545080 0.615488 0.604053 0.103505
C27   C     C_R   0.443797 0.643851 0.629696 -0.247076
C28   C     C_R   0.346929 0.584465 0.577337 -0.146739
C29   C     C_R   0.657382 0.501858 0.501880 -0.084606
C30   C     C_R   0.741832 0.647871 0.636522 0.702451
C31   C     C_R   0.015720 0.495652 0.313648 0.809181
C32   C     C_1   0.024556 0.492685 0.208446 -0.176207
C33   C     C_2   0.036560 0.488094 0.014898 -0.162001
C34   C     C_2   0.959355 0.515795 0.986756 0.184171
C35   C     C_1   0.967890 0.511876 0.880569 -0.076839
C36   C     C_1   0.031067 0.490312 0.120027 0.040654
Cu1   Cu    Cu3+1 0.899780 0.525060 0.522890 0.978514
Cu2   Cu    Cu3+1 0.100220 0.474940 0.477110 0.963491
H1    H     H_    0.342772 0.721141 0.357533 0.171628
H2    H     H_    0.438723 0.712476 0.691762 0.148191
H3    H     H_    0.636873 0.747946 0.718893 0.149815
H4    H     H_    0.670258 0.435888 0.441042 0.151223
H5    H     H_    0.520134 0.341102 0.365161 0.162405
H6    H     H_    0.349330 0.243598 0.278499 0.158869
H7    H     H_    0.272971 0.611507 0.604358 0.202706
H8    H     H_    0.104953 0.463058 0.958397 0.118826
H9    H     H_    0.916977 0.110375 0.368548 0.190199
H10   H     H_    0.561023 0.777716 0.304131 0.143809
H11   H     H_    0.772006 0.916156 0.312993 0.137684
H12   H     H_    0.619877 0.193273 0.557396 0.146991
H13   H     H_    0.081212 0.888879 0.609026 0.189529
H14   H     H_    0.435198 0.158873 0.579025 0.129567
H15   H     H_    0.216975 0.091986 0.641107 0.144980
N1    N     N_R   0.748810 0.563010 0.557590 -0.218612
N2    N     N_R   0.250540 0.437620 0.443020 -0.247222
O1    O     O_R   0.025040 0.682470 0.528790 -0.531834
O2    O     O_R   0.194310 0.640150 0.490130 -0.615870
O3    O     O_R   0.903380 0.524130 0.659910 -0.541820
O4    O     O_R   0.072660 0.481800 0.621240 -0.600143
O5    O     O_R   0.805690 0.359850 0.509870 -0.599948
O6    O     O_R   0.974960 0.317530 0.471210 -0.534563
O7    O     O_R   0.927340 0.518200 0.378760 -0.575281
O8    O     O_R   0.096620 0.475870 0.340090 -0.550787
N3    N     N_3   0.868711 0.548991 0.060693 -0.569396
H16   H     H_    0.883911 0.630932 0.052034 0.210378
H17   H     H_    0.781971 0.492476 0.043498 0.213038
O9    O     O_3   0.840091 0.709797 0.687138 -0.561818
C37   C     C_3   0.799399 0.706903 0.792499 -0.349844
H18   H     H_    0.880701 0.732391 0.826986 0.191054
H19   H     H_    0.734028 0.619199 0.809075 0.156722
H20   H     H_    0.757498 0.769802 0.829441 0.151846
O10   O     O_3   0.151569 0.292518 0.315352 -0.560499
C38   C     C_3   0.189336 0.289189 0.209073 -0.357209
H21   H     H_    0.221744 0.219373 0.173863 0.153720
H22   H     H_    0.261278 0.373181 0.188328 0.155277
H23   H     H_    0.108300 0.269533 0.176514 0.191653

loop_
_geom_bond_atom_site_label_1
_geom_bond_atom_site_label_2
_ccdc_geom_bond_type
C2    C35   T    
C29   H4    S    
C38   H21   S    
C19   C20   A    
C18   C26   A    
C2    C12   S    
Cu1   O7    S    
C3    H11   S    
C7    C8    A    
C24   N2    A    
C30   N1    A    
C26   C27   A    
C30   O9    S    
C32   C36   T    
C1    O1    A    
C7    H14   S    
C10   C15   A    
C5    C6    A    
C5    C17   A    
C29   N1    A    
C33   C36   S    
C34   C35   S    
C15   H12   S    
C14   H1    S    
C21   H5    S    
C12   O4    A    
Cu2   N2    S    
C37   H18   S    
C22   C25   A    
C18   C30   A    
Cu1   O3    S    
Cu2   O6    S    
C12   O3    A    
Cu1   O1    S    
C21   C22   A    
C33   H8    S    
C38   H22   S    
C31   O7    A    
C19   O10   S    
C16   H9    S    
C20   H6    S    
C25   C29   A    
C23   O5    A    
C28   H7    S    
O9    C37   S    
C31   O8    A    
C18   H3    S    
C4    C23   S    
C8    C9    A    
C25   C26   A    
N3    H17   S    
C4    C16   A    
C9    C14   A    
Cu1   Cu2   S    
C1    O2    A    
Cu2   O2    S    
C31   C32   S    
C27   H2    S    
C34   N3    S    
C33   C34   D    
Cu1   N1    S    
C9    C17   A    
C38   H23   S    
C22   C24   A    
C6    H15   S    
Cu2   O8    S    
C19   N2    A    
C8    C10   A    
C24   C28   A    
O10   C38   S    
C13   H10   S    
C6    C7    A    
C1    C17   S    
N3    H16   S    
C4    C15   A    
C11   C13   A    
C37   H20   S    
Cu1   O5    S    
C3    C11   A    
C10   C11   A    
Cu2   O4    S    
C23   O6    A    
C20   C21   A    
C37   H19   S    
C27   C28   A    
C5    H13   S    
C13   C14   A    
C3    C16   A    
