data_mof_unit_46275.cif
_audit_creation_date              2012-12-10T18:07:31-0500
_audit_creation_method            fapswitch 2.2
_symmetry_space_group_name_H-M    P1
_symmetry_Int_Tables_number       1
_space_group_crystal_system       triclinic
_cell_length_a                    11.546595
_cell_length_b                    12.679091
_cell_length_c                    13.131469
_cell_angle_alpha                 83.297545
_cell_angle_beta                  90.878405
_cell_angle_gamma                 102.178034
_cell_volume                      1866.26164593

loop_
_atom_site_label
_atom_site_type_symbol
_atom_type_description
_atom_site_fract_x
_atom_site_fract_y
_atom_site_fract_z
_atom_type_partial_charge
C1    C     C_R   0.481031 0.439344 0.690717 0.887114
C2    C     C_R   0.547402 0.593438 0.202948 -0.025291
C3    C     C_R   0.338968 0.330054 0.824319 0.130236
C4    C     C_R   0.297103 0.316955 0.925691 0.205994
C5    C     C_R   0.359057 0.379739 0.996909 -0.283656
C6    C     C_R   0.468354 0.451811 0.971429 0.062664
C7    C     C_R   0.518780 0.452454 0.874429 0.047137
C8    C     C_R   0.530082 0.522739 0.039207 0.114520
C9    C     C_R   0.647019 0.581817 0.014440 0.149211
C10   C     C_R   0.701158 0.568687 0.924217 -0.198177
C11   C     C_R   0.637558 0.505091 0.854681 -0.147298
C12   C     C_R   0.717724 0.500791 0.500030 0.897683
C13   C     C_R   0.479755 0.535639 0.131735 -0.250232
C14   C     C_R   0.660591 0.655005 0.177176 -0.176221
C15   C     C_R   0.449328 0.401357 0.798224 -0.200492
C16   C     C_R   0.298766 0.077316 0.379291 0.056056
C17   C     C_R   0.647519 0.808922 0.623544 0.317858
C18   C     C_R   0.666143 0.910738 0.657431 -0.243121
C19   C     C_R   0.601237 0.984807 0.617643 -0.206376
C20   C     C_R   0.518217 0.958916 0.540579 0.048774
C21   C     C_R   0.496074 0.851287 0.512182 0.148532
C22   C     C_R   0.458267 0.036716 0.489980 -0.052253
C23   C     C_R   0.515283 0.560008 0.309351 0.840625
C24   C     C_R   0.365287 0.002066 0.421274 0.019708
C25   C     C_R   0.346026 0.895077 0.393358 0.117515
C26   C     C_R   0.412980 0.823473 0.437197 -0.198249
C27   C     C_R   0.489108 0.148613 0.503747 -0.063845
C28   C     C_R   0.350593 0.188602 0.377351 0.275226
C29   C     C_R   0.282302 0.499287 0.499765 0.894570
C30   C     C_1   0.838749 0.502076 0.500006 -0.154817
C31   C     C_1   0.940866 0.501219 0.499668 0.029855
C32   C     C_1   0.059284 0.499216 0.499248 0.034665
C33   C     C_1   0.161358 0.498218 0.499224 -0.149420
C34   C     C_R   0.709769 0.650488 0.082116 -0.180649
H1    H     H_    0.714266 0.698938 0.233315 0.158924
H2    H     H_    0.555824 0.180704 0.556519 0.146053
H3    H     H_    0.619040 0.061640 0.648429 0.157195
H4    H     H_    0.733544 0.933876 0.713668 0.187137
H5    H     H_    0.401757 0.746885 0.408018 0.225460
H6    H     H_    0.792303 0.608922 0.906743 0.176792
H7    H     H_    0.799131 0.695528 0.063986 0.159239
H8    H     H_    0.390544 0.495749 0.154191 0.137812
H9    H     H_    0.320415 0.368005 0.072374 0.163350
H10   H     H_    0.681864 0.496427 0.785063 0.162393
N1    N     N_R   0.440320 0.222190 0.444690 -0.123815
N2    N     N_R   0.559060 0.776980 0.554780 -0.140186
O1    O     O_R   0.471500 0.366730 0.627160 -0.591045
O2    O     O_R   0.509620 0.544830 0.662520 -0.584765
O3    O     O_R   0.646490 0.410960 0.482310 -0.615119
O4    O     O_R   0.684610 0.589050 0.517670 -0.583237
O5    O     O_R   0.490380 0.455170 0.337480 -0.619461
O6    O     O_R   0.528500 0.633270 0.372840 -0.630318
O7    O     O_R   0.315390 0.410950 0.482330 -0.590509
O8    O     O_R   0.353510 0.589040 0.517690 -0.622619
Zn1   Zn    Zn3+2 0.474550 0.381080 0.476390 0.965609
Zn2   Zn    Zn3+2 0.525450 0.618920 0.523610 0.975084
I1    I     I_    0.240176 0.833914 0.270093 -0.407619
C35   C     C_3   0.164359 0.042896 0.369769 -0.363310
C36   C     C_3   0.116193 0.054215 0.260445 -0.753167
H11   H     H_    0.091766 0.134046 0.241617 0.257225
H12   H     H_    0.181177 0.044784 0.202672 0.288452
H13   H     H_    0.034260 0.991178 0.254434 0.262557
H14   H     H_    0.133388 0.957748 0.405050 0.232983
H15   H     H_    0.121722 0.091457 0.417146 0.206675
I2    I     I_    0.774650 0.720622 0.681134 -0.367633
I3    I     I_    0.229550 0.247214 0.712627 -0.284365
I4    I     I_    0.136153 0.209707 0.977422 -0.357056
C37   C     C_3   0.327479 0.261729 0.282693 -0.350494
C38   C     C_3   0.229415 0.324092 0.294987 -0.785907
H16   H     H_    0.171117 0.287734 0.361988 0.264083
H17   H     H_    0.267469 0.410538 0.302030 0.255841
H18   H     H_    0.173797 0.323459 0.225234 0.231125
H19   H     H_    0.410467 0.314408 0.251578 0.214618
H20   H     H_    0.302919 0.212104 0.218505 0.194175

loop_
_geom_bond_atom_site_label_1
_geom_bond_atom_site_label_2
_ccdc_geom_bond_type
C16   C28   A    
C38   H18   S    
C12   O4    A    
C21   C26   A    
C1    O2    A    
C14   C34   A    
C6    C7    A    
C1    C15   S    
C27   H2    S    
C4    I4    S    
C19   H3    S    
C9    C10   A    
C17   I2    S    
C19   C20   A    
C30   C31   T    
C12   C30   S    
C32   C33   T    
C27   N1    A    
C7    C15   A    
C17   C18   A    
C18   H4    S    
C24   C25   A    
C36   H11   S    
C16   C24   A    
C16   C35   S    
C20   C21   A    
C7    C11   A    
C2    C13   A    
C23   O6    A    
C8    C13   A    
C34   H7    S    
C25   I1    S    
C4    C5    A    
C38   H16   S    
C13   H8    S    
C25   C26   A    
C20   C22   A    
C9    C34   A    
C12   O3    A    
O5    Zn1   S    
C22   C27   A    
O7    Zn1   S    
C5    H9    S    
C5    C6    A    
C2    C14   A    
C22   C24   A    
C26   H5    S    
C36   H12   S    
C3    I3    S    
C38   H17   S    
C29   O8    A    
C37   H20   S    
C3    C4    A    
C37   H19   S    
C29   C33   S    
C11   H10   S    
C3    C15   A    
C17   N2    A    
N1    Zn1   S    
C2    C23   S    
C10   H6    S    
C21   N2    A    
C10   C11   A    
N2    Zn2   S    
C14   H1    S    
O2    Zn2   S    
O1    Zn1   S    
C18   C19   A    
C36   H13   S    
C6    C8    A    
C28   N1    A    
C8    C9    A    
C35   H15   S    
C28   C37   S    
C35   C36   S    
O3    Zn1   S    
O6    Zn2   S    
C23   O5    A    
C37   C38   S    
C31   C32   S    
O4    Zn2   S    
C35   H14   S    
C1    O1    A    
O8    Zn2   S    
C29   O7    A    
