data_mof_unit_19984.cif
_audit_creation_date              2013-03-05T16:00:38-0500
_audit_creation_method            fapswitch 2.2
_symmetry_space_group_name_H-M    P1
_symmetry_Int_Tables_number       1
_space_group_crystal_system       triclinic
_cell_length_a                    8.317307
_cell_length_b                    12.779937
_cell_length_c                    19.148047
_cell_angle_alpha                 100.592025
_cell_angle_beta                  91.652769
_cell_angle_gamma                 98.283503
_cell_volume                      1976.57784467

loop_
_atom_site_label
_atom_site_type_symbol
_atom_site_description
_atom_site_fract_x
_atom_site_fract_y
_atom_site_fract_z
_atom_type_partial_charge
P1    P     P_3+3 0.042930 0.392230 0.337410 0.497391
O1    O     O_2   0.875110 0.423180 0.326290 -0.373308
O2    O     O_3   0.123410 0.433040 0.414950 -0.406890
O3    O     O_3   0.661010 0.625070 0.369680 -0.359177
O4    O     O_2   0.713779 0.514817 0.248005 -0.412836
O5    O     O_3   0.999738 0.251619 0.321745 -0.532968
O6    O     O_3   0.720330 0.723142 0.250057 -0.518706
H1    H     H_    0.756759 0.859093 0.328841 0.144681
C1    C     C_3   0.628822 0.887932 0.236252 -1.084116
H2    H     H_    0.577936 0.958400 0.264966 0.245902
H3    H     H_    0.743073 0.916815 0.212468 0.275028
P2    P     P_3+3 0.672230 0.754900 0.555730 0.407216
P3    P     P_3+3 0.128615 0.823351 0.409448 0.431150
O7    O     O_2   0.847800 0.768730 0.534310 -0.360063
O8    O     O_3   0.082250 0.684470 0.405440 -0.394952
O9    O     O_2   0.005983 0.877510 0.457299 -0.372339
O10   O     O_3   0.725207 0.796888 0.647687 -0.571531
O11   O     O_3   0.083345 0.853410 0.326229 -0.539154
C2    C     C_3   0.136064 0.776512 0.273431 0.479027
H4    H     H_    0.063751 0.695754 0.272065 0.134518
H5    H     H_    0.267511 0.773594 0.282888 0.019102
C3    C     C_3   0.111374 0.807565 0.201271 -1.015224
H6    H     H_    0.983591 0.819797 0.192504 0.292757
H7    H     H_    0.193734 0.882858 0.198502 0.239903
C4    C     C_3   0.202895 0.790473 0.618045 0.381695
H8    H     H_    0.326484 0.785795 0.599822 0.024613
H9    H     H_    0.114310 0.748105 0.574393 0.161680
C5    C     C_3   0.178277 0.907684 0.633418 -0.859393
H10   H     H_    0.269223 0.955514 0.674685 0.236465
H11   H     H_    0.190698 0.941587 0.584207 0.252093
H12   H     H_    0.055405 0.913890 0.653336 0.269221
Ba1   Ba    Ba6+2 0.853180 0.547790 0.465300 1.544826
C6    C     C_3   0.952936 0.216864 0.384394 0.447331
H13   H     H_    0.841706 0.249229 0.402119 0.075790
H14   H     H_    0.050736 0.242607 0.427295 0.146569
C7    C     C_3   0.918673 0.094476 0.368975 -0.962340
H15   H     H_    0.829111 0.066365 0.323055 0.260923
H16   H     H_    0.869364 0.063414 0.415375 0.235213
H17   H     H_    0.032759 0.061244 0.356778 0.281627
C8    C     C_3   0.603541 0.759483 0.690321 0.336747
H18   H     H_    0.654288 0.707828 0.723478 0.058785
H19   H     H_    0.495992 0.715267 0.658736 0.152753
C9    C     C_3   0.554217 0.853020 0.741619 -0.966656
H20   H     H_    0.661471 0.896205 0.776586 0.263695
H21   H     H_    0.458196 0.822363 0.775490 0.251802
H22   H     H_    0.505603 0.908588 0.711064 0.251322
P4    P     P_3+3 0.146790 0.607860 0.662600 0.472135
O12   O     O_2   0.314600 0.576860 0.673750 -0.406146
O13   O     O_3   0.066300 0.567050 0.585060 -0.384032
O14   O     O_3   0.528700 0.375020 0.630330 -0.355457
O15   O     O_3   0.184416 0.749154 0.680971 -0.567044
P5    P     P_3+3 0.062826 0.175978 0.591032 0.463189
O16   O     O_3   0.611760 0.365720 0.463870 -0.429901
O17   O     O_3   0.107460 0.315620 0.594570 -0.349414
O18   O     O_2   0.171435 0.122316 0.535760 -0.372075
O19   O     O_3   0.131933 0.142270 0.669680 -0.546871
Ba2   Ba    Ba6+2 0.336650 0.452300 0.534710 1.559025
P6    P     P_3+3 0.625167 0.609029 0.279091 0.439973
C10   C     C_3   0.662290 0.814829 0.287644 0.479104
H23   H     H_    0.548258 0.797035 0.315209 0.017105
H24   H     H_    0.539075 0.843602 0.193084 0.266479
O20   O     O_3   0.577950 0.634370 0.536140 -0.472951
C11   C     C_3   0.470855 0.245157 0.309254 1.095237
H25   H     H_    0.495386 0.330475 0.337475 0.025550
C12   C     C_3   0.575972 0.239117 0.244433 -1.042584
H26   H     H_    0.569995 0.155104 0.215233 0.240276
H27   H     H_    0.536554 0.290040 0.207997 0.236158
H28   H     H_    0.704953 0.267113 0.261638 0.276409
P7    P     P_3+3 0.521961 0.228828 0.443524 0.415444
O21   O     O_2   0.341900 0.231310 0.465740 -0.358334
O22   O     O_3   0.514924 0.173908 0.352060 -0.657566
H29   H     H_    0.138554 0.743008 0.158132 0.230541
C13   C     C_3   0.089196 0.213914 0.728409 0.262170
H30   H     H_    0.170773 0.292421 0.734427 0.168090
H31   H     H_    0.960675 0.227258 0.722768 0.011849
C14   C     C_3   0.109951 0.164372 0.794339 -0.108751
H32   H     H_    0.226386 0.131024 0.793677 0.166265
H33   H     H_    0.009525 0.096382 0.793367 0.116887
P8    P     P_3+3 0.567850 0.374382 0.720723 0.485182
C15   C     C_3   0.574615 0.170162 0.704272 0.439326
H34   H     H_    0.672567 0.200226 0.671437 0.047838
O23   O     O_2   0.461984 0.454095 0.759566 -0.408676
O24   O     O_3   0.483815 0.248577 0.737149 -0.480556
H35   H     H_    0.490739 0.106067 0.668195 0.098599
H36   H     H_    0.731356 0.183478 0.798993 0.281145
C16   C     C_3   0.651204 0.120859 0.760868 -1.053299
H37   H     H_    0.726154 0.061207 0.735096 0.238338
H38   H     H_    0.554970 0.081708 0.790691 0.283214
C17   C     C_R   0.055178 0.571991 0.803524 -0.438208
H39   H     H_    0.142374 0.642836 0.824654 0.163037
C18   C     C_R   0.021415 0.546021 0.728880 0.220317
C19   C     C_R   0.854130 0.420863 0.816249 -0.357783
H40   H     H_    0.799407 0.359530 0.843563 0.192966
C20   C     C_R   0.787181 0.421507 0.748552 0.078458
C21   C     C_R   0.336522 0.590532 0.193859 -0.386293
H41   H     H_    0.388504 0.661502 0.174773 0.150749
C22   C     C_R   0.408322 0.570812 0.255950 0.242089
C23   C     C_R   0.123059 0.443413 0.198058 -0.291871
H42   H     H_    0.021744 0.382807 0.175233 0.154789
C24   C     C_R   0.169365 0.451452 0.271416 0.339835
C25   C     C_R   0.983367 0.502166 0.848914 0.138839
C26   C     C_R   0.882730 0.473171 0.703196 0.275907
C27   C     C_R   0.203467 0.518077 0.157043 0.100717
C28   C     C_R   0.319740 0.508106 0.296990 -0.404796
H43   H     H_    0.369433 0.502401 0.348807 0.156857
C29   C     C_R   0.758223 0.459970 0.964421 -0.163301
C30   C     C_R   0.653798 0.419434 0.011598 -0.072568
C31   C     C_R   0.704100 0.436177 0.082512 -0.108341
C32   C     C_R   0.861702 0.486057 0.103837 -0.146161
C33   C     C_R   0.981841 0.497650 0.054541 0.064505
C34   C     C_R   0.927837 0.489320 0.981364 0.112481
C35   C     C_R   0.149364 0.523013 0.078720 -0.056526
C36   C     C_R   0.261114 0.553006 0.026825 0.095157
C37   C     C_R   0.207372 0.545161 0.953286 0.103922
C38   C     C_R   0.039890 0.512773 0.928606 -0.002220
C39   C     C_R   0.429332 0.589335 0.044638 -0.187330
C40   C     C_R   0.532209 0.633469 0.998262 -0.114079
C41   C     C_R   0.483237 0.617953 0.927399 -0.150635
C42   C     C_R   0.328267 0.565079 0.904861 -0.078624
H44   H     H_    0.699469 0.472758 0.916798 0.146215
H45   H     H_    0.527443 0.389088 0.995127 0.170794
H46   H     H_    0.616901 0.418912 0.121226 0.150264
H47   H     H_    0.889846 0.517557 0.159077 0.186062
H48   H     H_    0.491596 0.577474 0.091275 0.151896
H49   H     H_    0.657592 0.666179 0.015312 0.138448
H50   H     H_    0.569652 0.638660 0.889038 0.130831
H51   H     H_    0.307764 0.537725 0.848918 0.188475
C43   C     C_R   0.757826 0.184404 0.532707 -0.488696
C44   C     C_R   0.429450 0.809801 0.473551 -0.498136
C45   C     C_R   0.398862 0.985253 0.451039 -0.191667
C46   C     C_R   0.337248 0.876972 0.446135 0.185837
C47   C     C_R   0.577577 0.850951 0.512090 0.299957
C48   C     C_R   0.639294 0.963034 0.520530 -0.069517
C49   C     C_R   0.548959 0.030360 0.488390 -0.058358
C50   C     C_R   0.611086 0.141226 0.494740 0.275939
C51   C     C_R   0.850731 0.119038 0.561244 0.201455
C52   C     C_R   0.790166 0.009687 0.557385 -0.213618
H52   H     H_    0.325547 0.033236 0.426631 0.191549
H53   H     H_    0.864587 0.961918 0.580964 0.194990
H54   H     H_    0.807057 0.268077 0.534710 0.197736
H55   H     H_    0.380252 0.725446 0.468587 0.175638
O25   O     O_3   0.302613 0.221220 0.288246 -0.638445
C53   C     C_3   0.256398 0.113506 0.251874 -0.148015
H56   H     H_    0.292922 0.054122 0.282632 0.154101
H57   H     H_    0.303128 0.100900 0.197771 0.126541
H58   H     H_    0.122084 0.097007 0.243702 0.189731
N1    N     N_R   0.110403 0.244320 0.859330 0.241129
O26   O     O_R   0.994066 0.234243 0.902785 -0.408793
O27   O     O_R   0.240171 0.314713 0.879769 -0.398441
O28   O     O_3   0.836167 0.454079 0.632728 -0.648355
C54   C     C_3   0.748201 0.535630 0.621497 0.123185
H59   H     H_    0.824803 0.613431 0.621771 0.119348
H60   H     H_    0.654896 0.551549 0.660339 0.055142
H61   H     H_    0.683934 0.503212 0.570045 0.242847

loop_
_geom_bond_atom_site_label_1
_geom_bond_atom_site_label_2
_geom_bond_distance
_ccdc_geom_bond_type
C53   H58   1.107626 S    
C11   C12   1.535489 S    
C48   C52   1.416612 A    
C21   H41   1.077554 S    
C13   H30   1.112253 S    
C2    H4    1.112631 S    
C15   H35   1.111028 S    
O16   P7    1.768159 S    
O14   P8    1.753687 S    
C37   C38   1.434949 A    
O12   Ba2   2.865309 S    
P4    O13   1.575441 S    
H36   C16   1.105080 S    
C39   C40   1.388439 A    
C4    C5    1.517290 S    
C44   C46   1.390223 A    
C52   H53   1.074130 S    
P3    O11   1.749460 S    
C1    H24   1.109853 S    
C5    H10   1.106773 S    
N1    O27   1.301470 A    
C14   H33   1.112230 S    
O11   C2    1.401653 S    
P7    O21   1.571725 D    
C43   C51   1.386717 A    
H1    C10   1.109847 S    
C16   H38   1.110452 S    
C44   H55   1.082435 S    
C29   C30   1.387958 A    
C23   C27   1.447920 A    
C24   C28   1.379024 A    
C6    C7    1.520457 S    
O13   Ba2   2.948165 S    
C31   C32   1.387090 A    
O1    Ba1   2.864916 S    
P1    O1    1.524131 D    
C54   H61   1.087992 S    
C3    H29   1.108188 S    
P7    O22   1.758885 S    
C41   C42   1.383447 A    
C28   H43   1.082698 S    
C15   C16   1.517923 S    
C33   C34   1.439261 A    
C8    C9    1.514932 S    
N1    O26   1.301973 A    
C14   N1    1.457319 S    
C21   C27   1.413802 A    
C47   C48   1.428178 A    
C12   H27   1.110397 S    
P2    O10   1.766994 S    
C30   C31   1.378133 A    
Ba2   O21   2.896549 S    
C17   C18   1.416858 A    
P2    C47   1.855382 S    
C1    H2    1.110710 S    
O6    P6    1.747340 S    
C37   C42   1.415090 A    
P5    O18   1.540534 D    
C36   C39   1.420039 A    
C17   C25   1.438722 A    
C8    H19   1.087541 S    
C10   H23   1.113871 S    
P7    C50   1.834523 S    
P2    Ba1   3.447092 S    
C13   H31   1.111770 S    
C45   C49   1.411339 A    
P6    C22   1.818857 S    
Ba1   Ba2   4.596462 S    
C15   O24   1.408722 S    
P1    C24   1.863989 S    
O6    C10   1.413162 S    
C35   C36   1.445293 A    
P5    O17   1.757969 S    
C29   C34   1.418633 A    
C7    H17   1.108032 S    
P1    O5    1.748671 S    
Ba2   O20   2.840892 S    
C2    C3    1.522330 S    
C14   H32   1.112339 S    
P8    C20   1.866522 S    
C43   C50   1.389197 A    
O7    Ba1   2.896372 S    
O16   Ba2   2.942246 S    
C16   H37   1.108909 S    
C32   H47   1.066619 S    
P4    O15   1.754884 S    
C4    H8    1.101230 S    
P1    Ba1   3.431785 S    
C27   C35   1.568333 S    
P1    O2    1.575415 S    
O10   C8    1.403811 S    
C9    H20   1.111987 S    
C4    O15   1.405525 S    
P4    Ba2   3.432299 S    
P2    O20   1.597157 S    
P4    O12   1.524411 D    
C54   H59   1.099969 S    
C12   H28   1.101393 S    
C19   C20   1.397876 A    
C6    H13   1.104043 S    
P3    C46   1.839647 S    
C9    H21   1.115826 S    
O3    Ba1   2.798796 S    
C19   C25   1.423624 A    
C26   O28   1.360805 S    
O4    P6    1.537753 D    
C8    H18   1.111739 S    
C11   O22   1.410130 S    
C23   H42   1.080401 S    
C23   C24   1.426989 A    
C1    H3    1.110096 S    
C48   C49   1.427537 A    
C25   C38   1.559520 S    
C13   C14   1.528795 S    
C3    H7    1.108555 S    
C30   H45   1.082960 S    
C18   C26   1.388778 A    
C45   H52   1.078409 S    
O2    Ba2   2.810143 S    
Ba1   O16   2.841480 S    
C36   C37   1.446226 A    
C53   H57   1.109139 S    
C7    H15   1.107279 S    
O19   C13   1.402713 S    
C39   H48   1.065045 S    
C29   H44   1.071978 S    
O28   C54   1.400282 S    
O14   Ba2   2.798192 S    
P4    C18   1.878905 S    
C5    H12   1.109446 S    
C31   H46   1.081316 S    
C15   H34   1.111205 S    
O8    Ba1   2.810336 S    
P8    O23   1.544018 D    
C21   C22   1.395075 A    
C49   C50   1.418232 A    
C4    H9    1.103552 S    
O5    C6    1.400295 S    
C44   C47   1.398993 A    
P3    O8    1.748099 S    
C45   C46   1.389798 A    
P2    O7    1.522722 D    
Ba1   O20   2.943087 S    
C5    H11   1.108658 S    
C32   C33   1.405195 A    
P8    O24   1.745620 S    
P5    C51   1.840177 S    
C7    H16   1.104054 S    
C19   H40   1.075508 S    
C6    H14   1.108931 S    
C11   O25   1.418602 S    
C3    H6    1.108795 S    
C54   H60   1.104515 S    
C43   H54   1.081883 S    
O2    Ba1   2.947325 S    
C9    H22   1.109934 S    
C33   C35   1.427693 A    
Ba1   O13   2.809550 S    
C22   C28   1.377434 A    
C11   H25   1.111513 S    
P5    O19   1.744642 S    
C20   C26   1.386077 A    
C12   H26   1.109146 S    
P3    O9    1.543732 D    
O3    P6    1.720929 S    
O25   C53   1.416834 S    
C51   C52   1.403308 A    
C34   C38   1.436700 A    
C41   H50   1.083179 S    
C1    C10   1.521779 S    
C17   H39   1.081020 S    
C40   C41   1.375613 A    
C40   H49   1.083252 S    
C53   H56   1.111549 S    
C2    H5    1.110072 S    
O17   Ba2   2.810937 S    
C42   H51   1.064603 S    
