data_mof_unit_32698.cif
_audit_creation_date              2012-10-26T21:33:04-0400
_audit_creation_method            fapswitch 2.2
_symmetry_space_group_name_H-M    P1
_symmetry_Int_Tables_number       1
_space_group_crystal_system       triclinic
_cell_length_a                    28.08256
_cell_length_b                    18.556619
_cell_length_c                    17.083953
_cell_angle_alpha                 90.186142
_cell_angle_beta                  60.700772
_cell_angle_gamma                 90.281446
_cell_volume                      7763.77139357

loop_
_atom_site_label
_atom_site_type_symbol
_atom_type_description
_atom_site_fract_x
_atom_site_fract_y
_atom_site_fract_z
_atom_type_partial_charge
C1    C     C_R   0.701749 0.268746 0.675816 0.906547
C2    C     C_R   0.973202 0.632461 0.426209 -0.224749
C3    C     C_R   0.074053 0.900497 0.933903 0.914952
C4    C     C_R   0.573909 0.599751 0.934140 0.916368
C5    C     C_R   0.426064 0.400281 0.065873 0.908966
C6    C     C_R   0.425960 0.599523 0.066079 0.908343
C7    C     C_R   0.574053 0.400497 0.933903 0.914952
C8    C     C_R   0.562335 0.004011 0.462187 0.031235
C9    C     C_R   0.473512 0.002600 0.428895 0.033103
C10   C     C_R   0.062335 0.504010 0.462188 0.031235
C11   C     C_R   0.973511 0.502600 0.428896 0.033102
C12   C     C_R   0.533919 0.068327 0.468729 0.043223
C13   C     C_R   0.981422 0.374242 0.402633 -0.214619
C14   C     C_R   0.502417 0.938184 0.419310 0.044101
C15   C     C_R   0.493857 0.068596 0.441537 0.046828
C16   C     C_R   0.550135 0.940431 0.428991 0.047889
C17   C     C_R   0.033918 0.568326 0.468729 0.043223
C18   C     C_R   0.002416 0.438184 0.419311 0.044100
C19   C     C_R   0.993857 0.568596 0.441538 0.046828
C20   C     C_R   0.050134 0.440430 0.428991 0.047889
C21   C     C_R   0.633680 0.940700 0.478676 0.027226
C22   C     C_R   0.396315 0.066560 0.432449 0.030414
C23   C     C_R   0.397595 0.935716 0.429430 0.031263
C24   C     C_R   0.042995 0.628800 0.509422 -0.227005
C25   C     C_R   0.613891 0.065722 0.525044 0.042299
C26   C     C_R   0.133680 0.440700 0.478677 0.027226
C27   C     C_R   0.896315 0.566560 0.432449 0.030414
C28   C     C_R   0.897595 0.435716 0.429430 0.031262
C29   C     C_R   0.113891 0.565722 0.525044 0.042299
C30   C     C_R   0.667972 0.938166 0.519420 -0.176926
C31   C     C_R   0.339716 0.064463 0.457296 -0.183049
C32   C     C_R   0.340320 0.935996 0.456698 -0.183432
C33   C     C_R   0.657352 0.064824 0.545885 -0.183718
C34   C     C_R   0.167972 0.438166 0.519420 -0.176927
C35   C     C_R   0.585911 0.881855 0.407948 -0.219109
C36   C     C_R   0.839715 0.564463 0.457297 -0.183050
C37   C     C_R   0.840320 0.435996 0.456698 -0.183432
C38   C     C_R   0.157352 0.564824 0.545885 -0.183718
C39   C     C_R   0.675664 0.999672 0.559335 0.081360
C40   C     C_R   0.311341 0.999949 0.485186 0.080473
C41   C     C_R   0.175664 0.499672 0.559335 0.081361
C42   C     C_R   0.811341 0.499949 0.485186 0.080473
C43   C     C_R   0.602989 0.003284 0.489223 0.072557
C44   C     C_R   0.422682 0.001497 0.429678 0.081958
C45   C     C_R   0.102989 0.503283 0.489223 0.072558
C46   C     C_R   0.473202 0.132461 0.426208 -0.224749
C47   C     C_R   0.922682 0.501497 0.429678 0.081958
C48   C     C_R   0.128135 0.383297 0.428856 -0.167012
C49   C     C_R   0.927194 0.630724 0.415557 -0.166849
C50   C     C_R   0.930379 0.373213 0.406526 -0.173600
C51   C     C_R   0.080736 0.626605 0.539718 -0.150290
C52   C     C_R   0.628135 0.883297 0.428856 -0.167011
C53   C     C_R   0.427194 0.130724 0.415556 -0.166848
C54   C     C_R   0.430379 0.873213 0.406527 -0.173603
C55   C     C_R   0.580736 0.126605 0.539717 -0.150290
C56   C     C_R   0.481422 0.874242 0.402633 -0.214621
C57   C     C_R   0.542995 0.128800 0.509421 -0.227004
C58   C     C_R   0.720377 0.263980 0.953701 0.114998
C59   C     C_R   0.279218 0.735230 0.046602 0.113136
C60   C     C_R   0.278832 0.264641 0.047085 0.116371
C61   C     C_R   0.298236 0.731227 0.324184 0.882584
C62   C     C_R   0.720027 0.737495 0.953846 0.116862
C63   C     C_R   0.220377 0.763980 0.953701 0.114998
C64   C     C_R   0.779218 0.235230 0.046602 0.113136
C65   C     C_R   0.778832 0.764641 0.047085 0.116371
C66   C     C_R   0.220027 0.237495 0.953846 0.116862
C67   C     C_R   0.777845 0.263987 0.908103 -0.169182
C68   C     C_R   0.221745 0.735189 0.092207 -0.173948
C69   C     C_R   0.221415 0.266294 0.092410 -0.175861
C70   C     C_R   0.777431 0.735909 0.908549 -0.170745
C71   C     C_R   0.277845 0.763987 0.908103 -0.169182
C72   C     C_R   0.298255 0.268726 0.324099 0.868126
C73   C     C_R   0.721745 0.235189 0.092207 -0.173948
C74   C     C_R   0.721415 0.766294 0.092410 -0.175861
C75   C     C_R   0.277431 0.235909 0.908549 -0.170745
C76   C     C_R   0.806810 0.249825 0.953859 -0.175641
C77   C     C_R   0.192775 0.749363 0.046445 -0.175561
C78   C     C_R   0.192428 0.252897 0.046416 -0.176452
C79   C     C_R   0.806408 0.749265 0.954527 -0.177671
C80   C     C_R   0.306810 0.749825 0.953859 -0.175641
C81   C     C_R   0.692775 0.249363 0.046445 -0.175561
C82   C     C_R   0.692428 0.752897 0.046416 -0.176452
C83   C     C_R   0.701643 0.731471 0.675945 0.924788
C84   C     C_R   0.306408 0.249265 0.954527 -0.177671
C85   C     C_R   0.643277 0.326103 0.946030 -0.202285
C86   C     C_R   0.356486 0.673486 0.054148 -0.201092
C87   C     C_R   0.356443 0.325940 0.054210 -0.203862
C88   C     C_R   0.642836 0.675273 0.946372 -0.204088
C89   C     C_R   0.143277 0.826103 0.946030 -0.202285
C90   C     C_R   0.856486 0.173486 0.054148 -0.201092
C91   C     C_R   0.856443 0.825940 0.054210 -0.203862
C92   C     C_R   0.142836 0.175273 0.946372 -0.204088
C93   C     C_R   0.616332 0.347086 0.898378 -0.065972
C94   C     C_R   0.201749 0.768746 0.675816 0.906547
C95   C     C_R   0.383624 0.652861 0.101621 -0.065182
C96   C     C_R   0.383742 0.346714 0.101440 -0.066390
C97   C     C_R   0.615990 0.653659 0.898713 -0.066824
C98   C     C_R   0.116332 0.847086 0.898378 -0.065972
C99   C     C_R   0.883624 0.152861 0.101621 -0.065182
C100  C     C_R   0.883742 0.846714 0.101440 -0.066390
C101  C     C_R   0.115990 0.153659 0.898713 -0.066824
C102  C     C_R   0.633035 0.322329 0.813150 -0.247889
C103  C     C_R   0.367034 0.677853 0.186718 -0.264260
C104  C     C_R   0.367214 0.321839 0.186493 -0.263151
C105  C     C_R   0.798236 0.231227 0.324184 0.882584
C106  C     C_R   0.632709 0.678136 0.813422 -0.244251
C107  C     C_R   0.133035 0.822329 0.813150 -0.247889
C108  C     C_R   0.867034 0.177853 0.186718 -0.264260
C109  C     C_R   0.867215 0.821839 0.186493 -0.263151
C110  C     C_R   0.132709 0.178136 0.813422 -0.244251
C111  C     C_R   0.679310 0.281400 0.770871 -0.047680
C112  C     C_R   0.320606 0.718488 0.229147 -0.049155
C113  C     C_R   0.320522 0.281351 0.229166 -0.044242
C114  C     C_R   0.679101 0.719232 0.771036 -0.052112
C115  C     C_R   0.179310 0.781400 0.770871 -0.047680
C116  C     C_R   0.798255 0.768726 0.324099 0.868125
C117  C     C_R   0.820606 0.218488 0.229147 -0.049155
C118  C     C_R   0.820522 0.781351 0.229166 -0.044242
C119  C     C_R   0.179101 0.219232 0.771036 -0.052112
C120  C     C_R   0.707302 0.259454 0.816949 -0.182793
C121  C     C_R   0.292402 0.740040 0.183253 -0.195272
C122  C     C_R   0.291988 0.259810 0.183575 -0.203691
C123  C     C_R   0.707124 0.741705 0.817101 -0.183063
C124  C     C_R   0.207302 0.759454 0.816949 -0.182793
C125  C     C_R   0.792402 0.240040 0.183253 -0.195272
C126  C     C_R   0.791988 0.759810 0.183575 -0.203691
C127  C     C_R   0.201643 0.231471 0.675945 0.924788
C128  C     C_R   0.207124 0.241705 0.817101 -0.183063
C129  C     C_R   0.689380 0.281817 0.905637 0.071563
C130  C     C_R   0.310277 0.717577 0.094620 0.072128
C131  C     C_R   0.309996 0.282023 0.094947 0.074230
C132  C     C_R   0.689001 0.719713 0.905865 0.072604
C133  C     C_R   0.189380 0.781817 0.905637 0.071563
C134  C     C_R   0.810277 0.217577 0.094620 0.072127
C135  C     C_R   0.809996 0.782023 0.094947 0.074231
C136  C     C_R   0.189001 0.219713 0.905865 0.072604
C137  C     C_R   0.691090 0.129176 0.533698 0.921754
C138  C     C_R   0.085910 0.381855 0.407949 -0.219109
C139  C     C_R   0.307894 0.871128 0.469329 0.925876
C140  C     C_R   0.307498 0.128817 0.470076 0.932575
C141  C     C_R   0.695230 0.872294 0.521278 0.933776
C142  C     C_R   0.191090 0.629176 0.533698 0.921754
C143  C     C_R   0.807894 0.371128 0.469329 0.925876
C144  C     C_R   0.807498 0.628817 0.470076 0.932575
C145  C     C_R   0.195230 0.372294 0.521278 0.933776
C146  C     C_R   0.073909 0.099751 0.934140 0.916368
C147  C     C_R   0.926064 0.900281 0.065873 0.908966
C148  C     C_R   0.925960 0.099523 0.066079 0.908343
H1    H     H_    0.156114 0.338619 0.404323 0.175883
H2    H     H_    0.992892 0.683916 0.420662 0.140177
H3    H     H_    0.002340 0.323399 0.390886 0.137576
H4    H     H_    0.018678 0.677041 0.523475 0.143117
H5    H     H_    0.582872 0.834860 0.373215 0.134038
H6    H     H_    0.492892 0.183916 0.420661 0.140177
H7    H     H_    0.502340 0.823400 0.390886 0.137577
H8    H     H_    0.518678 0.177041 0.523474 0.143117
H9    H     H_    0.648588 0.248011 0.083641 0.131014
H10   H     H_    0.350997 0.751215 0.916657 0.133248
H11   H     H_    0.350563 0.246740 0.917675 0.131794
H12   H     H_    0.916121 0.680857 0.397234 0.176007
H13   H     H_    0.648268 0.755318 0.083254 0.129831
H14   H     H_    0.148588 0.748011 0.083641 0.131014
H15   H     H_    0.850997 0.251215 0.916657 0.133248
H16   H     H_    0.850563 0.746740 0.917675 0.131794
H17   H     H_    0.148268 0.255318 0.083254 0.129831
H18   H     H_    0.800584 0.276471 0.837202 0.135936
H19   H     H_    0.199011 0.722722 0.163115 0.133734
H20   H     H_    0.198822 0.279432 0.163177 0.127404
H21   H     H_    0.800036 0.722739 0.837803 0.135127
H22   H     H_    0.300584 0.776471 0.837202 0.135936
H23   H     H_    0.917518 0.322380 0.392238 0.173989
H24   H     H_    0.699011 0.222722 0.163115 0.133734
H25   H     H_    0.698822 0.779432 0.163177 0.127404
H26   H     H_    0.300036 0.222739 0.837803 0.135127
H27   H     H_    0.630047 0.347163 0.012727 0.149275
H28   H     H_    0.369660 0.652293 0.987529 0.150756
H29   H     H_    0.369619 0.347013 0.987618 0.150537
H30   H     H_    0.629568 0.654438 0.013100 0.149226
H31   H     H_    0.130047 0.847163 0.012727 0.149275
H32   H     H_    0.869660 0.152293 0.987529 0.150756
H33   H     H_    0.869619 0.847014 0.987618 0.150537
H34   H     H_    0.081742 0.672398 0.578128 0.170184
H35   H     H_    0.129568 0.154438 0.013100 0.149226
H36   H     H_    0.612107 0.339281 0.777226 0.179923
H37   H     H_    0.388157 0.661261 0.222461 0.175913
H38   H     H_    0.388545 0.338493 0.222074 0.175924
H39   H     H_    0.611790 0.660722 0.777459 0.181258
H40   H     H_    0.112107 0.839281 0.777226 0.179923
H41   H     H_    0.888157 0.161262 0.222461 0.175913
H42   H     H_    0.888545 0.838493 0.222074 0.175924
H43   H     H_    0.111790 0.160722 0.777459 0.181258
H44   H     H_    0.743586 0.226531 0.783307 0.155423
H45   H     H_    0.656114 0.838619 0.404323 0.175883
H46   H     H_    0.256011 0.772754 0.216985 0.150974
H47   H     H_    0.255272 0.227368 0.217482 0.149072
H48   H     H_    0.743602 0.774617 0.783410 0.155380
H49   H     H_    0.243586 0.726531 0.783307 0.155424
H50   H     H_    0.756011 0.272754 0.216985 0.150974
H51   H     H_    0.755272 0.727368 0.217482 0.149072
H52   H     H_    0.243602 0.274617 0.783410 0.155380
H53   H     H_    0.416121 0.180857 0.397234 0.176007
H54   H     H_    0.417517 0.822380 0.392241 0.173992
H55   H     H_    0.581742 0.172398 0.578128 0.170183
H56   H     H_    0.082872 0.334860 0.373215 0.134038
I1    I     I_    0.706060 0.996605 0.653192 -0.347752
I2    I     I_    0.228645 0.999595 0.597916 -0.319778
I3    I     I_    0.206060 0.496605 0.653192 -0.347752
I4    I     I_    0.728645 0.499595 0.597916 -0.319778
O1    O     O_R   0.746490 0.236330 0.638080 -0.629563
O2    O     O_R   0.325830 0.813840 0.483730 -0.645925
O3    O     O_R   0.325830 0.186160 0.483730 -0.649260
O4    O     O_R   0.674170 0.813840 0.516270 -0.648171
O5    O     O_R   0.174170 0.686160 0.516270 -0.648944
O6    O     O_R   0.825830 0.313840 0.483730 -0.645924
O7    O     O_R   0.825830 0.686160 0.483730 -0.649260
O8    O     O_R   0.174170 0.313840 0.516270 -0.648171
O9    O     O_R   0.739960 0.127620 0.525000 -0.584859
O10   O     O_R   0.260040 0.872380 0.475000 -0.590921
O11   O     O_R   0.260040 0.127620 0.475000 -0.592520
O12   O     O_R   0.253510 0.763670 0.361920 -0.637211
O13   O     O_R   0.739960 0.872380 0.525000 -0.589125
O14   O     O_R   0.239960 0.627620 0.525000 -0.584859
O15   O     O_R   0.760040 0.372380 0.475000 -0.590922
O16   O     O_R   0.760040 0.627620 0.475000 -0.592520
O17   O     O_R   0.239960 0.372380 0.525000 -0.589125
O18   O     O_R   0.680700 0.294870 0.629350 -0.624159
O19   O     O_R   0.319300 0.705130 0.370650 -0.635932
O20   O     O_R   0.319300 0.294870 0.370650 -0.638805
O21   O     O_R   0.680700 0.705130 0.629350 -0.616039
O22   O     O_R   0.180700 0.794870 0.629350 -0.624159
O23   O     O_R   0.253510 0.236330 0.361920 -0.652550
O24   O     O_R   0.819300 0.205130 0.370650 -0.635933
O25   O     O_R   0.819300 0.794870 0.370650 -0.638805
O26   O     O_R   0.180700 0.205130 0.629350 -0.616039
O27   O     O_R   0.062020 0.072840 0.007170 -0.629125
O28   O     O_R   0.937980 0.927160 0.992830 -0.627796
O29   O     O_R   0.937980 0.072840 0.992830 -0.627410
O30   O     O_R   0.062020 0.927160 0.007170 -0.629189
O31   O     O_R   0.562020 0.572840 0.007170 -0.629125
O32   O     O_R   0.437980 0.427160 0.992830 -0.627796
O33   O     O_R   0.437980 0.572840 0.992830 -0.627410
O34   O     O_R   0.746490 0.763670 0.638080 -0.628355
O35   O     O_R   0.562020 0.427160 0.007170 -0.629189
O36   O     O_R   0.947860 0.073950 0.109290 -0.624636
O37   O     O_R   0.052140 0.926050 0.890710 -0.618289
O38   O     O_R   0.052140 0.073950 0.890710 -0.617673
O39   O     O_R   0.947860 0.926050 0.109290 -0.624695
O40   O     O_R   0.447860 0.573950 0.109290 -0.624636
O41   O     O_R   0.552140 0.426050 0.890710 -0.618289
O42   O     O_R   0.552140 0.573950 0.890710 -0.617673
O43   O     O_R   0.447860 0.426050 0.109290 -0.624695
O44   O     O_R   0.246490 0.736330 0.638080 -0.629563
O45   O     O_R   0.753510 0.263670 0.361920 -0.637211
O46   O     O_R   0.753510 0.736330 0.361920 -0.652550
O47   O     O_R   0.246490 0.263670 0.638080 -0.628355
O48   O     O_R   0.674170 0.186160 0.516270 -0.648944
Zn1   Zn    Zn3+2 0.792340 0.208750 0.507670 0.975741
Zn2   Zn    Zn3+2 0.494040 0.500000 0.919480 0.950795
Zn3   Zn    Zn3+2 0.005960 0.000000 0.080520 0.936097
Zn4   Zn    Zn3+2 0.994040 0.000000 0.919480 0.950795
Zn5   Zn    Zn3+2 0.207660 0.791250 0.492330 0.969561
Zn6   Zn    Zn3+2 0.207660 0.208750 0.492330 0.969244
Zn7   Zn    Zn3+2 0.792340 0.791250 0.507670 0.972730
Zn8   Zn    Zn3+2 0.292340 0.708750 0.507670 0.975741
Zn9   Zn    Zn3+2 0.707660 0.291250 0.492330 0.969561
Zn10  Zn    Zn3+2 0.707660 0.708750 0.492330 0.969244
Zn11  Zn    Zn3+2 0.292340 0.291250 0.507670 0.972730
Zn12  Zn    Zn3+2 0.505960 0.500000 0.080520 0.936097

loop_
_geom_bond_atom_site_label_1
_geom_bond_atom_site_label_2
_ccdc_geom_bond_type
C125  C134  A    
C126  H51   S    
C14   C56   A    
O48   Zn9   S    
C59   C130  S    
C2    H2    S    
C65   C79   A    
C5    O32   A    
C137  O9    A    
C123  C132  A    
C3    O30   A    
C60   C84   A    
C90   C99   A    
C11   C47   A    
O12   Zn5   S    
C103  H37   S    
C61   O12   A    
C105  O45   A    
C122  H47   S    
C99   C148  S    
C51   H34   S    
O42   Zn2   S    
C25   C43   A    
C69   C78   A    
C58   C129  S    
C28   C47   A    
O41   Zn2   S    
C116  O46   A    
C99   C108  A    
C34   C41   A    
C83   O34   A    
C11   C19   A    
C142  O14   A    
C33   C39   A    
C30   C141  S    
C124  C133  A    
C106  C114  A    
C48   H1    S    
C127  O47   A    
C12   C57   A    
C63   C133  S    
C6    O40   A    
C5    C96   S    
C72   O23   A    
C70   H21   S    
C29   C51   A    
C106  H39   S    
C120  H44   S    
C16   C35   A    
C143  O15   A    
C90   C134  A    
C34   C145  S    
C75   C84   A    
C11   C18   A    
C100  C147  S    
C87   C131  A    
C80   H10   S    
C110  H43   S    
C68   C77   A    
O9    Zn1   S    
C31   C40   A    
C62   C70   A    
C20   C138  A    
C37   C42   A    
O37   Zn4   S    
C5    O43   A    
C24   H4    S    
C26   C45   A    
C85   C129  A    
C3    O37   A    
C21   C43   A    
C85   C93   A    
C26   C34   A    
C22   C44   A    
C113  C122  A    
C85   H27   S    
C10   C20   A    
C78   H17   S    
C49   H12   S    
C141  O13   A    
C116  O25   A    
C30   C39   A    
C64   C73   A    
C8    C43   A    
O6    Zn1   S    
C42   I4    S    
C50   H23   S    
C94   O22   A    
C91   C100  A    
C121  C130  A    
C86   H28   S    
C88   C97   A    
C26   C48   A    
O25   Zn7   S    
C147  O28   A    
C24   C51   A    
C89   H31   S    
C62   C82   A    
O22   Zn5   S    
O4    Zn10  S    
C100  C109  A    
C8    C16   A    
C4    C97   S    
C75   H26   S    
C38   C142  S    
C83   C114  S    
C105  C117  S    
C102  C111  A    
C92   C136  A    
O36   Zn3   S    
C138  H56   S    
C74   C82   A    
C56   H7    S    
C7    C93   S    
C60   C131  S    
C73   C81   A    
C71   C80   A    
O8    Zn6   S    
C84   H11   S    
C95   C103  A    
O19   Zn8   S    
O14   Zn8   S    
C22   C53   A    
C90   H32   S    
C36   C42   A    
C139  O2    A    
O2    Zn8   S    
C46   H6    S    
C57   H8    S    
C64   C134  S    
C101  C146  S    
O28   Zn4   S    
C17   C24   A    
C89   C133  A    
C22   C31   A    
C1    O1    A    
C120  C129  A    
C105  O24   A    
C62   C132  S    
C29   C38   A    
C81   H9    S    
O35   Zn12  S    
C13   H3    S    
C38   C41   A    
O33   Zn2   S    
C58   C81   A    
C33   C137  S    
C28   C50   A    
C86   C130  A    
C83   O21   A    
O45   Zn9   S    
C101  C110  A    
C54   H54   S    
C145  O17   A    
C107  H40   S    
C53   H53   S    
C65   C74   A    
C148  O29   A    
O21   Zn10  S    
O5    Zn5   S    
C111  C120  A    
C41   I3    S    
C9    C14   A    
C128  H52   S    
C1    O18   A    
C2    C49   A    
O7    Zn7   S    
C59   C68   A    
C87   H29   S    
C145  O8    A    
C140  O11   A    
O1    Zn1   S    
C12   C15   A    
C109  H42   S    
O34   Zn7   S    
C55   H55   S    
C87   C96   A    
O29   Zn4   S    
O3    Zn11  S    
C64   C76   A    
C71   H22   S    
O30   Zn3   S    
C6    O33   A    
C61   O19   A    
C73   H24   S    
C88   H30   S    
C141  O4    A    
C107  C115  A    
C65   C135  S    
C92   C101  A    
C32   C139  S    
C143  O6    A    
C66   C136  S    
C114  C123  A    
C13   C18   A    
C66   C78   A    
C60   C69   A    
O23   Zn6   S    
C7    O41   A    
C125  H50   S    
O24   Zn1   S    
C55   C57   A    
C14   C16   A    
C108  H41   S    
C97   C106  A    
C7    O35   A    
C3    C98   S    
C121  H46   S    
O20   Zn11  S    
C104  H38   S    
C67   H18   S    
C23   C54   A    
C63   C77   A    
C27   C47   A    
C77   H14   S    
C96   C104  A    
C146  O27   A    
O46   Zn10  S    
C9    C44   A    
C115  C124  A    
C37   C143  S    
C74   H25   S    
C2    C19   A    
C93   C102  A    
C108  C117  A    
O11   Zn6   S    
C52   H45   S    
C35   H5    S    
C142  O5    A    
C63   C71   A    
O13   Zn7   S    
C92   H35   S    
C94   O44   A    
C110  C119  A    
C126  C135  A    
C144  O7    A    
O39   Zn3   S    
C94   C115  S    
C54   C56   A    
C91   H33   S    
O40   Zn12  S    
C82   H13   S    
C27   C36   A    
C118  C126  A    
C21   C30   A    
C146  O38   A    
C48   C138  A    
C89   C98   A    
O44   Zn8   S    
C102  H36   S    
C23   C32   A    
C128  C136  A    
C36   C144  S    
C69   H20   S    
C4    O42   A    
C112  C121  A    
C124  H49   S    
C25   C55   A    
C119  C128  A    
O16   Zn10  S    
C127  O26   A    
C139  O10   A    
C122  C131  A    
C70   C79   A    
O47   Zn11  S    
C28   C37   A    
C79   H16   S    
C66   C75   A    
C72   C113  S    
C46   C53   A    
C104  C113  A    
C17   C19   A    
C4    O31   A    
C116  C118  S    
O31   Zn12  S    
C18   C20   A    
O15   Zn9   S    
C32   C40   A    
C40   I2    S    
C9    C15   A    
C123  H48   S    
C144  O16   A    
C137  O48   A    
O38   Zn4   S    
C86   C95   A    
C98   C107  A    
O18   Zn9   S    
C147  O39   A    
C13   C50   A    
C68   H19   S    
C27   C49   A    
C58   C67   A    
O26   Zn6   S    
C91   C135  A    
C109  C118  A    
O27   Zn3   S    
C6    C95   S    
C72   O20   A    
C10   C45   A    
C29   C45   A    
C35   C52   A    
C148  O36   A    
O10   Zn5   S    
C88   C132  A    
C103  C112  A    
C76   H15   S    
C67   C76   A    
C10   C17   A    
C15   C46   A    
O32   Zn2   S    
C31   C140  S    
C39   I1    S    
C61   C112  S    
C117  C125  A    
O43   Zn12  S    
O17   Zn11  S    
C21   C52   A    
C1    C111  S    
C8    C12   A    
C140  O3    A    
C25   C33   A    
C59   C80   A    
C23   C44   A    
C119  C127  S    
