data_mof_unit_35431.cif
_audit_creation_date              2012-12-11T15:08:31-0500
_audit_creation_method            fapswitch 2.2
_symmetry_space_group_name_H-M    P1
_symmetry_Int_Tables_number       1
_space_group_crystal_system       triclinic
_cell_length_a                    26.575115
_cell_length_b                    7.243659
_cell_length_c                    12.397325
_cell_angle_alpha                 89.999875
_cell_angle_beta                  104.336016
_cell_angle_gamma                 90.000056
_cell_volume                      2312.18344198

loop_
_atom_site_label
_atom_site_type_symbol
_atom_type_description
_atom_site_fract_x
_atom_site_fract_y
_atom_site_fract_z
_atom_type_partial_charge
O1    O     O_R   0.437360 0.505910 0.042120 -0.536059
O2    O     O_R   0.562640 0.005910 0.957880 -0.536058
O3    O     O_R   0.542480 0.176660 0.157100 -0.541011
O4    O     O_R   0.457520 0.676660 0.842900 -0.541012
C1    C     C_R   0.557544 0.344068 0.195529 0.683724
C2    C     C_R   0.442456 0.844068 0.804471 0.683723
O5    O     O_R   0.436520 0.176250 0.054800 -0.547015
O6    O     O_R   0.563480 0.676250 0.945200 -0.547015
O7    O     O_R   0.455920 0.005040 0.854840 -0.538414
O8    O     O_R   0.544080 0.505040 0.145160 -0.538413
C3    C     C_R   0.419269 0.344562 0.070460 0.694568
C4    C     C_R   0.580731 0.844562 0.929539 0.694567
O9    O     O_3   0.506490 0.338900 0.934520 -0.386699
O10   O     O_3   0.493510 0.838900 0.065480 -0.386697
V1    V     V_3+5 0.498800 0.064400 0.012150 1.364293
V2    V     V_3+5 0.501200 0.564400 0.987850 1.364292
C5    C     C_R   0.685882 0.764945 0.767198 0.080652
C6    C     C_R   0.314118 0.264947 0.232802 0.080651
H1    H     H_    0.775399 0.571409 0.791016 0.134547
H2    H     H_    0.224601 0.071411 0.208985 0.134548
C7    C     C_R   0.630551 0.845441 0.893194 -0.100551
C8    C     C_R   0.369449 0.345441 0.106805 -0.100546
C9    C     C_R   0.868445 0.915226 0.207309 -0.232123
C10   C     C_R   0.131555 0.415224 0.792690 -0.232122
C11   C     C_R   0.822562 0.914021 0.242501 -0.135365
C12   C     C_R   0.177438 0.414018 0.757498 -0.135363
C13   C     C_R   0.774567 0.870832 0.168812 0.085845
C14   C     C_R   0.225433 0.370829 0.831187 0.085844
C15   C     C_R   0.772336 0.837569 0.054302 0.063017
C16   C     C_R   0.227664 0.337567 0.945698 0.063017
C17   C     C_R   0.820769 0.811077 0.025219 0.066781
C18   C     C_R   0.179231 0.311077 0.974780 0.066783
C19   C     C_R   0.725030 0.820120 0.967017 0.027732
C20   C     C_R   0.274969 0.320119 0.032982 0.027731
C21   C     C_R   0.728000 0.748459 0.863076 0.108087
C22   C     C_R   0.272000 0.248459 0.136923 0.108093
C23   C     C_R   0.774363 0.666872 0.855940 -0.231052
C24   C     C_R   0.225637 0.166872 0.144060 -0.231050
C25   C     C_R   0.820603 0.720582 0.925794 -0.228778
C26   C     C_R   0.179397 0.220582 0.074206 -0.228781
C27   C     C_R   0.675697 0.875640 0.976863 -0.298236
C28   C     C_R   0.324303 0.375639 0.023136 -0.298242
C29   C     C_R   0.634443 0.797096 0.783521 0.043494
C30   C     C_R   0.365557 0.297100 0.216479 0.043494
C31   C     C_R   0.868432 0.859996 0.099534 -0.104286
C32   C     C_R   0.131568 0.359995 0.900465 -0.104287
H3    H     H_    0.670192 0.938945 0.049969 0.155104
H4    H     H_    0.329807 0.438945 0.950030 0.155104
H5    H     H_    0.904509 0.952511 0.265865 0.116181
H6    H     H_    0.095490 0.452509 0.734134 0.116181
H7    H     H_    0.824732 0.941061 0.329520 0.132778
H8    H     H_    0.175268 0.441057 0.670479 0.132777
H9    H     H_    0.855824 0.676440 0.904887 0.145799
H10   H     H_    0.144176 0.176439 0.095113 0.145799
C33   C     C_R   0.088619 0.863996 0.310373 -0.019039
C34   C     C_R   0.911381 0.363997 0.689627 -0.019040
C35   C     C_R   0.408081 0.847812 0.691145 -0.031713
C36   C     C_R   0.591919 0.347808 0.308857 -0.031720
C37   C     C_R   0.100639 0.883916 0.509545 -0.177951
C38   C     C_R   0.899361 0.383918 0.490454 -0.177951
C39   C     C_R   0.067811 0.871157 0.402865 -0.168694
C40   C     C_R   0.932188 0.371159 0.597134 -0.168694
C41   C     C_R   0.142083 0.872497 0.324647 -0.213234
C42   C     C_R   0.857917 0.372497 0.675354 -0.213233
C43   C     C_R   0.176678 0.874510 0.432012 0.071287
C44   C     C_R   0.823321 0.374510 0.567988 0.071287
C45   C     C_R   0.155399 0.884201 0.526398 0.088457
C46   C     C_R   0.844600 0.384203 0.473602 0.088457
C47   C     C_R   0.231558 0.864801 0.447079 0.042729
C48   C     C_R   0.768442 0.364800 0.552922 0.042730
C49   C     C_R   0.265322 0.885591 0.554139 0.009257
C50   C     C_R   0.734677 0.385593 0.445863 0.009257
C51   C     C_R   0.243021 0.896205 0.646011 -0.249225
C52   C     C_R   0.756978 0.396208 0.353990 -0.249224
C53   C     C_R   0.189013 0.891051 0.634807 0.056352
C54   C     C_R   0.810986 0.391054 0.365194 0.056351
C55   C     C_R   0.253043 0.819748 0.358114 -0.244867
C56   C     C_R   0.746957 0.319746 0.641887 -0.244870
C57   C     C_R   0.306085 0.798243 0.368189 0.055664
C58   C     C_R   0.693914 0.298237 0.631812 0.055662
C59   C     C_R   0.340125 0.809829 0.476451 0.091461
C60   C     C_R   0.659875 0.309821 0.523550 0.091466
C61   C     C_R   0.320379 0.871693 0.567887 0.052036
C62   C     C_R   0.679620 0.371693 0.432115 0.052039
C63   C     C_R   0.391914 0.748581 0.499152 -0.195312
C64   C     C_R   0.608086 0.248559 0.500848 -0.195312
C65   C     C_R   0.424482 0.761960 0.605781 -0.207751
C66   C     C_R   0.575519 0.261934 0.394217 -0.207766
C67   C     C_R   0.356354 0.904892 0.672111 -0.219136
C68   C     C_R   0.643645 0.404897 0.327892 -0.219134
H11   H     H_    0.344837 0.966708 0.741439 0.105354
H12   H     H_    0.655162 0.466721 0.258566 0.105358
H13   H     H_    0.462566 0.701334 0.624084 0.135578
H14   H     H_    0.537438 0.201285 0.375911 0.135579
H15   H     H_    0.082292 0.894264 0.577957 0.111036
H16   H     H_    0.917707 0.394268 0.422042 0.111036
H17   H     H_    0.026100 0.871284 0.392349 0.099872
H18   H     H_    0.973900 0.371286 0.607650 0.099872
H19   H     H_    0.155008 0.883815 0.249167 0.087939
H20   H     H_    0.844992 0.383813 0.750834 0.087939
H21   H     H_    0.267788 0.899172 0.728473 0.122254
H22   H     H_    0.732211 0.399176 0.271528 0.122254
H23   H     H_    0.228362 0.784874 0.278177 0.113137
H24   H     H_    0.771637 0.284873 0.721824 0.113138
H25   H     H_    0.406989 0.677477 0.438194 0.131771
H26   H     H_    0.593013 0.177445 0.561805 0.131772
O11   O     O_R   0.955980 0.206520 0.854760 -0.535832
O12   O     O_R   0.044020 0.706520 0.145240 -0.535832
O13   O     O_R   0.063490 0.536770 0.945200 -0.540614
O14   O     O_R   0.936510 0.036770 0.054800 -0.540614
C69   C     C_R   0.082308 0.368133 0.936352 0.679255
C70   C     C_R   0.917692 0.868133 0.063648 0.679256
O15   O     O_R   0.957530 0.536190 0.842880 -0.543723
O16   O     O_R   0.042470 0.036190 0.157120 -0.543723
O17   O     O_R   0.937350 0.707210 0.042130 -0.545314
O18   O     O_R   0.062650 0.207210 0.957870 -0.545314
C71   C     C_R   0.944902 0.368050 0.802839 0.676089
C72   C     C_R   0.055097 0.868050 0.197161 0.676089
O19   O     O_3   0.993540 0.373870 0.065440 -0.378117
O20   O     O_3   0.006460 0.873870 0.934560 -0.378117
V3    V     V_3+5 0.001200 0.648440 0.987860 1.406666
V4    V     V_3+5 0.998800 0.148440 0.012140 1.406666
C73   C     C_3   0.582769 0.781270 0.693014 -0.382580
C74   C     C_3   0.583704 0.729710 0.572345 -0.327648
C75   C     C_3   0.532012 0.658413 0.503836 -0.804455
H27   H     H_    0.518932 0.544142 0.548641 0.227667
H28   H     H_    0.502646 0.767763 0.488812 0.228385
H29   H     H_    0.535972 0.609360 0.421589 0.237732
H30   H     H_    0.593465 0.851132 0.527257 0.201500
H31   H     H_    0.611004 0.616567 0.572215 0.217587
H32   H     H_    0.558982 0.676056 0.722906 0.179678
H33   H     H_    0.560913 0.912503 0.689220 0.153415
C76   C     C_3   0.417231 0.281281 0.306986 -0.382580
C77   C     C_3   0.416296 0.229732 0.427657 -0.327654
C78   C     C_3   0.467989 0.158434 0.496165 -0.804459
H34   H     H_    0.481062 0.044134 0.451370 0.227662
H35   H     H_    0.497358 0.267770 0.511163 0.228399
H36   H     H_    0.464031 0.109419 0.578421 0.237733
H37   H     H_    0.406537 0.351160 0.472742 0.201502
H38   H     H_    0.388996 0.116592 0.427791 0.217589
H39   H     H_    0.441018 0.176066 0.277097 0.179677
H40   H     H_    0.439086 0.412516 0.310775 0.153417
C79   C     C_3   0.319123 0.758303 0.256619 -0.355772
C80   C     C_3   0.372896 0.803054 0.239848 -0.340656
C81   C     C_3   0.369816 0.845243 0.117695 -0.710277
H41   H     H_    0.351287 0.730348 0.063550 0.222309
H42   H     H_    0.346767 0.971530 0.090269 0.222744
H43   H     H_    0.409338 0.864800 0.106913 0.257314
H44   H     H_    0.390086 0.921225 0.291108 0.216460
H45   H     H_    0.398895 0.682996 0.262469 0.188656
H46   H     H_    0.309355 0.614426 0.232867 0.188253
H47   H     H_    0.291224 0.839669 0.192433 0.184816
C82   C     C_3   0.680877 0.258302 0.743383 -0.355767
C83   C     C_3   0.627103 0.303037 0.760151 -0.340654
C84   C     C_3   0.630181 0.345236 0.882302 -0.710270
H48   H     H_    0.648711 0.230348 0.936451 0.222309
H49   H     H_    0.653228 0.471528 0.909724 0.222743
H50   H     H_    0.590659 0.364792 0.893080 0.257314
H51   H     H_    0.609909 0.421200 0.708886 0.216457
H52   H     H_    0.601106 0.182969 0.737533 0.188657
H53   H     H_    0.690650 0.114430 0.767143 0.188250
H54   H     H_    0.708774 0.339685 0.807565 0.184815
C85   C     C_3   0.698148 0.787663 0.652383 -0.385470
C86   C     C_3   0.753132 0.854539 0.648042 -0.305533
C87   C     C_3   0.754378 0.913133 0.532044 -0.790343
H55   H     H_    0.748633 0.790332 0.477188 0.238170
H56   H     H_    0.723056 0.013574 0.500679 0.254187
H57   H     H_    0.792531 0.976005 0.532456 0.227681
H58   H     H_    0.766225 0.968571 0.707735 0.209394
H59   H     H_    0.782552 0.744084 0.665274 0.210089
H60   H     H_    0.691362 0.657775 0.605424 0.188939
H61   H     H_    0.672033 0.896389 0.608155 0.194171
C88   C     C_3   0.301851 0.287663 0.347617 -0.385477
C89   C     C_3   0.246868 0.354541 0.351957 -0.305533
C90   C     C_3   0.245622 0.413134 0.467956 -0.790341
H62   H     H_    0.251366 0.290333 0.522811 0.238170
H63   H     H_    0.276944 0.513574 0.499321 0.254185
H64   H     H_    0.207469 0.476008 0.467543 0.227681
H65   H     H_    0.233776 0.468574 0.292264 0.209393
H66   H     H_    0.217447 0.244089 0.334724 0.210089
H67   H     H_    0.308636 0.157773 0.394574 0.188941
H68   H     H_    0.327967 0.396386 0.391846 0.194171
C91   C     C_3   0.731672 0.813593 0.221857 -0.398931
C92   C     C_3   0.703796 0.976276 0.260159 -0.332191
C93   C     C_3   0.655296 0.907305 0.292983 -0.732771
H69   H     H_    0.625233 0.864711 0.217779 0.235629
H70   H     H_    0.664557 0.788601 0.350990 0.229764
H71   H     H_    0.639416 0.017132 0.336014 0.238339
H72   H     H_    0.730960 0.042102 0.331001 0.214678
H73   H     H_    0.693062 0.087472 0.197375 0.179932
H74   H     H_    0.704163 0.716217 0.168389 0.173390
H75   H     H_    0.749464 0.732159 0.296684 0.188885
C94   C     C_3   0.268328 0.313592 0.778143 -0.398937
C95   C     C_3   0.296204 0.476276 0.739839 -0.332191
C96   C     C_3   0.344703 0.407306 0.707013 -0.732746
H76   H     H_    0.374770 0.364727 0.782218 0.235627
H77   H     H_    0.335442 0.288591 0.649012 0.229763
H78   H     H_    0.360580 0.517133 0.663971 0.238330
H79   H     H_    0.269039 0.542102 0.668999 0.214677
H80   H     H_    0.306938 0.587471 0.802624 0.179932
H81   H     H_    0.295838 0.216218 0.831610 0.173392
H82   H     H_    0.250536 0.232156 0.703316 0.188885
C97   C     C_3   0.166643 0.890969 0.737266 -0.350950
C98   C     C_3   0.205552 0.864608 0.850984 -0.310951
C99   C     C_3   0.177598 0.836437 0.943250 -0.717523
H83   H     H_    0.147254 0.942780 0.938858 0.239791
H84   H     H_    0.158092 0.701716 0.934657 0.237675
H85   H     H_    0.206006 0.839654 0.025551 0.207262
H86   H     H_    0.230493 0.742680 0.849513 0.200150
H87   H     H_    0.230982 0.987028 0.871308 0.195922
H88   H     H_    0.145347 0.022484 0.738706 0.183628
H89   H     H_    0.138119 0.776825 0.727889 0.183169
C100  C     C_3   0.833356 0.390972 0.262734 -0.350950
C101  C     C_3   0.794447 0.364609 0.149017 -0.310949
C102  C     C_3   0.822399 0.336438 0.056750 -0.717524
H90   H     H_    0.852744 0.442779 0.061141 0.239790
H91   H     H_    0.841906 0.201717 0.065343 0.237675
H92   H     H_    0.793992 0.339654 0.974450 0.207263
H93   H     H_    0.769505 0.242682 0.150488 0.200150
H94   H     H_    0.769016 0.487030 0.128692 0.195921
H95   H     H_    0.854651 0.522487 0.261293 0.183628
H96   H     H_    0.861880 0.276828 0.272111 0.183169

loop_
_geom_bond_atom_site_label_1
_geom_bond_atom_site_label_2
_ccdc_geom_bond_type
C78   H36   S    
C44   C46   A    
C97   C98   S    
C41   C43   A    
C87   H55   S    
C9    C31   A    
C89   H66   S    
C73   H33   S    
C48   C56   A    
C34   C71   S    
C65   H13   S    
C86   H59   S    
C85   C86   S    
O1    C3    A    
O12   V3    S    
C102  H90   S    
O2    C4    A    
C91   H75   S    
C2    O7    A    
C5    C29   A    
C81   H41   S    
C31   C70   S    
C91   H74   S    
C73   C74   S    
C90   H63   S    
C8    C28   A    
C100  C101  S    
C45   C53   A    
O5    C3    A    
C76   H40   S    
C52   C54   A    
C1    C36   S    
O17   V3    S    
C86   C87   S    
C21   C23   A    
C10   C12   A    
C6    C30   A    
C101  H93   S    
O13   C69   A    
C77   H38   S    
C19   C21   A    
C56   C58   A    
C93   H70   S    
C13   C15   A    
C79   C80   S    
C15   C19   A    
C94   H81   S    
C92   C93   S    
C38   C40   A    
O6    V2    S    
C47   C49   A    
C89   C90   S    
C41   H19   S    
H1    C23   S    
C37   C45   A    
C40   H18   S    
C47   C55   A    
C54   C100  S    
C57   C79   S    
C95   H79   S    
C43   C45   A    
C20   C28   A    
C98   H86   S    
C75   H29   S    
C80   H45   S    
C34   C42   A    
C69   O18   A    
C67   H11   S    
C85   H60   S    
C20   C22   A    
C52   H22   S    
C96   H78   S    
C51   H21   S    
C95   C96   S    
C88   H67   S    
C87   H56   S    
C24   C26   A    
C7    C29   A    
C32   C69   S    
C84   H50   S    
C51   C53   A    
C2    C35   S    
C97   H88   S    
C86   H58   S    
C64   H26   S    
C62   C68   A    
C63   H25   S    
C12   C14   A    
C81   H42   S    
O20   V4    S    
C90   H64   S    
C49   C61   A    
C63   C65   A    
C10   H6    S    
C61   C67   A    
C95   H80   S    
C37   C39   A    
C16   C20   A    
C56   H24   S    
O12   C72   A    
C58   C82   S    
C13   C91   S    
C50   C52   A    
C102  H92   S    
C100  H95   S    
C77   H37   S    
C49   C51   A    
C53   C97   S    
C101  C102  S    
C93   H71   S    
O5    V1    S    
C60   C64   A    
C4    C7    S    
C94   H82   S    
C35   C65   A    
C33   C41   A    
C101  H94   S    
C42   C44   A    
O4    V2    S    
C91   C92   S    
C11   H7    S    
C83   H52   S    
C80   H44   S    
O2    V1    S    
C12   H8    S    
C76   C77   S    
H2    C24   S    
C100  H96   S    
C68   H12   S    
C90   H62   S    
O16   C72   A    
C42   H20   S    
O6    C4    A    
C14   C94   S    
C27   H3    S    
C55   C57   A    
C74   H31   S    
O1    V2    S    
C28   H4    S    
C84   H49   S    
C36   C68   A    
C83   C84   S    
C50   C62   A    
O19   V3    S    
C35   C67   A    
C37   H15   S    
C7    C27   A    
C38   H16   S    
O4    C2    A    
C79   H47   S    
C88   H68   S    
C87   H57   S    
C26   H10   S    
C75   H27   S    
O15   C71   A    
C97   H89   S    
C55   H23   S    
C11   C13   A    
C98   H87   S    
C22   C24   A    
C29   C73   S    
C81   H43   S    
O3    V1    S    
O20   V3    S    
C57   C59   A    
O18   V4    S    
C99   H85   S    
C30   C76   S    
C78   H35   S    
C99   H83   S    
C92   H73   S    
C8    C30   A    
C73   H32   S    
C92   H72   S    
C18   C32   A    
C85   H61   S    
C80   C81   S    
O3    C1    A    
C36   C66   A    
C59   C61   A    
C77   C78   S    
C46   C54   A    
C9    H5    S    
C44   C48   A    
C3    C8    S    
C60   C62   A    
C82   H54   S    
C19   C27   A    
C14   C16   A    
O7    V1    S    
C10   C32   A    
C83   H51   S    
C15   C17   A    
C34   C40   A    
O14   V4    S    
C16   C18   A    
O13   V3    S    
C93   H69   S    
C25   H9    S    
O8    V2    S    
C5    C85   S    
C43   C47   A    
C33   C39   A    
C79   H46   S    
O19   V4    S    
C58   C60   A    
C17   C25   A    
C74   H30   S    
C64   C66   A    
C18   C26   A    
O14   C70   A    
C102  H91   S    
C78   H34   S    
C88   C89   S    
C96   H76   S    
O16   V4    S    
C6    C88   S    
C1    O8    A    
C9    C11   A    
O15   V3    S    
C98   C99   S    
C38   C46   A    
C23   C25   A    
C94   C95   S    
C17   C31   A    
O9    V2    S    
C82   H53   S    
C84   H48   S    
C75   H28   S    
C66   H14   S    
O10   V1    S    
C48   C50   A    
C76   H39   S    
C5    C21   A    
O11   V4    S    
C82   C83   S    
C99   H84   S    
C6    C22   A    
C89   H65   S    
O11   C71   A    
C70   O17   A    
C59   C63   A    
C39   H17   S    
C74   C75   S    
C96   H77   S    
C33   C72   S    
