data_mof_unit_38663.cif
_audit_creation_date              2012-12-10T18:01:43-0500
_audit_creation_method            fapswitch 2.2
_symmetry_space_group_name_H-M    P1
_symmetry_Int_Tables_number       1
_space_group_crystal_system       triclinic
_cell_length_a                    10.830802
_cell_length_b                    9.505336
_cell_length_c                    19.415056
_cell_angle_alpha                 90.000098
_cell_angle_beta                  90.142863
_cell_angle_gamma                 90.0
_cell_volume                      1998.78180388

loop_
_atom_site_label
_atom_site_type_symbol
_atom_type_description
_atom_site_fract_x
_atom_site_fract_y
_atom_site_fract_z
_atom_type_partial_charge
C1    C     C_R   0.262022 0.500006 0.499906 0.858176
C2    C     C_R   0.737978 0.500006 0.500094 0.858176
C3    C     C_R   0.500053 0.494596 0.930313 0.464830
C4    C     C_R   0.499948 0.494596 0.069687 0.464830
C5    C     C_R   0.500083 0.499804 0.367173 0.938421
C6    C     C_R   0.499917 0.499804 0.632827 0.938421
C7    C     C_R   0.063833 0.372197 0.499730 -0.158126
C8    C     C_R   0.936155 0.627876 0.499930 -0.156441
C9    C     C_R   0.936167 0.372197 0.500270 -0.158126
C10   C     C_R   0.063845 0.627876 0.500070 -0.156441
C11   C     C_R   0.871807 0.500029 0.500139 0.020413
C12   C     C_R   0.128193 0.500029 0.499861 0.020413
C13   C     C_R   0.402611 0.074420 0.473306 0.053899
C14   C     C_R   0.597822 0.925732 0.526143 0.064627
C15   C     C_R   0.597389 0.074420 0.526693 0.053899
C16   C     C_R   0.402178 0.925732 0.473857 0.064628
C17   C     C_R   0.432208 0.601118 0.252575 0.393375
C18   C     C_R   0.432719 0.393538 0.746243 0.384441
C19   C     C_R   0.567792 0.601119 0.747425 0.393375
C20   C     C_R   0.567281 0.393537 0.253756 0.384441
C21   C     C_R   0.436253 0.599945 0.180644 -0.175949
C22   C     C_R   0.437180 0.391512 0.818248 -0.177127
C23   C     C_R   0.563748 0.599945 0.819356 -0.175949
C24   C     C_R   0.562820 0.391512 0.181752 -0.177127
C25   C     C_R   0.499537 0.495084 0.145207 -0.097627
C26   C     C_R   0.500464 0.495084 0.854793 -0.097627
C27   C     C_R   0.500130 0.498539 0.290655 -0.298229
C28   C     C_R   0.499870 0.498540 0.709345 -0.298230
Cu1   Cu    Cu3+1 0.500000 0.640660 0.500000 1.061342
Cu2   Cu    Cu3+1 0.500000 0.359340 0.500000 1.057260
H1    H     H_    0.111837 0.272231 0.499429 0.139613
H2    H     H_    0.888123 0.727832 0.499810 0.141676
H3    H     H_    0.888163 0.272231 0.500570 0.139613
H4    H     H_    0.111877 0.727832 0.500190 0.141676
H5    H     H_    0.386508 0.679101 0.151611 0.212859
H6    H     H_    0.387518 0.311271 0.846453 0.212362
H7    H     H_    0.613493 0.679102 0.848389 0.212859
H8    H     H_    0.612483 0.311270 0.153546 0.212362
H9    H     H_    0.324851 0.130066 0.451391 0.120682
H10   H     H_    0.676327 0.870262 0.547189 0.139137
H11   H     H_    0.675148 0.130066 0.548609 0.120681
H12   H     H_    0.323672 0.870262 0.452811 0.139138
N1    N     N_R   0.500000 0.852070 0.500000 -0.175083
N2    N     N_R   0.500000 0.147930 0.500000 -0.162107
N3    N     N_R   0.500328 0.371523 0.034266 -0.197877
N4    N     N_R   0.500384 0.617576 0.965760 -0.198397
N5    N     N_R   0.499673 0.371523 0.965734 -0.197877
N6    N     N_R   0.499617 0.617576 0.034240 -0.198397
O1    O     O_R   0.319640 0.618740 0.500000 -0.596159
O2    O     O_R   0.680360 0.381260 0.500000 -0.599419
O3    O     O_R   0.680360 0.618740 0.500000 -0.596159
O4    O     O_R   0.319640 0.381260 0.500000 -0.599419
O5    O     O_R   0.499980 0.618820 0.400140 -0.524239
O6    O     O_R   0.500020 0.381180 0.599860 -0.531198
O7    O     O_R   0.500020 0.618820 0.599860 -0.524239
O8    O     O_R   0.499980 0.381180 0.400140 -0.531198
S1    S     S_3+6 0.336073 0.729706 0.291310 0.026494
O9    O     O_2   0.415481 0.844824 0.320543 -0.254045
O10   O     O_2   0.249722 0.792184 0.238800 -0.258256
O11   O     O_3   0.252026 0.655810 0.354305 -0.563774
H13   H     H_    0.191046 0.728581 0.367469 0.361851
S2    S     S_3+6 0.336199 0.266644 0.705858 0.041798
O12   O     O_2   0.414793 0.155122 0.672925 -0.243363
O13   O     O_2   0.252748 0.198355 0.757839 -0.253318
O14   O     O_3   0.248668 0.345091 0.645521 -0.549850
H14   H     H_    0.197350 0.268530 0.626021 0.368035
S3    S     S_3+6 0.663927 0.729707 0.708690 0.026494
O15   O     O_2   0.584518 0.844824 0.679457 -0.254045
O16   O     O_2   0.750277 0.792186 0.761200 -0.258256
O17   O     O_3   0.747974 0.655810 0.645695 -0.563774
H15   H     H_    0.808954 0.728582 0.632531 0.361851
S4    S     S_3+6 0.663801 0.266643 0.294142 0.041798
O18   O     O_2   0.585207 0.155122 0.327075 -0.243363
O19   O     O_2   0.747252 0.198354 0.242160 -0.253318
O20   O     O_3   0.751332 0.345090 0.354479 -0.549851
H16   H     H_    0.802650 0.268530 0.373979 0.368035

loop_
_geom_bond_atom_site_label_1
_geom_bond_atom_site_label_2
_ccdc_geom_bond_type
C5    O8    A    
C6    O7    A    
C4    C25   S    
Cu1   O1    S    
Cu2   O6    S    
S2    O12   D    
C5    O5    A    
C15   N2    A    
C4    N6    A    
S1    O10   D    
C23   C26   A    
Cu2   O4    S    
C2    O2    A    
C5    C27   S    
C6    C28   S    
C20   C24   A    
C24   H8    S    
C19   S3    S    
O17   H15   S    
S2    O13   D    
Cu2   O2    S    
Cu1   N1    S    
C9    H3    S    
Cu2   N2    S    
C1    C12   S    
C6    O6    A    
S4    O20   S    
C2    C11   S    
C4    N3    A    
N3    N5    A    
C7    C12   A    
N4    N6    A    
C7    H1    S    
S3    O15   D    
C17   C27   A    
C18   C28   A    
C24   C25   A    
C15   H11   S    
S4    O19   D    
C18   S2    S    
S1    O11   S    
Cu1   O7    S    
C23   H7    S    
Cu2   O8    S    
C17   C21   A    
O11   H13   S    
S3    O16   D    
C8    H2    S    
C19   C23   A    
O20   H16   S    
Cu1   Cu2   S    
C10   H4    S    
C19   C28   A    
C9    C11   A    
C16   N1    A    
C10   C12   A    
C16   H12   S    
Cu1   O3    S    
C7    C9    A    
C21   C25   A    
S2    O14   S    
C18   C22   A    
C3    C26   S    
S4    O18   D    
C21   H5    S    
C20   C27   A    
C22   H6    S    
C3    N4    A    
S3    O17   S    
S1    O9    D    
Cu1   O5    S    
C8    C11   A    
C3    N5    A    
C1    O4    A    
C13   H9    S    
C2    O3    A    
C14   H10   S    
C8    C10   A    
O14   H14   S    
C22   C26   A    
C13   C16   A    
C14   C15   A    
C20   S4    S    
C1    O1    A    
C13   N2    A    
C17   S1    S    
C14   N1    A    
