data_mof_unit_61938.cif
_audit_creation_date              2012-12-10T18:03:39-0500
_audit_creation_method            fapswitch 2.2
_symmetry_space_group_name_H-M    P1
_symmetry_Int_Tables_number       1
_space_group_crystal_system       triclinic
_cell_length_a                    21.594006
_cell_length_b                    21.594006
_cell_length_c                    47.142625
_cell_angle_alpha                 89.971901
_cell_angle_beta                  90.028093
_cell_angle_gamma                 90.000154
_cell_volume                      21982.6523787

loop_
_atom_site_label
_atom_site_type_symbol
_atom_type_description
_atom_site_fract_x
_atom_site_fract_y
_atom_site_fract_z
_atom_type_partial_charge
C1    C     C_R   0.000007 0.120335 0.999994 0.932601
C2    C     C_R   0.494620 0.000448 0.764918 -0.097179
C3    C     C_R   0.033768 0.717828 0.979269 0.590118
C4    C     C_R   0.282219 0.966234 0.020755 0.590312
C5    C     C_R   0.966251 0.717781 0.020745 0.589903
C6    C     C_R   0.717828 0.033768 0.020731 0.590118
C7    C     C_R   0.033784 0.282173 0.020740 0.590502
C8    C     C_R   0.782178 0.533717 0.479240 0.591453
C9    C     C_R   0.466307 0.782224 0.479218 0.591432
C10   C     C_R   0.217786 0.466189 0.479273 0.590195
C11   C     C_R   0.533836 0.217833 0.479295 0.590213
C12   C     C_R   0.782224 0.466307 0.520782 0.591432
C13   C     C_R   0.000448 0.494620 0.235082 -0.097179
C14   C     C_R   0.466189 0.217786 0.520727 0.590195
C15   C     C_R   0.217833 0.533836 0.520705 0.590212
C16   C     C_R   0.533717 0.782178 0.520760 0.591455
C17   C     C_R   0.313841 0.000003 0.000004 -0.315155
C18   C     C_R   0.000002 0.313841 0.999996 -0.315155
C19   C     C_R   0.686160 0.000003 0.999996 -0.314976
C20   C     C_R   0.000003 0.686160 0.000004 -0.314976
C21   C     C_R   0.813844 0.500004 0.500008 -0.315622
C22   C     C_R   0.500004 0.813844 0.499992 -0.315622
C23   C     C_R   0.186163 0.500005 0.499992 -0.314729
C24   C     C_R   0.505297 0.000236 0.235083 -0.097175
C25   C     C_R   0.500005 0.186163 0.500008 -0.314729
C26   C     C_R   0.186559 0.000024 0.000014 -0.217308
C27   C     C_R   0.000024 0.186559 0.999986 -0.217308
C28   C     C_R   0.813441 0.000024 0.999986 -0.217178
C29   C     C_R   0.000024 0.813441 0.000014 -0.217178
C30   C     C_R   0.686562 0.500022 0.500016 -0.218171
C31   C     C_R   0.500022 0.686562 0.499984 -0.218171
C32   C     C_R   0.313445 0.500022 0.499984 -0.216645
C33   C     C_R   0.500022 0.313445 0.500016 -0.216646
C34   C     C_R   0.500242 0.000012 0.055510 0.901300
C35   C     C_R   0.501743 0.996971 0.264935 -0.086193
C36   C     C_R   0.000040 0.499760 0.055510 0.901282
C37   C     C_R   0.499760 0.000040 0.944490 0.901283
C38   C     C_R   0.000012 0.500242 0.944490 0.901300
C39   C     C_R   0.999788 0.499970 0.555510 0.901213
C40   C     C_R   0.500029 0.999791 0.555511 0.901227
C41   C     C_R   0.999792 0.500029 0.444489 0.901227
C42   C     C_R   0.499970 0.999788 0.444490 0.901213
C43   C     C_R   0.379831 1.000000 0.000001 1.000614
C44   C     C_R   1.000000 0.379831 0.999999 1.000615
C45   C     C_R   0.620169 0.000000 0.999999 1.000355
C46   C     C_R   0.997167 0.498189 0.264932 -0.086174
C47   C     C_R   0.000000 0.620169 0.000001 1.000354
C48   C     C_R   0.879833 0.500000 0.500003 0.999758
C49   C     C_R   0.500000 0.879833 0.499997 0.999759
C50   C     C_R   0.120170 0.500000 0.499997 1.000028
C51   C     C_R   0.500000 0.120170 0.500003 1.000028
C52   C     C_R   0.039404 0.466867 0.809719 0.591244
C53   C     C_R   0.533002 0.039677 0.809700 0.591079
C54   C     C_R   0.963604 0.547075 0.809659 0.590958
C55   C     C_R   0.452883 0.963783 0.809678 0.591171
C56   C     C_R   0.039677 0.533002 0.190300 0.591080
C57   C     C_R   0.498189 0.997167 0.735068 -0.086173
C58   C     C_R   0.547075 0.963604 0.190341 0.590958
C59   C     C_R   0.963783 0.452883 0.190322 0.591171
C60   C     C_R   0.466867 0.039404 0.190281 0.591244
C61   C     C_R   0.536570 0.953749 0.309705 0.596346
C62   C     C_R   0.035560 0.537683 0.309720 0.580861
C63   C     C_R   0.462230 0.035356 0.309703 0.581137
C64   C     C_R   0.953870 0.463433 0.309679 0.596662
C65   C     C_R   0.537683 0.035560 0.690280 0.580861
C66   C     C_R   0.035356 0.462230 0.690297 0.581137
C67   C     C_R   0.463433 0.953870 0.690321 0.596662
C68   C     C_R   0.996971 0.501743 0.735065 -0.086193
C69   C     C_R   0.953749 0.536570 0.690295 0.596346
C70   C     C_R   0.962636 0.548356 0.779731 -0.165870
C71   C     C_R   0.451602 0.962806 0.779751 -0.165455
C72   C     C_R   0.042970 0.467742 0.779881 -0.157963
C73   C     C_R   0.532120 0.043235 0.779860 -0.158297
C74   C     C_R   0.962806 0.451602 0.220249 -0.165455
C75   C     C_R   0.467742 0.042970 0.220119 -0.157962
C76   C     C_R   0.043235 0.532120 0.220140 -0.158297
C77   C     C_R   0.548356 0.962636 0.220269 -0.165870
C78   C     C_R   0.459914 0.035833 0.279800 -0.152460
C79   C     C_R   0.923542 0.589032 0.764236 0.313509
C80   C     C_R   0.952826 0.462133 0.279775 -0.156494
C81   C     C_R   0.537857 0.952682 0.279802 -0.157059
C82   C     C_R   0.036068 0.539980 0.279817 -0.153009
C83   C     C_R   0.462133 0.952826 0.720225 -0.156494
C84   C     C_R   0.952683 0.537857 0.720198 -0.157059
C85   C     C_R   0.539980 0.036068 0.720183 -0.153009
C86   C     C_R   0.035833 0.459914 0.720200 -0.152460
C87   C     C_R   0.410975 0.923658 0.764276 0.312627
C88   C     C_R   0.085648 0.430339 0.764687 0.359640
C89   C     C_R   0.879665 0.000007 0.999994 0.932494
C90   C     C_R   0.569472 0.085951 0.764644 0.360529
C91   C     C_R   0.923658 0.410975 0.235724 0.312627
C92   C     C_R   0.430339 0.085648 0.235313 0.359640
C93   C     C_R   0.085951 0.569473 0.235356 0.360528
C94   C     C_R   0.589032 0.923542 0.235764 0.313509
C95   C     C_R   0.419463 0.075606 0.264431 0.233770
C96   C     C_R   0.911013 0.424121 0.264349 0.288453
C97   C     C_R   0.575909 0.910902 0.264398 0.288204
C98   C     C_R   0.075904 0.580373 0.264467 0.233259
C99   C     C_R   0.424121 0.911013 0.735651 0.288453
C100  C     C_R   0.000007 0.879664 0.000006 0.932494
C101  C     C_R   0.910902 0.575909 0.735602 0.288205
C102  C     C_R   0.580373 0.075904 0.735533 0.233258
C103  C     C_R   0.075606 0.419463 0.735569 0.233769
C104  C     C_R   0.521335 0.054285 0.130668 -0.061033
C105  C     C_R   0.947169 0.511930 0.131359 -0.069832
C106  C     C_R   0.488092 0.946991 0.131363 -0.069720
C107  C     C_R   0.054433 0.478595 0.130671 -0.060851
C108  C     C_R   0.511930 0.947168 0.868641 -0.069833
C109  C     C_R   0.946991 0.488092 0.868637 -0.069720
C110  C     C_R   0.478595 0.054433 0.869329 -0.060851
C111  C     C_R   0.120336 0.000007 0.000006 0.932601
C112  C     C_R   0.054285 0.521335 0.869332 -0.061032
C113  C     C_R   0.979596 0.445890 0.630791 -0.056587
C114  C     C_R   0.554109 0.979740 0.630810 -0.056360
C115  C     C_R   0.012356 0.553337 0.631259 -0.071641
C116  C     C_R   0.446635 0.012413 0.631248 -0.071879
C117  C     C_R   0.979740 0.554110 0.369190 -0.056361
C118  C     C_R   0.553337 0.012356 0.368741 -0.071641
C119  C     C_R   0.012413 0.446635 0.368752 -0.071879
C120  C     C_R   0.445890 0.979596 0.369209 -0.056587
C121  C     C_R   0.519006 0.054161 0.101183 -0.158552
C122  C     C_R   0.500005 0.620337 0.499994 0.933133
C123  C     C_R   0.946665 0.513529 0.101835 -0.161701
C124  C     C_R   0.486510 0.946535 0.101838 -0.161985
C125  C     C_R   0.054262 0.480945 0.101185 -0.158887
C126  C     C_R   0.513529 0.946665 0.898165 -0.161701
C127  C     C_R   0.946535 0.486510 0.898161 -0.161985
C128  C     C_R   0.480945 0.054262 0.898814 -0.158887
C129  C     C_R   0.054161 0.519006 0.898817 -0.158552
C130  C     C_R   0.981643 0.445863 0.601293 -0.159013
C131  C     C_R   0.554142 0.981745 0.601310 -0.159009
C132  C     C_R   0.013667 0.553637 0.601740 -0.160629
C133  C     C_R   0.379666 0.500005 0.499994 0.932601
C134  C     C_R   0.446342 0.013685 0.601728 -0.160661
C135  C     C_R   0.981745 0.554142 0.398690 -0.159009
C136  C     C_R   0.553637 0.013667 0.398260 -0.160629
C137  C     C_R   0.013685 0.446342 0.398272 -0.160660
C138  C     C_R   0.445863 0.981643 0.398707 -0.159013
C139  C     C_R   0.501769 0.000215 0.086564 -0.051928
C140  C     C_R   0.000305 0.498231 0.086563 -0.051966
C141  C     C_R   0.498231 0.000305 0.913437 -0.051966
C142  C     C_R   0.000215 0.501769 0.913436 -0.051928
C143  C     C_R   0.998501 0.499816 0.586567 -0.053058
C144  C     C_R   0.500005 0.379666 0.500006 0.932601
C145  C     C_R   0.500178 0.998538 0.586569 -0.053043
C146  C     C_R   0.998538 0.500178 0.413431 -0.053042
C147  C     C_R   0.499816 0.998501 0.413433 -0.053057
C148  C     C_R   0.505838 0.000772 0.145866 0.255938
C149  C     C_R   0.000956 0.494124 0.145865 0.255877
C150  C     C_R   0.494124 0.000956 0.854135 0.255877
C151  C     C_R   0.000772 0.505838 0.854134 0.255938
C152  C     C_R   0.994990 0.499569 0.645872 0.257747
C153  C     C_R   0.500413 0.995109 0.645876 0.257752
C154  C     C_R   0.995109 0.500413 0.354124 0.257752
C155  C     C_R   0.620337 0.500005 0.500006 0.933133
C156  C     C_R   0.499569 0.994990 0.354128 0.257747
C157  C     C_R   0.218233 0.033130 0.979079 -0.233330
C158  C     C_R   0.966911 0.218277 0.979054 -0.234337
C159  C     C_R   0.781722 0.966927 0.979064 -0.234869
C160  C     C_R   0.033115 0.781768 0.979089 -0.233851
C161  C     C_R   0.218278 0.966911 0.020945 -0.234337
C162  C     C_R   0.966927 0.781722 0.020936 -0.234870
C163  C     C_R   0.781768 0.033115 0.020911 -0.233850
C164  C     C_R   0.033130 0.218233 0.020920 -0.233330
C165  C     C_R   0.718238 0.533062 0.479059 -0.232599
C166  C     C_R   0.000236 0.505297 0.764917 -0.097175
C167  C     C_R   0.466980 0.718283 0.479029 -0.232961
C168  C     C_R   0.281727 0.466863 0.479083 -0.235086
C169  C     C_R   0.533179 0.281772 0.479113 -0.234712
C170  C     C_R   0.718283 0.466980 0.520971 -0.232962
C171  C     C_R   0.466863 0.281727 0.520917 -0.235085
C172  C     C_R   0.281772 0.533179 0.520887 -0.234712
C173  C     C_R   0.533062 0.718238 0.520941 -0.232601
C174  C     C_R   0.282173 0.033784 0.979260 0.590501
C175  C     C_R   0.966234 0.282219 0.979245 0.590312
C176  C     C_R   0.717781 0.966251 0.979255 0.589902
F1    F     F_    0.313137 0.066006 0.958980 -0.634085
F2    F     F_    0.434141 0.813238 0.458921 -0.633215
F3    F     F_    0.186778 0.433906 0.459028 -0.634556
F4    F     F_    0.566111 0.186873 0.459047 -0.634281
F5    F     F_    0.813238 0.434141 0.541079 -0.633215
F6    F     F_    0.433906 0.186778 0.540972 -0.634556
F7    F     F_    0.186873 0.566111 0.540953 -0.634282
F8    F     F_    0.565875 0.813143 0.541061 -0.632917
F9    F     F_    0.933995 0.313229 0.958972 -0.634512
F10   F     F_    0.686772 0.934028 0.958990 -0.634860
F11   F     F_    0.065974 0.686864 0.958998 -0.634385
F12   F     F_    0.313229 0.933995 0.041028 -0.634512
F13   F     F_    0.934028 0.686772 0.041009 -0.634860
F14   F     F_    0.686864 0.065974 0.041002 -0.634385
F15   F     F_    0.066006 0.313137 0.041020 -0.634085
F16   F     F_    0.813143 0.565875 0.458939 -0.632917
H1    H     H_    0.193487 0.058980 0.962949 0.201346
H2    H     H_    0.441184 0.693573 0.462880 0.201380
H3    H     H_    0.306440 0.440978 0.462976 0.200435
H4    H     H_    0.559066 0.306520 0.463007 0.200956
H5    H     H_    0.693573 0.441184 0.537120 0.201380
H6    H     H_    0.440978 0.306440 0.537024 0.200435
H7    H     H_    0.306520 0.559066 0.536993 0.200956
H8    H     H_    0.558860 0.693494 0.537089 0.201898
H9    H     H_    0.535076 0.095979 0.141771 0.175532
H10   H     H_    0.905867 0.524657 0.142998 0.165256
H11   H     H_    0.475391 0.905661 0.143005 0.164927
H12   H     H_    0.941062 0.193566 0.962924 0.200878
H13   H     H_    0.096132 0.464809 0.141776 0.175371
H14   H     H_    0.524657 0.905867 0.857002 0.165256
H15   H     H_    0.905661 0.475391 0.856995 0.164927
H16   H     H_    0.464809 0.096132 0.858224 0.175371
H17   H     H_    0.095979 0.535075 0.858229 0.175532
H18   H     H_    0.966181 0.404197 0.641989 0.176003
H19   H     H_    0.595809 0.966373 0.642020 0.175687
H20   H     H_    0.024973 0.594789 0.642817 0.168464
H21   H     H_    0.405170 0.025010 0.642794 0.168798
H22   H     H_    0.966373 0.595809 0.357979 0.175688
H23   H     H_    0.806433 0.941090 0.962941 0.200795
H24   H     H_    0.594789 0.024973 0.357183 0.168464
H25   H     H_    0.025011 0.405170 0.357206 0.168798
H26   H     H_    0.404197 0.966181 0.358011 0.176003
H27   H     H_    0.531308 0.096016 0.089840 0.188528
H28   H     H_    0.904643 0.527326 0.090989 0.186015
H29   H     H_    0.472754 0.904520 0.090995 0.185895
H30   H     H_    0.096086 0.468612 0.089845 0.188460
H31   H     H_    0.527326 0.904643 0.909011 0.186016
H32   H     H_    0.904521 0.472754 0.909005 0.185895
H33   H     H_    0.468612 0.096086 0.910155 0.188460
H34   H     H_    0.058953 0.806513 0.962966 0.201268
H35   H     H_    0.096016 0.531308 0.910160 0.188528
H36   H     H_    0.969442 0.403899 0.590027 0.189264
H37   H     H_    0.596119 0.969564 0.590055 0.189116
H38   H     H_    0.027146 0.595665 0.590821 0.187349
H39   H     H_    0.404306 0.027116 0.590798 0.187476
H40   H     H_    0.969564 0.596119 0.409945 0.189116
H41   H     H_    0.595665 0.027146 0.409178 0.187348
H42   H     H_    0.027117 0.404306 0.409202 0.187475
H43   H     H_    0.403899 0.969442 0.409973 0.189264
H44   H     H_    0.873702 0.751627 0.761024 0.400137
H45   H     H_    0.193566 0.941062 0.037076 0.200878
H46   H     H_    0.248439 0.873624 0.761085 0.400700
H47   H     H_    0.249731 0.384172 0.765555 0.405356
H48   H     H_    0.615404 0.250100 0.765419 0.404029
H49   H     H_    0.873624 0.248439 0.238915 0.400701
H50   H     H_    0.384172 0.249731 0.234445 0.405356
H51   H     H_    0.250100 0.615404 0.234581 0.404029
H52   H     H_    0.751627 0.873701 0.238976 0.400137
H53   H     H_    0.402451 0.177004 0.297098 0.380676
H54   H     H_    0.781879 0.433492 0.242061 0.359276
H55   H     H_    0.566675 0.781743 0.242186 0.357985
H56   H     H_    0.941090 0.806433 0.037059 0.200795
H57   H     H_    0.177299 0.597263 0.297195 0.380300
H58   H     H_    0.433492 0.781879 0.757939 0.359276
H59   H     H_    0.781744 0.566675 0.757814 0.357985
H60   H     H_    0.597263 0.177299 0.702805 0.380300
H61   H     H_    0.177004 0.402450 0.702901 0.380676
H62   H     H_    0.806513 0.058952 0.037034 0.201268
H63   H     H_    0.058980 0.193487 0.037051 0.201346
H64   H     H_    0.693494 0.558860 0.462911 0.201898
N1    N     N_R   0.001604 0.507060 0.823727 -0.370861
N2    N     N_R   0.492863 0.001824 0.823727 -0.370841
N3    N     N_R   0.001824 0.492863 0.176272 -0.370841
N4    N     N_R   0.507060 0.001604 0.176273 -0.370861
N5    N     N_R   0.498987 0.994153 0.323719 -0.367592
N6    N     N_R   0.994301 0.500981 0.323713 -0.367599
N7    N     N_R   0.500981 0.994301 0.676286 -0.367599
N8    N     N_R   0.994153 0.498987 0.676281 -0.367592
O1    O     O_R   0.999960 0.091640 0.023680 -0.616211
O2    O     O_R   0.408360 0.499960 0.523680 -0.616878
O3    O     O_3   0.167769 0.642054 0.298220 -0.407940
O4    O     O_2   0.346619 0.840644 0.704336 -0.126957
O5    O     O_2   0.456370 0.812656 0.703508 -0.239475
O6    O     O_3   0.393022 0.785058 0.748139 -0.445320
O7    O     O_2   0.840641 0.653501 0.704252 -0.125317
O8    O     O_2   0.812531 0.543782 0.703399 -0.241224
O9    O     O_3   0.784975 0.607144 0.748019 -0.446662
O10   O     O_2   0.699094 0.113636 0.743324 -0.170385
O11   O     O_2   0.677241 0.052908 0.701072 -0.211876
O12   O     O_3   0.642054 0.167769 0.701780 -0.407939
O13   O     O_R   0.500040 0.408360 0.523680 -0.616971
O14   O     O_2   0.113168 0.300687 0.743372 -0.169301
O15   O     O_2   0.052505 0.322646 0.701084 -0.210504
O16   O     O_3   0.167414 0.357673 0.701868 -0.409660
O17   O     O_R   0.591640 0.500040 0.523680 -0.616122
O18   O     O_R   0.499960 0.408360 0.476320 -0.616878
O19   O     O_R   0.408360 0.500040 0.476320 -0.616971
O20   O     O_R   0.500040 0.591640 0.476320 -0.616122
O21   O     O_R   0.591640 0.499960 0.476320 -0.616032
O22   O     O_R   0.499950 0.051720 0.041990 -0.616930
O23   O     O_R   0.948280 0.499950 0.041990 -0.616363
O24   O     O_R   0.500050 0.948280 0.041990 -0.616591
O25   O     O_R   0.908360 0.999960 0.023680 -0.616405
O26   O     O_R   0.051720 0.500050 0.041990 -0.617139
O27   O     O_R   0.499950 0.948280 0.958010 -0.616363
O28   O     O_R   0.948280 0.500050 0.958010 -0.616591
O29   O     O_R   0.500050 0.051720 0.958010 -0.617139
O30   O     O_R   0.051720 0.499950 0.958010 -0.616930
O31   O     O_R   0.999950 0.551720 0.541990 -0.616135
O32   O     O_R   0.448280 0.999950 0.541990 -0.616168
O33   O     O_R   0.000050 0.448280 0.541990 -0.616680
O34   O     O_R   0.551720 0.000050 0.541990 -0.616659
O35   O     O_R   0.999950 0.448280 0.458010 -0.616168
O36   O     O_R   0.000040 0.908360 0.023680 -0.616694
O37   O     O_R   0.448280 0.000050 0.458010 -0.616680
O38   O     O_R   0.000050 0.551720 0.458010 -0.616659
O39   O     O_R   0.551720 0.999950 0.458010 -0.616135
O40   O     O_R   0.408360 0.051710 0.000060 -0.590375
O41   O     O_R   0.948290 0.408360 0.000060 -0.590655
O42   O     O_R   0.591640 0.948290 0.000060 -0.590793
O43   O     O_R   0.051710 0.591640 0.000060 -0.590508
O44   O     O_R   0.408360 0.948290 0.999940 -0.590655
O45   O     O_R   0.948290 0.591640 0.999940 -0.590793
O46   O     O_R   0.591640 0.051710 0.999940 -0.590508
O47   O     O_R   0.091640 0.000040 0.023680 -0.616494
O48   O     O_R   0.051710 0.408360 0.999940 -0.590375
O49   O     O_R   0.908360 0.551710 0.500060 -0.590408
O50   O     O_R   0.448290 0.908360 0.500060 -0.590531
O51   O     O_R   0.091640 0.448290 0.500060 -0.590028
O52   O     O_R   0.551710 0.091640 0.500060 -0.589917
O53   O     O_R   0.908360 0.448290 0.499940 -0.590531
O54   O     O_R   0.448290 0.091640 0.499940 -0.590028
O55   O     O_R   0.091640 0.551710 0.499940 -0.589917
O56   O     O_R   0.551710 0.908360 0.499940 -0.590408
O57   O     O_2   0.070101 0.423599 0.824798 -0.451192
O58   O     O_R   0.999960 0.908360 0.976320 -0.616405
O59   O     O_2   0.576232 0.070435 0.824763 -0.451930
O60   O     O_2   0.924828 0.582937 0.824843 -0.458549
O61   O     O_2   0.417060 0.924973 0.824881 -0.457923
O62   O     O_2   0.070435 0.576232 0.175237 -0.451930
O63   O     O_2   0.582937 0.924828 0.175157 -0.458549
O64   O     O_2   0.924973 0.417060 0.175119 -0.457923
O65   O     O_2   0.423599 0.070101 0.175201 -0.451192
O66   O     O_2   0.574661 0.917191 0.324944 -0.454004
O67   O     O_2   0.078333 0.568564 0.324972 -0.490212
O68   O     O_2   0.431310 0.078109 0.324930 -0.490291
O69   O     O_R   0.908360 0.000040 0.976320 -0.616694
O70   O     O_2   0.917259 0.425388 0.324899 -0.454107
O71   O     O_2   0.568564 0.078333 0.675028 -0.490211
O72   O     O_2   0.078109 0.431310 0.675070 -0.490290
O73   O     O_2   0.425388 0.917259 0.675101 -0.454107
O74   O     O_2   0.917191 0.574661 0.675056 -0.454004
O75   O     O_2   0.843710 0.656649 0.795557 -0.197091
O76   O     O_2   0.952782 0.688207 0.796204 -0.229857
O77   O     O_3   0.888451 0.713458 0.751543 -0.466313
O78   O     O_2   0.343441 0.843763 0.795639 -0.194808
O79   O     O_2   0.311761 0.952799 0.796224 -0.227267
O80   O     O_R   0.000040 0.091640 0.976320 -0.616494
O81   O     O_3   0.286591 0.888418 0.751597 -0.465678
O82   O     O_2   0.179231 0.457353 0.800552 -0.251735
O83   O     O_2   0.150526 0.347982 0.795861 -0.171983
O84   O     O_3   0.212920 0.399735 0.755233 -0.519532
O85   O     O_2   0.542320 0.179515 0.800454 -0.253972
O86   O     O_2   0.651733 0.150963 0.795784 -0.174132
O87   O     O_3   0.599900 0.213259 0.755117 -0.520733
O88   O     O_2   0.843763 0.343441 0.204361 -0.194808
O89   O     O_2   0.952800 0.311761 0.203776 -0.227266
O90   O     O_3   0.888418 0.286591 0.248403 -0.465678
O91   O     O_R   0.091640 0.999960 0.976320 -0.616211
O92   O     O_2   0.457353 0.179231 0.199448 -0.251736
O93   O     O_2   0.347982 0.150526 0.204139 -0.171983
O94   O     O_3   0.399736 0.212920 0.244767 -0.519532
O95   O     O_2   0.179515 0.542320 0.199546 -0.253972
O96   O     O_2   0.150962 0.651733 0.204216 -0.174132
O97   O     O_3   0.213259 0.599900 0.244882 -0.520733
O98   O     O_2   0.656649 0.843710 0.204443 -0.197091
O99   O     O_2   0.688207 0.952782 0.203796 -0.229857
O100  O     O_3   0.713458 0.888450 0.248457 -0.466313
O101  O     O_2   0.300687 0.113168 0.256628 -0.169301
O102  O     O_R   0.499960 0.591640 0.523680 -0.616032
O103  O     O_2   0.322646 0.052506 0.298916 -0.210504
O104  O     O_3   0.357673 0.167415 0.298132 -0.409660
O105  O     O_2   0.840644 0.346619 0.295664 -0.126957
O106  O     O_2   0.812656 0.456370 0.296492 -0.239475
O107  O     O_3   0.785058 0.393022 0.251861 -0.445320
O108  O     O_2   0.653500 0.840640 0.295748 -0.125317
O109  O     O_2   0.543781 0.812531 0.296600 -0.241224
O110  O     O_3   0.607144 0.784974 0.251981 -0.446662
O111  O     O_2   0.113636 0.699094 0.256676 -0.170385
O112  O     O_2   0.052908 0.677241 0.298928 -0.211876
S1    S     S_3+6 0.901484 0.662895 0.778004 0.138237
S2    S     S_3+6 0.836401 0.404619 0.278137 0.158101
S3    S     S_3+6 0.595499 0.836321 0.278228 0.157749
S4    S     S_3+6 0.102013 0.651991 0.279517 0.174488
S5    S     S_3+6 0.404620 0.836401 0.721863 0.158101
S6    S     S_3+6 0.836321 0.595499 0.721772 0.157749
S7    S     S_3+6 0.651990 0.102014 0.720483 0.174488
S8    S     S_3+6 0.101630 0.347818 0.720529 0.174841
S9    S     S_3+6 0.337134 0.901522 0.778053 0.140448
S10   S     S_3+6 0.158007 0.408160 0.780176 0.128467
S11   S     S_3+6 0.591548 0.158350 0.780092 0.126054
S12   S     S_3+6 0.901522 0.337134 0.221946 0.140448
S13   S     S_3+6 0.408160 0.158008 0.219824 0.128467
S14   S     S_3+6 0.158350 0.591548 0.219908 0.126054
S15   S     S_3+6 0.662895 0.901484 0.221996 0.138237
S16   S     S_3+6 0.347818 0.101630 0.279471 0.174841
Zn1   Zn    Zn3+2 1.000000 0.000000 0.031620 1.035265
Zn2   Zn    Zn3+2 0.430930 1.000000 0.500000 1.084188
Zn3   Zn    Zn3+2 1.000000 0.430930 0.500000 1.084188
Zn4   Zn    Zn3+2 0.569070 1.000000 0.500000 1.084402
Zn5   Zn    Zn3+2 1.000000 0.000000 0.968380 1.035265
Zn6   Zn    Zn3+2 0.500000 0.500000 0.531620 1.034828
Zn7   Zn    Zn3+2 0.500000 0.500000 0.468380 1.034829
Zn8   Zn    Zn3+2 0.500000 0.069070 0.000000 1.081879
Zn9   Zn    Zn3+2 0.930930 0.500000 0.000000 1.080508
Zn10  Zn    Zn3+2 0.500000 0.930930 0.000000 1.080508
Zn11  Zn    Zn3+2 0.069070 0.500000 0.000000 1.081879
Zn12  Zn    Zn3+2 1.000000 0.569070 0.500000 1.084402

loop_
_geom_bond_atom_site_label_1
_geom_bond_atom_site_label_2
_ccdc_geom_bond_type
C16   C173  A    
C123  H28   S    
C44   O48   A    
O83   S10   D    
C125  H30   S    
C27   C158  A    
C55   O61   S    
O6    S5    S    
C115  H20   S    
C157  H1    S    
C109  C151  A    
O95   S14   D    
C113  H18   S    
C32   C133  S    
O9    S6    S    
C105  C123  A    
C172  H7    S    
O2    Zn6   S    
C19   C176  A    
C91   C96   A    
O1    Zn1   S    
C109  C127  A    
H53   O104  S    
O7    S6    D    
C16   C22   A    
C57   C83   A    
C112  C129  A    
C155  O21   A    
C66   O72   S    
C42   O39   A    
C21   C48   S    
C87   S9    S    
C32   C172  A    
C130  H36   S    
C97   S3    S    
O107  S2    S    
C173  H8    S    
O87   S11   S    
C82   C98   A    
C138  H43   S    
C148  N4    S    
C42   C147  S    
C14   F6    S    
C33   C144  S    
C137  C146  A    
C108  H14   S    
C129  C142  A    
C94   C97   A    
C133  O19   A    
C58   N4    A    
O27   Zn10  S    
C44   O41   A    
C163  H62   S    
C17   C43   S    
C52   C72   A    
H61   O16   S    
C18   C44   S    
O26   Zn11  S    
C12   F5    S    
C54   C70   A    
O51   Zn3   S    
C135  C146  A    
C111  O91   A    
O45   Zn9   S    
C112  C151  A    
O20   Zn7   S    
O75   S1    D    
C174  F1    S    
O42   Zn10  S    
C37   C141  S    
C22   C49   S    
C40   C145  S    
O98   S15   D    
C31   C167  A    
C11   C169  A    
C135  H40   S    
C32   C168  A    
C164  H63   S    
C120  C138  A    
C2    C71   A    
C117  C135  A    
O55   Zn12  S    
C26   C161  A    
C118  C136  A    
H54   O107  S    
C104  C121  A    
C37   O29   A    
C53   N2    A    
C35   C78   A    
C70   C79   A    
C72   C166  A    
C110  C150  A    
C3    F11   S    
C67   N7    A    
C16   F8    S    
C51   O52   A    
C43   O40   A    
C126  C141  A    
O86   S11   D    
C165  H64   S    
C112  H17   S    
C60   N4    A    
C61   N5    A    
C4    F12   S    
C8    F16   S    
C123  C140  A    
C57   C85   A    
C15   C172  A    
C55   N2    A    
O110  S3    S    
C28   C159  A    
C107  H13   S    
C20   C47   S    
C5    F13   S    
O106  S2    D    
C24   C77   A    
C116  C134  A    
C6    C163  A    
C10   C168  A    
C93   S14   S    
C106  C124  A    
C4    C161  A    
C47   O43   A    
C91   S12   S    
C108  C126  A    
O85   S11   D    
O8    S6    D    
C26   C111  S    
C55   C71   A    
C110  C128  A    
C68   C166  A    
C67   C83   A    
C124  C139  A    
H51   O97   S    
O16   S8    S    
C101  S6    S    
C2    C57   A    
C5    C20   A    
O111  S4    D    
C33   C169  A    
C6    C19   A    
C122  O102  A    
C10   F3    S    
C73   C90   A    
C11   C25   A    
C77   C94   A    
O81   S9    S    
O40   Zn8   S    
O102  Zn6   S    
C90   C102  A    
C58   C77   A    
C106  H11   S    
C46   C82   A    
O38   Zn12  S    
C41   C146  S    
C34   O24   A    
C118  C156  A    
C144  O13   A    
O43   Zn11  S    
C96   S2    S    
C157  C174  A    
O5    S5    D    
O101  S16   D    
C64   O70   S    
C29   C160  A    
C115  C132  A    
C125  C140  A    
C159  H23   S    
C113  C130  A    
C107  C125  A    
C126  H31   S    
O53   Zn3   S    
C114  H19   S    
C155  O17   A    
C130  C143  A    
O10   S7    D    
C92   S13   S    
C88   S10   S    
C99   S5    S    
C124  H29   S    
H60   O12   S    
C2    C73   A    
C127  H32   S    
C108  C150  A    
C50   O51   A    
C89   O25   A    
C102  S7    S    
C159  C176  A    
C39   O31   A    
C40   O32   A    
O92   S13   D    
C151  N1    S    
O56   Zn4   S    
C29   C162  A    
O91   Zn5   S    
C30   C165  A    
C116  H21   S    
C66   C86   A    
C41   O38   A    
C19   C45   S    
O78   S9    D    
O47   Zn1   S    
O88   S12   D    
C104  H9    S    
H57   O3    S    
O109  S3    D    
C69   C84   A    
C61   C81   A    
C46   C80   A    
C131  H37   S    
C69   N8    A    
C34   O22   A    
O11   S7    D    
C160  H34   S    
C131  C145  A    
C153  N7    S    
C8    C165  A    
C107  C149  A    
C158  C175  A    
C54   O60   S    
C120  H26   S    
C38   O30   A    
C79   C101  A    
C118  H24   S    
C137  H42   S    
C122  O20   A    
C170  H5    S    
C49   O50   A    
O112  S4    D    
C28   C163  A    
O15   S8    D    
C63   C78   A    
O36   Zn1   S    
O29   Zn8   S    
C100  O58   A    
C64   C80   A    
C114  C131  A    
C104  C148  A    
C7    F15   S    
H52   O100  S    
O58   Zn5   S    
O96   S14   D    
O13   Zn6   S    
C171  H6    S    
C56   O62   S    
C64   N6    A    
C161  H45   S    
H47   O84   S    
C120  C156  A    
C158  H12   S    
C109  H15   S    
C30   C170  A    
O3    S4    S    
O25   Zn1   S    
C168  H3    S    
C15   F7    S    
O39   Zn4   S    
O19   Zn7   S    
O77   S1    S    
C61   O66   S    
C128  C141  A    
C152  N8    S    
C132  C143  A    
C111  O47   A    
C62   C82   A    
C83   C99   A    
C121  H27   S    
C113  C152  A    
C59   N3    A    
C48   O53   A    
C65   N7    A    
C45   O42   A    
O104  S16   S    
C149  N3    S    
O108  S3    D    
C68   C84   A    
O12   S7    S    
C14   C171  A    
C23   C50   S    
C52   O57   S    
C74   C91   A    
O84   S10   S    
C154  N6    S    
C76   C93   A    
C175  F9    S    
C78   C95   A    
C37   O27   A    
C129  H35   S    
C38   O28   A    
C3    C20   A    
C39   O33   A    
C176  F10   S    
C79   S1    S    
C59   C74   A    
C116  C153  A    
O100  S15   S    
C71   C87   A    
C4    C17   A    
C30   C155  S    
H55   O110  S    
C119  C154  A    
C144  O18   A    
H48   O87   S    
C43   O44   A    
C56   N3    A    
C63   O68   S    
C33   C171  A    
O80   Zn5   S    
C17   C174  A    
C134  C145  A    
O44   Zn10  S    
C69   O74   S    
C29   C100  S    
C31   C122  S    
C132  H38   S    
C45   O46   A    
C24   C75   A    
O93   S13   D    
C7    C164  A    
C60   C75   A    
C47   O45   A    
C5    C162  A    
O79   S9    D    
O48   Zn11  S    
C50   O55   A    
C41   O35   A    
C121  C139  A    
H49   O90   S    
C51   O54   A    
C52   N1    A    
C14   C25   A    
C162  H56   S    
C117  H22   S    
C62   O67   S    
O69   Zn5   S    
C156  N5    S    
C13   C74   A    
O90   S12   S    
C117  C154  A    
C54   N1    A    
C110  H16   S    
C11   F4    S    
C36   O23   A    
C9    F2    S    
O46   Zn8   S    
C56   C76   A    
C68   C86   A    
O17   Zn6   S    
C62   N6    A    
C94   S15   S    
C35   C81   A    
C106  C148  A    
C133  O2    A    
C36   O26   A    
C66   N8    A    
C90   S11   S    
C67   O73   S    
C70   C166  A    
C13   C46   A    
C9    C22   A    
O24   Zn10  S    
O21   Zn7   S    
C34   C139  S    
O22   Zn8   S    
C26   C157  A    
H46   O81   S    
O99   S15   D    
C128  H33   S    
C103  S8    S    
C115  C152  A    
C100  O36   A    
C114  C153  A    
C18   C175  A    
O50   Zn2   S    
C15   C23   A    
O103  S16   D    
C84   C101  A    
C38   C142  S    
C86   C103  A    
C63   N5    A    
C95   S16   S    
C72   C88   A    
C169  H4    S    
C87   C99   A    
C53   O59   S    
C24   C35   A    
O105  S2    D    
O34   Zn4   S    
C119  C137  A    
C9    C167  A    
C12   C170  A    
O4    S5    D    
O76   S1    D    
C12   C21   A    
C92   C95   A    
C89   O69   A    
O32   Zn2   S    
C127  C142  A    
O23   Zn9   S    
O31   Zn12  S    
C25   C51   S    
C65   O71   S    
C27   C164  A    
O14   S8    D    
C13   C76   A    
C138  C147  A    
C7    C18   A    
C136  H41   S    
C6    F14   S    
C8    C21   A    
O41   Zn9   S    
C48   O49   A    
C134  H39   S    
O54   Zn2   S    
C98   S4    S    
O35   Zn3   S    
C36   C140  S    
C28   C89   S    
C75   C92   A    
O52   Zn4   S    
C39   C143  S    
C3    C160  A    
C167  H2    S    
C58   O63   S    
C80   C96   A    
H58   O6    S    
O18   Zn7   S    
C60   O65   S    
C88   C103  A    
C1    C27   S    
C31   C173  A    
C53   C73   A    
H59   O9    S    
O89   S12   D    
H50   O94   S    
C65   C85   A    
C10   C23   A    
C105  C149  A    
H44   O77   S    
C59   O64   S    
C1    O80   A    
C40   O34   A    
O94   S13   S    
C49   O56   A    
C150  N2    S    
C105  H10   S    
C81   C97   A    
O37   Zn2   S    
O30   Zn11  S    
O33   Zn3   S    
C136  C147  A    
C85   C102  A    
O82   S10   D    
O28   Zn9   S    
C1    O1    A    
O49   Zn12  S    
C119  H25   S    
C93   C98   A    
C42   O37   A    
O97   S14   S    
