data_mof_unit_64329.cif
_audit_creation_date              2012-10-26T18:18:29-0400
_audit_creation_method            fapswitch 2.2
_symmetry_space_group_name_H-M    P1
_symmetry_Int_Tables_number       1
_space_group_crystal_system       triclinic
_cell_length_a                    18.884841
_cell_length_b                    18.850114
_cell_length_c                    18.822158
_cell_angle_alpha                 109.53568
_cell_angle_beta                  109.097846
_cell_angle_gamma                 109.686729
_cell_volume                      5163.7498324

loop_
_atom_site_label
_atom_site_type_symbol
_atom_type_description
_atom_site_fract_x
_atom_site_fract_y
_atom_site_fract_z
_atom_type_partial_charge
C1    C     C_R   0.880730 0.381133 0.999448 0.557935
C2    C     C_R   0.185293 0.501921 0.183874 0.020606
C3    C     C_R   0.259352 0.506361 0.178593 -0.155340
C4    C     C_R   0.882255 0.499752 0.880971 0.581048
C5    C     C_R   0.324162 0.507015 0.243404 -0.154412
C6    C     C_R   0.313890 0.500219 0.312289 0.016770
C7    C     C_R   0.239493 0.494874 0.313991 0.017094
C8    C     C_3   0.192026 0.487218 0.362967 -0.268561
C9    C     C_3   0.122441 0.489119 0.293460 -0.277007
C10   C     C_R   0.255018 0.756983 0.074351 0.013883
C11   C     C_R   0.183855 0.684330 0.998330 0.020918
C12   C     C_R   0.814691 0.313346 0.998888 0.017098
C13   C     C_R   0.178280 0.676376 0.919143 -0.154176
C14   C     C_R   0.242845 0.741624 0.919142 -0.153916
C15   C     C_R   0.314916 0.813660 0.998352 0.019755
C16   C     C_R   0.118573 0.618570 0.999868 0.543215
C17   C     C_R   0.318449 0.817671 0.074371 0.011039
C18   C     C_3   0.369906 0.871127 0.170773 -0.259302
C19   C     C_3   0.297887 0.801242 0.170774 -0.269919
C20   C     C_R   0.497483 0.381212 0.378555 0.551856
C21   C     C_R   0.614125 0.504497 0.619468 0.557136
C22   C     C_R   0.496213 0.618469 0.614960 0.548622
C23   C     C_R   0.743507 0.241190 0.919769 -0.143261
C24   C     C_R   0.379014 0.500084 0.378874 0.548882
C25   C     C_R   0.500538 0.881334 0.881811 0.549628
C26   C     C_R   0.618798 0.118860 0.000030 0.546798
C27   C     C_R   0.498986 0.118238 0.118173 0.548467
C28   C     C_R   0.117968 0.500301 0.118019 0.548451
C29   C     C_R   0.381429 0.881200 0.999881 0.550359
C30   C     C_R   0.572265 0.329515 0.306453 0.008798
C31   C     C_R   0.496245 0.315453 0.309729 0.027041
C32   C     C_R   0.418290 0.238868 0.242817 -0.142120
C33   C     C_R   0.419045 0.174522 0.178945 -0.138410
C34   C     C_R   0.678573 0.177016 0.919620 -0.153480
C35   C     C_R   0.498058 0.184842 0.183755 0.048408
C36   C     C_R   0.573606 0.264457 0.246029 0.015742
C37   C     C_3   0.661728 0.287789 0.309888 -0.108092
C38   C     C_3   0.660145 0.360167 0.376166 -0.240136
C39   C     C_R   0.498005 0.756645 0.680190 0.014331
C40   C     C_2   0.760316 0.573288 0.742902 -0.186720
C41   C     C_R   0.497914 0.684254 0.683341 0.019591
C42   C     C_R   0.499325 0.677114 0.756043 -0.152602
C43   C     C_R   0.501743 0.742697 0.822665 -0.153637
C44   C     C_R   0.499809 0.814295 0.815531 0.019208
C45   C     C_R   0.686182 0.183286 0.998556 0.018384
C46   C     C_R   0.497081 0.817695 0.742314 0.016566
C47   C     C_3   0.494863 0.869939 0.698118 -0.268522
C48   C     C_3   0.495084 0.799687 0.626689 -0.268560
C49   C     C_2   0.676328 0.512655 0.696386 -0.130099
C50   C     C_2   0.820238 0.571335 0.815126 -0.195998
C51   C     C_2   0.817844 0.497012 0.809064 0.006398
C52   C     C_R   0.825297 0.313919 0.075991 0.008882
C53   C     C_2   0.663743 0.219032 0.333156 0.254701
C54   C     C_2   0.762766 0.412713 0.725099 0.228312
C55   C     C_R   0.762607 0.249196 0.075703 0.028620
C56   C     C_3   0.774376 0.311756 0.158338 -0.279973
C57   C     C_3   0.843011 0.382978 0.158353 -0.268597
C58   C     C_R   0.179062 0.497523 0.253753 0.018213
Cu1   Cu    Cu3+1 0.999590 0.561790 0.061400 0.925417
Cu2   Cu    Cu3+1 0.000410 0.438210 0.938600 0.974994
Cu3   Cu    Cu3+1 0.558560 0.561730 0.496790 0.927496
Cu4   Cu    Cu3+1 0.434970 0.438120 0.496790 0.942617
Cu5   Cu    Cu3+1 0.438600 0.999980 0.938570 0.929335
Cu6   Cu    Cu3+1 0.561400 0.999920 0.061330 0.941119
H1    H     H_    0.785319 0.624943 0.729073 0.156659
H2    H     H_    0.433021 0.873298 0.197221 0.155871
H3    H     H_    0.651161 0.466600 0.716495 0.132203
H4    H     H_    0.373132 0.935232 0.195248 0.153332
H5    H     H_    0.319270 0.762637 0.196637 0.138350
H6    H     H_    0.259991 0.825200 0.195860 0.150293
H7    H     H_    0.357436 0.228276 0.240765 0.129057
H8    H     H_    0.358710 0.115286 0.128328 0.122399
H9    H     H_    0.711351 0.312709 0.291763 0.071575
H10   H     H_    0.658678 0.352474 0.431864 0.165925
H11   H     H_    0.708016 0.426268 0.394708 0.116389
H12   H     H_    0.909302 0.412028 0.212440 0.128566
H13   H     H_    0.499783 0.621989 0.761859 0.129262
H14   H     H_    0.870401 0.633234 0.873346 0.141481
H15   H     H_    0.503544 0.736725 0.878417 0.129687
H16   H     H_    0.433370 0.871409 0.676207 0.146756
H17   H     H_    0.555074 0.934302 0.735546 0.136037
H18   H     H_    0.433496 0.760265 0.563738 0.134978
H19   H     H_    0.555189 0.823601 0.622502 0.151325
H20   H     H_    0.736185 0.236667 0.858610 0.155573
H21   H     H_    0.622173 0.123643 0.858419 0.127346
H22   H     H_    0.716084 0.318175 0.149484 0.131761
H23   H     H_    0.267456 0.510242 0.125387 0.127061
H24   H     H_    0.801267 0.299547 0.212172 0.131635
H25   H     H_    0.824412 0.430614 0.149128 0.153528
H26   H     H_    0.237110 0.735256 0.857863 0.127431
H27   H     H_    0.712550 0.200973 0.333216 0.100100
H28   H     H_    0.741484 0.411423 0.663481 0.114857
H29   H     H_    0.381013 0.511230 0.238871 0.130872
H30   H     H_    0.169516 0.423730 0.361198 0.148272
H31   H     H_    0.227307 0.545635 0.428435 0.134921
H32   H     H_    0.060147 0.426429 0.251134 0.132597
H33   H     H_    0.116935 0.548230 0.318868 0.142049
H34   H     H_    0.123853 0.620943 0.857857 0.127126
O1    O     O_R   0.909480 0.462010 0.051860 -0.514355
O2    O     O_R   0.552410 0.909770 0.962140 -0.511343
O3    O     O_R   0.538310 0.090150 0.948110 -0.511560
O4    O     O_R   0.910180 0.357650 0.948150 -0.500089
O5    O     O_R   0.642020 0.090090 0.051780 -0.510116
O6    O     O_R   0.447590 0.090130 0.037760 -0.515315
O7    O     O_R   0.551300 0.090080 0.141420 -0.499006
O8    O     O_R   0.357980 0.909810 0.948120 -0.514012
O9    O     O_R   0.461690 0.909750 0.051790 -0.506715
O10   O     O_R   0.910060 0.552180 0.962250 -0.517293
O11   O     O_R   0.910760 0.447820 0.858550 -0.471944
O12   O     O_R   0.445180 0.357580 0.407200 -0.504515
O13   O     O_R   0.089820 0.642350 0.051850 -0.512930
O14   O     O_R   0.090520 0.537990 0.948140 -0.519126
O15   O     O_R   0.089240 0.552180 0.141450 -0.513902
O16   O     O_R   0.089940 0.447820 0.037750 -0.512000
O17   O     O_R   0.549550 0.461960 0.407200 -0.511110
O18   O     O_2   0.611498 0.183402 0.352026 -0.488152
O19   O     O_2   0.741307 0.343555 0.724344 -0.488215
O20   O     O_R   0.638540 0.552110 0.586390 -0.507589
O21   O     O_R   0.534170 0.447730 0.586390 -0.503035
O22   O     O_R   0.548350 0.642270 0.586380 -0.509183
O23   O     O_R   0.443970 0.537890 0.586380 -0.516176
O24   O     O_R   0.459360 0.552110 0.407190 -0.514838
O25   O     O_R   0.354990 0.447740 0.407190 -0.510751
O26   O     O_R   0.448700 0.909820 0.858480 -0.512900

loop_
_geom_bond_atom_site_label_1
_geom_bond_atom_site_label_2
_ccdc_geom_bond_type
Cu6   O5    S    
C55   C56   S    
Cu1   O1    S    
C41   C42   A    
Cu2   O16   S    
C35   C36   A    
Cu5   O3    S    
C1    O1    A    
C21   C49   S    
Cu5   O26   S    
Cu6   O7    S    
C39   C41   A    
C22   O22   A    
C4    O10   A    
C12   C23   A    
C21   O20   A    
C57   H25   S    
Cu6   O9    S    
C57   H12   S    
C36   C37   S    
C52   C55   A    
C9    C58   S    
C28   O15   A    
C26   O3    A    
C30   C31   A    
C56   H24   S    
C22   C41   S    
C27   O7    A    
C10   C17   A    
C43   H15   S    
C40   C49   D    
C27   O6    A    
C56   C57   S    
C30   C38   S    
C18   C19   S    
C13   H34   S    
C14   H26   S    
Cu2   O11   S    
C33   H8    S    
C1    C12   S    
C31   C32   A    
C8    C9    S    
C53   H27   S    
Cu1   O13   S    
C7    C58   A    
C26   C45   S    
C53   O18   D    
C37   C53   S    
Cu1   Cu2   S    
C13   C14   A    
Cu3   O22   S    
C8    H31   S    
C47   H16   S    
Cu2   O4    S    
C50   H14   S    
C25   C44   S    
Cu4   O25   S    
C12   C52   A    
C44   C46   A    
C15   C29   S    
C32   H7    S    
C38   H11   S    
C23   H20   S    
C4    C51   S    
C3    H23   S    
C7    C8    S    
C8    H30   S    
C10   C11   A    
Cu3   O17   S    
C27   C35   S    
C24   O25   A    
Cu3   O24   S    
C34   H21   S    
C43   C44   A    
C54   H28   S    
C37   C38   S    
Cu2   O14   S    
C26   O5    A    
C11   C16   S    
C25   O2    A    
C56   H22   S    
C47   C48   S    
Cu4   O12   S    
C10   C19   S    
Cu1   O15   S    
C23   C34   A    
C6    C24   S    
C24   O24   A    
C17   C18   S    
C50   C51   D    
C34   C45   A    
Cu5   O8    S    
C9    H32   S    
Cu4   O21   S    
C28   O16   A    
C39   C46   A    
C20   O12   A    
C40   H1    S    
C29   O8    A    
C19   H5    S    
C42   C43   A    
C16   O14   A    
C22   O23   A    
C38   H10   S    
C15   C17   A    
C37   H9    S    
C46   C47   S    
C9    H33   S    
C49   H3    S    
Cu3   O20   S    
Cu5   O6    S    
C3    C5    A    
C20   O17   A    
C5    H29   S    
C2    C58   A    
C6    C7    A    
C18   H2    S    
C4    O11   A    
Cu1   O10   S    
C48   H19   S    
C30   C36   A    
C51   C54   S    
C32   C33   A    
C2    C3    A    
C21   O21   A    
C11   C13   A    
C5    C6    A    
C40   C50   S    
C33   C35   A    
C48   H18   S    
C47   H17   S    
Cu3   Cu4   S    
C25   O26   A    
C52   C57   S    
Cu5   Cu6   S    
Cu6   O2    S    
C45   C55   A    
C42   H13   S    
C54   O19   D    
C14   C15   A    
C29   O9    A    
C19   H6    S    
C2    C28   S    
C18   H4    S    
C1    O4    A    
Cu4   O23   S    
C16   O13   A    
C39   C48   S    
C20   C31   S    
