data_mof_unit_26498.cif
_audit_creation_date              2012-12-11T15:32:37-0500
_audit_creation_method            fapswitch 2.2
_symmetry_space_group_name_H-M    P1
_symmetry_Int_Tables_number       1
_space_group_crystal_system       triclinic
_cell_length_a                    6.950513
_cell_length_b                    20.457901
_cell_length_c                    24.406778
_cell_angle_alpha                 89.652777
_cell_angle_beta                  90.707745
_cell_angle_gamma                 89.618988
_cell_volume                      3470.06374353

loop_
_atom_site_label
_atom_site_type_symbol
_atom_type_description
_atom_site_fract_x
_atom_site_fract_y
_atom_site_fract_z
_atom_type_partial_charge
O1    O     O_R   0.507320 0.423560 0.460500 -0.541965
O2    O     O_R   0.170760 0.556250 0.437010 -0.535157
O3    O     O_R   0.004030 0.576440 0.539500 -0.536046
C1    C     C_R   0.338645 0.576270 0.421045 0.750802
O4    O     O_R   0.177370 0.422820 0.454110 -0.539661
O5    O     O_R   0.010680 0.442050 0.556720 -0.540695
C2    C     C_R   0.345652 0.398741 0.443644 0.721016
O6    O     O_R   0.500680 0.557950 0.443280 -0.525168
O7    O     O_3   0.340380 0.506470 0.533650 -0.374809
V1    V     V_3+5 0.064130 0.498800 0.493760 1.469585
O8    O     O_R   0.681160 0.443750 0.562990 -0.543515
C3    C     C_R   0.850977 0.423713 0.578899 0.707866
O9    O     O_R   0.674560 0.577180 0.545890 -0.530671
C4    C     C_R   0.843153 0.601026 0.556648 0.793484
V2    V     V_3+5 0.564560 0.501200 0.506240 1.473113
O10   O     O_3   0.838180 0.493530 0.466350 -0.369271
C5    C     C_R   0.970903 0.837229 0.912403 -0.222419
C6    C     C_R   0.848885 0.661756 0.588888 -0.205333
C7    C     C_R   0.976963 0.718909 0.910644 0.578337
C8    C     C_R   0.985716 0.777252 0.940195 0.337888
C9    C     C_R   0.942607 0.838430 0.855290 -0.277607
C10   C     C_R   0.927467 0.779661 0.824468 0.058574
C11   C     C_R   0.944680 0.719688 0.853534 -0.131902
C12   C     C_R   0.895986 0.778357 0.766091 -0.039834
C13   C     C_R   0.886278 0.717033 0.737567 -0.030576
C14   C     C_R   0.884594 0.658676 0.769757 0.424735
C15   C     C_R   0.922840 0.660697 0.825904 -0.178860
C16   C     C_R   0.868340 0.836549 0.735585 -0.228801
C17   C     C_R   0.832848 0.835867 0.679571 0.638543
C18   C     C_R   0.833098 0.777206 0.650663 -0.100095
C19   C     C_R   0.868543 0.717032 0.678519 0.027624
C20   C     C_R   0.798871 0.778437 0.593755 -0.147708
C21   C     C_R   0.801928 0.721102 0.563439 0.612254
C22   C     C_R   0.887952 0.660057 0.645563 -0.253799
H1    H     H_    0.926574 0.614843 0.848405 0.206961
H2    H     H_    0.936929 0.613932 0.662089 0.189944
H3    H     H_    0.933933 0.886124 0.836508 0.129862
H4    H     H_    0.867822 0.884151 0.754044 0.152126
H5    H     H_    0.767665 0.823982 0.572463 0.214139
C23   C     C_3   0.870601 0.310060 0.770120 -0.213749
C24   C     C_3   0.051765 0.268585 0.783008 0.533891
H6    H     H_    0.837399 0.359319 0.786479 0.130578
H7    H     H_    0.215338 0.253921 0.699173 0.120743
C25   C     C_1   0.960637 0.121885 0.875354 -0.135569
C26   C     C_1   0.863638 0.378302 0.624762 -0.184512
C27   C     C_3   0.745845 0.247984 0.777760 -0.194859
C28   C     C_3   0.928844 0.207548 0.791111 0.093038
C29   C     C_3   0.768621 0.231510 0.716122 -0.108860
C30   C     C_3   0.894705 0.292666 0.708981 0.098151
C31   C     C_3   0.951821 0.190444 0.730057 -0.186419
C32   C     C_3   0.078344 0.252025 0.722028 -0.217936
C33   C     C_1   0.947514 0.160373 0.837329 0.026539
C34   C     C_1   0.876537 0.339877 0.662825 -0.031297
H8    H     H_    0.984027 0.141033 0.713866 0.151936
H9    H     H_    0.650249 0.216525 0.688048 0.129499
H10   H     H_    0.609413 0.245250 0.800761 0.174781
C35   C     C_3   0.540652 0.724531 0.213447 0.538370
C36   C     C_3   0.347511 0.691057 0.228652 -0.369096
H11   H     H_    0.293032 0.644359 0.211753 0.207170
C37   C     C_1   0.348145 0.621382 0.374933 -0.155537
C38   C     C_1   0.476460 0.877665 0.124386 -0.139238
C39   C     C_3   0.580469 0.737931 0.274678 0.348316
C40   C     C_3   0.388398 0.705823 0.290331 -0.213548
C41   C     C_3   0.479326 0.804955 0.269098 0.454776
C42   C     C_3   0.438135 0.791411 0.207706 -0.266417
C43   C     C_3   0.286880 0.772735 0.283985 0.305306
C44   C     C_3   0.245635 0.758633 0.222944 0.498073
C45   C     C_1   0.363348 0.659342 0.336700 0.137364
C46   C     C_1   0.461858 0.838888 0.162057 0.201907
C47   C     C_R   0.475954 0.162173 0.088618 -0.271537
C48   C     C_R   0.348584 0.338015 0.411477 -0.149371
C49   C     C_R   0.557691 0.276276 0.095707 -0.149860
C50   C     C_R   0.550289 0.219045 0.065508 0.534320
C51   C     C_R   0.415362 0.162259 0.143458 0.515423
C52   C     C_R   0.440266 0.218928 0.177139 -0.084597
C53   C     C_R   0.502269 0.277240 0.150945 -0.216707
C54   C     C_R   0.405431 0.220476 0.235204 0.022826
C55   C     C_R   0.409770 0.281430 0.264289 -0.117788
C56   C     C_R   0.443849 0.339174 0.233717 0.500360
C57   C     C_R   0.504427 0.336564 0.179479 0.418280
C58   C     C_R   0.372581 0.162874 0.265585 -0.078205
C59   C     C_R   0.323028 0.164651 0.320341 -0.199892
C60   C     C_R   0.320111 0.223372 0.349071 0.021250
C61   C     C_R   0.376131 0.282186 0.322545 0.073620
C62   C     C_R   0.265902 0.223486 0.404687 0.460874
C63   C     C_R   0.279074 0.280863 0.435131 -0.243117
C64   C     C_R   0.400599 0.338436 0.356081 -0.171181
H12   H     H_    0.462197 0.383079 0.341165 0.197609
H13   H     H_    0.236420 0.280539 0.477704 0.130443
H14   H     H_    0.292097 0.118767 0.340716 0.183566
H15   H     H_    0.609286 0.319971 0.075543 0.203707
H16   H     H_    0.388821 0.114789 0.248805 0.213867
O11   O     O_R   0.323550 0.942140 0.056770 -0.524793
O12   O     O_R   0.647080 0.077200 0.045890 -0.533655
O13   O     O_R   0.813610 0.057920 0.943260 -0.530588
C65   C     C_R   0.478846 0.101357 0.056359 0.870349
O14   O     O_R   0.653470 0.943760 0.063000 -0.542200
O15   O     O_R   0.820050 0.923540 0.960490 -0.551798
C66   C     C_R   0.485646 0.923548 0.078814 0.720216
O16   O     O_R   0.317110 0.076520 0.039540 -0.523763
O17   O     O_3   0.483830 0.993580 0.966380 -0.385078
V3    V     V_3+5 0.760140 0.001190 0.006240 1.524753
O18   O     O_R   0.149510 0.922740 0.954070 -0.538592
C67   C     C_R   0.980659 0.898776 0.943536 0.764456
O19   O     O_R   0.143120 0.056170 0.936970 -0.543613
C68   C     C_R   0.973329 0.076333 0.921134 0.728622
V4    V     V_3+5 0.259690 0.998700 0.993700 1.530736
O20   O     O_3   0.986130 0.006420 0.033620 -0.359739
O21   O     O_3   0.200052 0.285106 0.820317 -0.544230
C69   C     C_3   0.289529 0.342955 0.802577 -0.223803
H17   H     H_    0.186547 0.384785 0.801416 0.143732
H18   H     H_    0.357424 0.336474 0.761926 0.119105
H19   H     H_    0.405734 0.355216 0.832258 0.183364
F1    F     F_    0.671307 0.699991 0.176454 -0.623115
F2    F     F_    0.072573 0.768864 0.195571 -0.629765
O22   O     O_3   0.155605 0.795681 0.323230 -0.514307
C70   C     C_3   0.072524 0.855061 0.305050 0.056028
H20   H     H_    0.976270 0.847300 0.269054 0.192221
H21   H     H_    0.183266 0.892291 0.295531 0.126995
H22   H     H_    0.982526 0.874896 0.338363 0.181028
F3    F     F_    0.549620 0.862735 0.290275 -0.646890
O23   O     O_3   0.755851 0.730684 0.303876 -0.503653
C71   C     C_3   0.834714 0.668202 0.294443 -0.010731
H23   H     H_    0.901675 0.666271 0.253435 0.199265
H24   H     H_    0.727351 0.628481 0.298772 0.089226
H25   H     H_    0.949673 0.658862 0.325410 0.147943
O24   O     O_3   0.546504 0.394258 0.152375 -0.525891
C72   C     C_3   0.736961 0.411945 0.165950 -0.105170
H26   H     H_    0.841428 0.373072 0.154282 0.110296
H27   H     H_    0.752573 0.423314 0.210306 0.159704
H28   H     H_    0.773592 0.456778 0.142628 0.185907
F4    F     F_    0.611169 0.219589 0.012842 -0.668240
F5    F     F_    0.324912 0.107795 0.161352 -0.707482
F6    F     F_    0.762418 0.723687 0.508837 -0.657260
F7    F     F_    0.408672 0.399589 0.253900 -0.692856
O25   O     O_3   0.206490 0.166691 0.430217 -0.551237
C73   C     C_3   0.003570 0.166221 0.430155 -0.206493
H29   H     H_    0.943324 0.168400 0.387670 0.135526
H30   H     H_    0.944614 0.206972 0.455019 0.131360
H31   H     H_    0.955342 0.119748 0.448990 0.188859
F8    F     F_    0.801457 0.893769 0.653246 -0.670491
F9    F     F_    0.998511 0.661280 0.938132 -0.654935
O26   O     O_3   0.020896 0.775696 0.996102 -0.541785
C74   C     C_3   0.844736 0.766531 0.023099 -0.057824
H32   H     H_    0.782121 0.717950 0.013545 0.184383
H33   H     H_    0.739389 0.806081 0.012747 0.078156
H34   H     H_    0.871768 0.768215 0.067972 0.212450
O27   O     O_3   0.836694 0.598611 0.748235 -0.567476
C75   C     C_3   0.634866 0.592009 0.749597 -0.256352
H35   H     H_    0.561032 0.630655 0.724662 0.148662
H36   H     H_    0.581641 0.592633 0.792426 0.157583
H37   H     H_    0.596140 0.544112 0.731632 0.162632

loop_
_geom_bond_atom_site_label_1
_geom_bond_atom_site_label_2
_ccdc_geom_bond_type
O17   V4    S    
C29   H9    S    
C18   C20   A    
C64   H12   S    
C13   C19   A    
O17   V3    S    
C4    C6    S    
C47   C65   S    
C7    C8    A    
C61   C64   A    
C1    O6    A    
C16   H4    S    
C72   H26   S    
C58   C59   A    
C35   C36   S    
C71   H23   S    
C62   C63   A    
C23   C27   S    
O19   V4    S    
C14   C15   A    
C31   H8    S    
C43   O22   S    
C16   C17   A    
C5    C67   S    
C75   H36   S    
C2    C48   S    
C18   C19   A    
C42   C46   S    
C71   H24   S    
C42   C44   S    
C41   F3    S    
C51   F5    S    
C5    C8    A    
O22   C70   S    
C20   H5    S    
C44   F2    S    
C69   H17   S    
C39   C41   S    
C40   C45   S    
C58   H16   S    
O8    V2    S    
C21   F6    S    
C30   C32   S    
C47   C51   A    
V4    O20   S    
V3    O20   S    
O1    V2    S    
C11   C15   A    
C17   C18   A    
O7    V1    S    
O11   C66   A    
O14   V3    S    
O13   V3    S    
C49   C53   A    
C25   C33   T    
C29   C31   S    
C43   C44   S    
C40   C43   S    
C26   C34   T    
C24   O21   S    
C9    C10   A    
C8    O26   S    
C38   C66   S    
C74   H34   S    
O14   C66   A    
C28   C31   S    
C6    C22   A    
C73   H31   S    
C27   C29   S    
C51   C52   A    
C53   C57   A    
C35   C39   S    
C12   C13   A    
C74   H33   S    
C70   H22   S    
O4    C2    A    
C49   H15   S    
C55   C56   A    
C49   C50   A    
C71   H25   S    
C15   H1    S    
C36   H11   S    
C54   C55   A    
C5    C9    A    
C41   C43   S    
O2    C1    A    
C52   C53   A    
C39   C40   S    
O13   C68   A    
C48   C63   A    
C73   H30   S    
C60   C61   A    
C54   C58   A    
C17   F8    S    
C1    C37   S    
C47   C50   A    
C31   C32   S    
C24   C28   S    
C19   C22   A    
O27   C75   S    
O12   C65   A    
C52   C54   A    
C69   H19   S    
O12   V3    S    
C35   F1    S    
O3    C4    A    
C48   C64   A    
C23   C24   S    
C60   C62   A    
O6    V2    S    
O9    V2    S    
C10   C12   A    
C75   H37   S    
C27   H10   S    
O24   C72   S    
O2    V1    S    
C72   H28   S    
C39   O23   S    
C7    C11   A    
O19   C68   A    
C38   C46   T    
C36   C40   S    
C27   C28   S    
C29   C30   S    
O16   V4    S    
O1    C2    A    
C12   C16   A    
C35   C42   S    
C74   H32   S    
C63   H13   S    
C72   H27   S    
O5    V1    S    
O18   V4    S    
O8    C3    A    
C28   C33   S    
C3    C26   S    
C57   O24   S    
C25   C68   S    
C7    F9    S    
C56   F7    S    
C73   H29   S    
C70   H20   S    
C59   H14   S    
C41   C42   S    
C70   H21   S    
O26   C74   S    
C13   C14   A    
O4    V1    S    
O3    V1    S    
O15   V3    S    
C75   H35   S    
C20   C21   A    
O5    C3    A    
H7    C32   S    
C23   C30   S    
C30   C34   S    
C65   O16   A    
C23   H6    S    
C24   C32   S    
C22   H2    S    
O7    V2    S    
C6    C21   A    
C69   H18   S    
C50   F4    S    
C62   O25   S    
C56   C57   A    
C55   C61   A    
C36   C44   S    
C14   O27   S    
C9    H3    S    
C37   C45   T    
C59   C60   A    
O21   C69   S    
O18   C67   A    
C10   C11   A    
O25   C73   S    
V1    O10   S    
O23   C71   S    
O9    C4    A    
O15   C67   A    
O11   V4    S    
V2    O10   S    
