data_mof_unit_21390.cif
_audit_creation_date              2012-12-10T20:41:49-0500
_audit_creation_method            fapswitch 2.2
_symmetry_space_group_name_H-M    P1
_symmetry_Int_Tables_number       1
_space_group_crystal_system       triclinic
_cell_length_a                    15.086674
_cell_length_b                    15.157208
_cell_length_c                    9.867169
_cell_angle_alpha                 90.68974
_cell_angle_beta                  89.845092
_cell_angle_gamma                 89.955278
_cell_volume                      2256.17136355

loop_
_atom_site_label
_atom_site_type_symbol
_atom_type_description
_atom_site_fract_x
_atom_site_fract_y
_atom_site_fract_z
_atom_type_partial_charge
C1    C     C_R   0.378707 0.881253 0.499794 0.882602
C2    C     C_R   0.382054 0.122285 0.500425 0.877184
C3    C     C_R   0.878707 0.381252 0.499793 0.882594
C4    C     C_R   0.882049 0.622281 0.500423 0.877198
C5    C     C_3   0.262761 0.197657 0.747093 -0.505154
C6    C     C_3   0.328131 0.744613 0.731526 -0.478463
C7    C     C_3   0.762888 0.697792 0.747169 -0.505195
C8    C     C_3   0.828030 0.244703 0.731595 -0.478437
C9    C     C_R   0.431046 0.963659 0.070907 0.222984
C10   C     C_R   0.931034 0.463683 0.070909 0.222947
C11   C     C_R   0.572060 0.027459 0.072118 -0.145350
C12   C     C_R   0.072068 0.527436 0.072118 -0.145342
C13   C     C_R   0.572110 0.027216 0.928200 -0.141908
C14   C     C_R   0.072118 0.527192 0.928199 -0.141893
C15   C     C_R   0.431311 0.963132 0.928355 0.217614
C16   C     C_R   0.931294 0.463164 0.928355 0.217623
C17   C     C_3   0.336734 0.990615 0.923203 -0.523747
C18   C     C_3   0.836736 0.490716 0.923225 -0.523771
C19   C     C_3   0.336530 0.992073 0.076894 -0.510391
C20   C     C_3   0.836534 0.492137 0.076913 -0.510402
C21   C     C_R   0.618396 0.121571 0.500413 0.875243
C22   C     C_R   0.622444 0.882482 0.499366 0.879623
C23   C     C_R   0.118398 0.621569 0.500414 0.875250
C24   C     C_R   0.122444 0.382481 0.499367 0.879606
C25   C     C_R   0.299828 0.237882 0.621636 0.138856
C26   C     C_R   0.275950 0.788811 0.623044 0.126659
C27   C     C_R   0.799879 0.737933 0.621601 0.138866
C28   C     C_R   0.775889 0.288873 0.623039 0.126670
C29   C     C_R   0.327266 0.198901 0.500076 -0.103966
C30   C     C_R   0.304651 0.823648 0.500693 -0.103825
C31   C     C_R   0.827254 0.698891 0.500058 -0.103974
C32   C     C_R   0.804651 0.323648 0.500682 -0.103826
C33   C     C_R   0.303517 0.237492 0.376532 -0.225479
C34   C     C_R   0.258349 0.805026 0.380871 -0.227391
C35   C     C_R   0.803451 0.737432 0.376501 -0.225485
C36   C     C_R   0.758419 0.304955 0.380829 -0.227437
C37   C     C_R   0.739021 0.802404 0.375724 -0.227696
C38   C     C_R   0.693202 0.240994 0.381398 -0.228079
C39   C     C_R   0.239080 0.302459 0.375754 -0.227691
C40   C     C_R   0.193133 0.741062 0.381438 -0.228054
C41   C     C_R   0.699217 0.828125 0.498503 -0.107609
C42   C     C_R   0.675310 0.196065 0.501843 -0.100201
C43   C     C_R   0.199216 0.328120 0.498518 -0.107617
C44   C     C_R   0.175318 0.696057 0.501852 -0.100214
C45   C     C_R   0.736258 0.802094 0.620672 0.129702
C46   C     C_R   0.711399 0.225746 0.623838 0.141975
C47   C     C_R   0.236193 0.302031 0.620703 0.129725
C48   C     C_R   0.211471 0.725676 0.623840 0.141982
C49   C     C_3   0.692594 0.769048 0.746182 -0.466029
C50   C     C_3   0.756101 0.175094 0.733434 -0.498084
C51   C     C_3   0.192443 0.268887 0.746084 -0.466012
C52   C     C_3   0.256219 0.674985 0.733349 -0.498079
H1    H     H_    0.329233 0.213365 0.280382 0.169265
H2    H     H_    0.275986 0.835252 0.285935 0.162105
H3    H     H_    0.829119 0.713261 0.280349 0.169260
H4    H     H_    0.776118 0.335116 0.285875 0.162157
H5    H     H_    0.328152 0.059325 0.121420 0.215001
H6    H     H_    0.292702 0.940985 0.120479 0.192594
H7    H     H_    0.828185 0.559380 0.121475 0.215013
H8    H     H_    0.792687 0.441055 0.120470 0.192616
H9    H     H_    0.716062 0.826944 0.279292 0.172616
H10   H     H_    0.661429 0.223088 0.286653 0.168438
H11   H     H_    0.216163 0.327044 0.279324 0.172593
H12   H     H_    0.161290 0.723220 0.286711 0.168427
H13   H     H_    0.698372 0.816695 0.832272 0.203796
H14   H     H_    0.779245 0.108798 0.699025 0.201176
H15   H     H_    0.198133 0.316480 0.832261 0.203812
H16   H     H_    0.279369 0.608709 0.698856 0.201170
H17   H     H_    0.624680 0.743092 0.727651 0.203805
H18   H     H_    0.717192 0.176172 0.829187 0.196351
H19   H     H_    0.124553 0.242917 0.727382 0.203752
H20   H     H_    0.217341 0.676013 0.829133 0.196350
H21   H     H_    0.308868 0.204600 0.834235 0.202465
H22   H     H_    0.393175 0.719222 0.694638 0.200489
H23   H     H_    0.809061 0.704756 0.834223 0.202481
H24   H     H_    0.893074 0.219280 0.694760 0.200491
H25   H     H_    0.235361 0.130493 0.728573 0.203568
H26   H     H_    0.330963 0.784539 0.826570 0.199833
H27   H     H_    0.735441 0.630635 0.728773 0.203581
H28   H     H_    0.830853 0.284661 0.826608 0.199831
H29   H     H_    0.629948 0.049815 0.874233 0.146361
H30   H     H_    0.129963 0.549772 0.874232 0.146355
H31   H     H_    0.328983 0.056664 0.879071 0.216820
H32   H     H_    0.293395 0.938702 0.878661 0.199907
H33   H     H_    0.829040 0.556788 0.879142 0.216817
H34   H     H_    0.793352 0.438852 0.878649 0.199907
N1    N     N_R   0.499140 0.000000 0.142800 -0.107000
N2    N     N_R   0.999140 0.500000 0.142800 -0.106994
N3    N     N_R   0.499160 0.000000 0.857150 -0.104848
N4    N     N_R   0.999160 0.500000 0.857150 -0.104856
O1    O     O_R   0.408400 0.908380 0.614690 -0.617313
O2    O     O_R   0.408400 0.091620 0.614690 -0.615711
O3    O     O_R   0.908400 0.408380 0.614690 -0.617310
O4    O     O_R   0.908400 0.591620 0.614690 -0.615708
O5    O     O_R   0.408370 0.908370 0.385350 -0.619774
O6    O     O_R   0.408370 0.091630 0.385350 -0.625108
O7    O     O_R   0.908370 0.408370 0.385350 -0.619787
O8    O     O_R   0.908370 0.591630 0.385350 -0.625120
O9    O     O_R   0.591610 0.091610 0.614650 -0.622275
O10   O     O_R   0.591610 0.908390 0.614650 -0.619145
O11   O     O_R   0.091610 0.591610 0.614650 -0.622266
O12   O     O_R   0.091610 0.408390 0.614650 -0.619136
O13   O     O_R   0.591590 0.091600 0.385310 -0.631338
O14   O     O_R   0.591590 0.908400 0.385310 -0.620258
O15   O     O_R   0.091590 0.591600 0.385310 -0.631323
O16   O     O_R   0.091590 0.408400 0.385310 -0.620253
Zn1   Zn    Zn3+2 0.500010 0.000000 0.653130 0.940508
Zn2   Zn    Zn3+2 0.000010 0.500000 0.653130 0.940515
Zn3   Zn    Zn3+2 0.499980 0.000000 0.346870 0.939529
Zn4   Zn    Zn3+2 0.999980 0.500000 0.346870 0.939524
H35   H     H_    0.629772 0.050965 0.126306 0.149067
H36   H     H_    0.129788 0.550923 0.126306 0.149077

loop_
_geom_bond_atom_site_label_1
_geom_bond_atom_site_label_2
_ccdc_geom_bond_type
O15   Zn4   S    
C16   N4    A    
O8    Zn4   S    
C4    O8    A    
C7    C27   S    
C6    C26   S    
C19   H5    S    
O4    Zn2   S    
C33   C39   A    
C49   H13   S    
C2    C29   S    
C34   C40   A    
C32   C36   A    
C35   C37   A    
C38   C42   A    
O3    Zn2   S    
O14   Zn3   S    
C21   O9    A    
C6    H26   S    
C22   C41   S    
C23   O15   A    
C13   H29   S    
C8    H24   S    
C22   O14   A    
C42   C46   A    
C14   N4    A    
C9    C19   S    
C29   C33   A    
C11   N1    A    
O12   Zn2   S    
C20   H8    S    
C25   C47   A    
C40   C44   A    
C18   C20   S    
C52   H16   S    
C26   C48   A    
N2    Zn4   S    
C27   C45   A    
O11   Zn2   S    
C1    O1    A    
C49   H17   S    
C25   C29   A    
C51   H19   S    
C6    H22   S    
C19   H6    S    
C33   H1    S    
C18   H33   S    
C22   O10   A    
C12   N2    A    
C11   H35   S    
O1    Zn1   S    
C28   C32   A    
C7    C49   S    
O5    Zn3   S    
C10   C20   S    
C18   H34   S    
C30   C34   A    
C47   C51   S    
C27   C31   A    
C35   H3    S    
C23   C44   S    
C17   H31   S    
C52   H20   S    
C15   N3    A    
C3    O7    A    
O2    Zn1   S    
C37   H9    S    
C45   C49   S    
C1    O5    A    
C10   N2    A    
N3    Zn1   S    
C3    O3    A    
C51   H15   S    
C20   H7    S    
C2    O2    A    
C50   H14   S    
C5    C25   S    
C12   C14   A    
C34   H2    S    
C8    C28   S    
C4    O4    A    
C24   O16   A    
C14   H30   S    
C5    H25   S    
C8    C50   S    
C12   H36   S    
O9    Zn1   S    
C7    H27   S    
O16   Zn4   S    
C15   C17   S    
O10   Zn1   S    
C13   N3    A    
C5    H21   S    
C7    H23   S    
C26   C30   A    
N1    Zn3   S    
C39   H11   S    
O6    Zn3   S    
C46   C50   S    
C40   H12   S    
O13   Zn3   S    
C28   C46   A    
C17   H32   S    
C36   C38   A    
C9    C15   A    
N4    Zn2   S    
C10   C16   A    
C9    N1    A    
O7    Zn4   S    
C11   C13   A    
C23   O11   A    
C31   C35   A    
C2    O6    A    
C1    C30   S    
C17   C19   S    
C24   O12   A    
C37   C41   A    
C3    C32   S    
C50   H18   S    
C4    C31   S    
C21   C42   S    
C21   O13   A    
C48   C52   S    
C39   C43   A    
C16   C18   S    
C36   H4    S    
C8    H28   S    
C24   C43   S    
C41   C45   A    
C5    C51   S    
C6    C52   S    
C43   C47   A    
C44   C48   A    
C38   H10   S    
