data_mof_unit_28987.cif
_audit_creation_date              2013-03-05T15:44:17-0500
_audit_creation_method            fapswitch 2.2
_symmetry_space_group_name_H-M    P1
_symmetry_Int_Tables_number       1
_space_group_crystal_system       triclinic
_cell_length_a                    20.901415
_cell_length_b                    7.099427
_cell_length_c                    16.359643
_cell_angle_alpha                 90.000252
_cell_angle_beta                  92.836406
_cell_angle_gamma                 89.999663
_cell_volume                      2424.60181838

loop_
_atom_site_label
_atom_site_type_symbol
_atom_site_description
_atom_site_fract_x
_atom_site_fract_y
_atom_site_fract_z
_atom_type_partial_charge
O1    O     O_R   0.564840 0.505290 0.579830 -0.561726
O2    O     O_R   0.435160 0.005290 0.420170 -0.561730
O3    O     O_R   0.556720 0.179930 0.409350 -0.533850
O4    O     O_R   0.443280 0.679930 0.590650 -0.533838
C1    C     C_R   0.570079 0.345559 0.380694 0.895063
C2    C     C_R   0.429920 0.845561 0.619305 0.895051
O5    O     O_R   0.572280 0.175810 0.578530 -0.544054
O6    O     O_R   0.427720 0.675810 0.421470 -0.544049
O7    O     O_R   0.450830 0.001920 0.590540 -0.564375
O8    O     O_R   0.549170 0.501920 0.409460 -0.564371
C3    C     C_R   0.589675 0.345136 0.605466 0.859067
C4    C     C_R   0.410325 0.845136 0.394534 0.859049
O9    O     O_3   0.460130 0.338030 0.503750 -0.273715
O10   O     O_3   0.539870 0.838030 0.496250 -0.273718
V1    V     V_3+5 0.507400 0.064560 0.499310 1.207019
V2    V     V_3+5 0.492600 0.564560 0.500690 1.207029
C5    C     C_R   0.142287 0.905216 0.169883 -0.109165
C6    C     C_R   0.857713 0.405215 0.830116 -0.109166
C7    C     C_R   0.358383 0.863416 0.329484 -0.120463
C8    C     C_R   0.641617 0.363414 0.670516 -0.120463
C9    C     C_R   0.316407 0.028414 0.206643 0.177888
C10   C     C_R   0.683592 0.528408 0.793359 0.177887
C11   C     C_R   0.366549 0.988489 0.264222 -0.086493
C12   C     C_R   0.633450 0.488484 0.735780 -0.086501
C13   C     C_R   0.298395 0.778424 0.336867 -0.082292
C14   C     C_R   0.701606 0.278424 0.663133 -0.082276
C15   C     C_R   0.246652 0.823017 0.281510 0.024035
C16   C     C_R   0.753349 0.323017 0.718489 0.024031
C17   C     C_R   0.255519 0.945696 0.214536 0.074168
C18   C     C_R   0.744480 0.445694 0.785464 0.074165
C19   C     C_R   0.203200 0.982541 0.158209 -0.123927
C20   C     C_R   0.796799 0.482539 0.841791 -0.123930
C21   C     C_R   0.133429 0.797445 0.240830 0.145660
C22   C     C_R   0.866571 0.297442 0.759169 0.145659
C23   C     C_R   0.185382 0.752970 0.294511 -0.050613
C24   C     C_R   0.814618 0.252970 0.705488 -0.050612
H1    H     H_    0.209489 0.067217 0.104252 0.110213
H2    H     H_    0.790510 0.567214 0.895749 0.110215
H3    H     H_    0.177398 0.667159 0.347838 0.114905
H4    H     H_    0.822603 0.167159 0.652160 0.114910
H5    H     H_    0.412252 0.058178 0.258658 0.101101
H6    H     H_    0.587747 0.558169 0.741345 0.101101
H7    H     H_    0.291109 0.684686 0.387768 0.143766
H8    H     H_    0.708892 0.184688 0.612231 0.143774
C25   C     C_R   0.378968 0.973706 0.828799 -0.049470
C26   C     C_R   0.621027 0.473622 0.171190 -0.049468
H9    H     H_    0.466569 0.975230 0.766813 0.096707
H10   H     H_    0.533425 0.475148 0.233174 0.096710
H11   H     H_    0.300630 0.023753 0.948647 0.118747
H12   H     H_    0.699364 0.523623 0.051336 0.118742
H13   H     H_    0.402112 0.027947 0.884715 0.108807
H14   H     H_    0.597881 0.527821 0.115266 0.108812
C27   C     C_R   0.388786 0.862865 0.690056 -0.146321
C28   C     C_R   0.611214 0.362855 0.309944 -0.146320
C29   C     C_R   0.078027 0.854813 0.734683 -0.048883
C30   C     C_R   0.921973 0.354859 0.265319 -0.048887
C31   C     C_R   0.111556 0.840379 0.663824 -0.037016
C32   C     C_R   0.888444 0.340453 0.336180 -0.037009
C33   C     C_R   0.177965 0.856954 0.667080 -0.002177
C34   C     C_R   0.822035 0.357015 0.332923 -0.002173
C35   C     C_R   0.213215 0.878055 0.742528 0.063379
C36   C     C_R   0.786784 0.378069 0.257472 0.063375
C37   C     C_R   0.177777 0.912645 0.813871 0.005023
C38   C     C_R   0.822222 0.412631 0.186126 0.005021
C39   C     C_R   0.282173 0.878448 0.748700 -0.010923
C40   C     C_R   0.717826 0.378441 0.251299 -0.010929
C41   C     C_R   0.312690 0.943650 0.823022 0.028541
C42   C     C_R   0.687307 0.443591 0.176970 0.028533
C43   C     C_R   0.277017 0.979892 0.891414 -0.054770
C44   C     C_R   0.722978 0.479805 0.108575 -0.054765
C45   C     C_R   0.210889 0.959430 0.887727 -0.067751
C46   C     C_R   0.789107 0.459367 0.112265 -0.067737
C47   C     C_R   0.322458 0.819703 0.684575 0.299923
C48   C     C_R   0.677543 0.319718 0.315429 0.299932
C49   C     C_R   0.415931 0.941703 0.761930 -0.143271
C50   C     C_R   0.584065 0.441644 0.238062 -0.143291
C51   C     C_R   0.109720 0.900761 0.809277 -0.087187
C52   C     C_R   0.890278 0.400768 0.190722 -0.087189
H15   H     H_    0.026607 0.834811 0.730897 0.113130
H16   H     H_    0.973394 0.334867 0.269108 0.113132
H17   H     H_    0.200243 0.858990 0.609198 0.137321
H18   H     H_    0.799756 0.359077 0.390804 0.137323
H19   H     H_    0.085800 0.817058 0.605649 0.108403
H20   H     H_    0.914201 0.317165 0.394357 0.108405
H21   H     H_    0.185684 0.986822 0.942742 0.052374
H22   H     H_    0.814312 0.486734 0.057247 0.052355
O11   O     O_R   0.950790 0.256670 0.090520 -0.552923
O12   O     O_R   0.049210 0.756670 0.909480 -0.552926
O13   O     O_R   0.927720 0.590370 0.921470 -0.555006
O14   O     O_R   0.072280 0.090370 0.078530 -0.555007
C53   C     C_R   0.910287 0.421030 0.894620 0.840253
C54   C     C_R   0.089713 0.921030 0.105380 0.840254
O15   O     O_R   0.943270 0.586180 0.090640 -0.540767
O16   O     O_R   0.056730 0.086180 0.909360 -0.540767
O17   O     O_R   0.064850 0.759970 0.079840 -0.537316
O18   O     O_R   0.935150 0.259970 0.920160 -0.537317
C55   C     C_R   0.929778 0.416612 0.118384 0.823832
C56   C     C_R   0.070222 0.916610 0.881615 0.823831
O19   O     O_3   0.039850 0.428050 0.996240 -0.270570
O20   O     O_3   0.960150 0.928050 0.003760 -0.270568
V3    V     V_3+5 0.992610 0.701540 0.000700 1.186369
V4    V     V_3+5 0.007390 0.201540 0.999300 1.186367
N1    N     N_R   0.298777 0.699478 0.619431 0.061447
O21   O     O_R   0.307498 0.743015 0.543584 -0.415671
O22   O     O_R   0.270046 0.542486 0.636112 -0.359252
N2    N     N_R   0.701229 0.199532 0.380585 0.061443
O23   O     O_R   0.692504 0.243103 0.456428 -0.415685
O24   O     O_R   0.729966 0.042540 0.363919 -0.359250
I1    I     I_    0.041418 0.714543 0.275410 -0.457142
I2    I     I_    0.958582 0.214522 0.724592 -0.457137
I3    I     I_    0.336019 0.228057 0.114421 -0.510042
I4    I     I_    0.663978 0.728041 0.885585 -0.510038

loop_
_geom_bond_atom_site_label_1
_geom_bond_atom_site_label_2
_geom_bond_distance
_ccdc_geom_bond_type
C30   C52   1.397998 A    
C40   C42   1.422224 A    
O18   V4    1.983610 S    
C15   C17   1.418980 A    
C12   H6    1.083593 S    
H10   C50   1.083933 S    
C23   H3    1.083758 S    
O1    C3    1.310179 A    
O2    C4    1.310180 A    
C13   H7    1.082608 S    
C2    O7    1.290375 A    
C26   C50   1.388843 A    
O12   V3    1.988592 S    
C14   H8    1.082608 S    
O5    C3    1.324994 A    
N2    O24   1.301361 A    
C6    C53   1.489605 S    
C29   C51   1.398001 A    
C31   C33   1.391411 A    
N2    O23   1.300318 A    
O16   C56   1.321913 A    
C32   C34   1.391412 A    
C40   C48   1.439050 A    
C26   H14   1.084118 S    
C39   C47   1.439051 A    
C34   C36   1.413790 A    
C43   C45   1.388120 A    
O14   V4    1.992112 S    
C36   C38   1.434136 A    
C53   O18   1.315516 A    
C28   C48   1.418301 A    
C34   H18   1.075806 S    
C8    C12   1.405537 A    
C39   C41   1.422226 A    
C25   C41   1.400198 A    
C31   H19   1.082719 S    
C20   H2    1.081370 S    
O13   C53   1.324841 A    
O5    V1    1.992103 S    
O6    V2    1.992100 S    
H11   C43   1.082352 S    
C27   C49   1.397045 A    
C5    C54   1.489605 S    
C5    C21   1.409998 A    
C9    I3    2.124710 S    
C5    C19   1.408142 A    
C3    C8    1.487829 S    
C33   C35   1.413791 A    
C36   C40   1.439860 A    
C1    C28   1.480694 S    
C24   H4    1.083758 S    
O4    C2    1.301302 A    
O15   V3    2.012323 S    
C15   C23   1.399809 A    
C9    C17   1.413293 A    
C54   O17   1.315519 A    
C19   H1    1.081372 S    
C41   C43   1.398779 A    
O4    V2    2.012362 S    
C7    C11   1.405537 A    
C26   C42   1.400200 A    
C32   H20   1.082720 S    
C48   N2    1.434261 S    
O11   V4    1.988587 S    
C29   H15   1.082829 S    
O14   C54   1.324841 A    
O6    C4    1.324996 A    
C52   C55   1.480348 S    
O20   V4    2.181124 S    
C51   C56   1.480349 S    
N1    O22   1.301361 A    
O1    V2    1.984866 S    
O2    V1    1.984865 S    
C6    C22   1.410002 A    
O16   V4    2.012313 S    
C28   C50   1.397043 A    
O19   V3    2.181113 S    
C37   C45   1.402296 A    
C10   I4    2.124712 S    
C29   C31   1.387747 A    
C22   I2    2.114877 S    
C10   C12   1.402976 A    
C6    C20   1.408144 A    
C2    C27   1.480697 S    
O15   C55   1.321911 A    
O3    V1    2.012370 S    
C37   C51   1.423240 A    
C10   C18   1.413295 A    
O13   V3    1.992113 S    
C38   C52   1.423242 A    
C35   C37   1.434137 A    
C27   C47   1.418303 A    
C33   H17   1.075806 S    
O3    C1    1.301299 A    
C11   H5    1.083593 S    
C46   H22   1.082747 S    
C13   C15   1.411766 A    
C14   C16   1.411765 A    
C30   H16   1.082826 S    
C25   C49   1.388840 A    
C9    C11   1.402979 A    
H12   C44   1.082353 S    
H9    C49   1.083933 S    
C1    O8    1.290377 A    
C17   C19   1.419039 A    
O8    V2    1.999494 S    
C18   C20   1.419039 A    
C8    C14   1.402068 A    
C45   H21   1.082747 S    
C4    C7    1.487829 S    
C16   C18   1.418979 A    
O20   V3    1.747032 S    
C21   C23   1.398463 A    
C30   C32   1.387747 A    
C22   C24   1.398464 A    
C38   C46   1.402297 A    
O7    V1    1.999503 S    
C7    C13   1.402066 A    
C35   C39   1.439860 A    
C47   N1    1.434261 S    
O19   V4    1.747040 S    
C21   I1    2.114871 S    
C16   C24   1.399808 A    
C42   C44   1.398780 A    
O9    V2    1.747253 S    
N1    O21   1.300318 A    
C25   H13   1.084117 S    
O10   V1    1.747244 S    
C44   C46   1.388121 A    
O12   C56   1.307607 A    
O17   V3    1.983612 S    
O11   C55   1.307608 A    
