data_mof_unit_31154.cif
_audit_creation_date              2012-10-26T19:19:28-0400
_audit_creation_method            fapswitch 2.2
_symmetry_space_group_name_H-M    P1
_symmetry_Int_Tables_number       1
_space_group_crystal_system       triclinic
_cell_length_a                    15.915196
_cell_length_b                    10.876445
_cell_length_c                    9.814643
_cell_angle_alpha                 93.94289
_cell_angle_beta                  89.845293
_cell_angle_gamma                 91.320012
_cell_volume                      1694.45005229

loop_
_atom_site_label
_atom_site_type_symbol
_atom_type_description
_atom_site_fract_x
_atom_site_fract_y
_atom_site_fract_z
_atom_type_partial_charge
C1    C     C_R   0.499620 0.265754 0.495193 0.593131
C2    C     C_2   0.533593 0.864617 0.524900 0.199621
C3    C     C_2   0.558002 0.065094 0.433306 0.226992
C4    C     C_R   0.340703 0.500399 0.500203 0.566292
C5    C     C_2   0.492654 0.133454 0.480021 0.007708
C6    C     C_2   0.469816 0.412576 0.923002 0.310175
C7    C     C_2   0.497243 0.403123 0.067387 0.076915
C8    C     C_R   0.508304 0.734352 0.505358 0.540904
C9    C     C_R   0.659255 0.500866 0.499879 0.588754
C10   C     C_3   0.046389 0.397158 0.597992 0.333881
C11   C     C_3   0.048991 0.482873 0.351748 -0.184728
C12   C     C_3   0.947432 0.399923 0.585964 -0.165033
C13   C     C_3   0.949080 0.481621 0.343054 0.343275
C14   C     C_1   0.748451 0.503481 0.499688 0.126257
C15   C     C_3   0.083770 0.505135 0.506741 -0.095892
C16   C     C_1   0.900865 0.388639 0.715960 0.296118
C17   C     C_1   0.914402 0.745309 0.510024 0.291564
C18   C     C_1   0.409968 0.079917 0.503526 0.227148
C19   C     C_1   0.565982 0.572592 0.898942 0.366984
C20   C     C_1   0.514838 0.281628 0.108296 0.389750
C21   C     C_1   0.092739 0.389297 0.263612 0.340683
C22   C     C_1   0.083498 0.729329 0.457290 0.312704
C23   C     C_3   0.916466 0.508206 0.497847 -0.123629
C24   C     C_1   0.920029 0.652021 0.709469 0.301002
C25   C     C_3   0.952639 0.637432 0.568305 -0.105211
C26   C     C_3   0.054321 0.642751 0.560006 0.115941
C27   C     C_1   0.823737 0.505965 0.498640 0.042068
C28   C     C_1   0.176117 0.502828 0.503354 0.076778
C29   C     C_1   0.251430 0.501645 0.500912 0.125429
C30   C     C_2   0.546660 0.931258 0.416503 -0.108331
Cu1   Cu    Cu3+1 0.500020 0.500020 0.638630 1.174748
Cu2   Cu    Cu3+1 0.499980 0.499980 0.361370 1.070716
H1    H     H_    0.927152 0.313111 0.534371 0.202458
H2    H     H_    0.914624 0.241129 0.057965 0.400257
H3    H     H_    0.949909 0.778528 0.162872 0.410326
H4    H     H_    0.186969 0.889471 0.747696 0.391962
H5    H     H_    0.539757 0.889921 0.313112 0.142594
H6    H     H_    0.477109 0.578859 0.117450 0.222989
H7    H     H_    0.070644 0.561413 0.295114 0.134025
H8    H     H_    0.072632 0.527731 0.960596 0.401349
H9    H     H_    0.647764 0.874455 0.846659 0.390852
H10   H     H_    0.784927 0.048006 0.393848 0.409412
H11   H     H_    0.297248 0.193245 0.966672 0.392931
H12   H     H_    0.202924 0.197243 0.623670 0.405880
N1    N     N_2   0.499090 0.498660 0.846910 -0.297794
N2    N     N_1   0.891931 0.665012 0.818396 -0.113292
N3    N     N_2   0.499070 0.498630 0.153040 -0.373844
N4    N     N_1   0.863877 0.378706 0.816485 -0.122156
N5    N     N_1   0.884280 0.830687 0.467476 -0.131041
N6    N     N_1   0.344060 0.037145 0.522401 -0.180653
N7    N     N_1   0.621658 0.633388 0.942262 -0.215260
N8    N     N_1   0.527316 0.181955 0.135891 -0.185519
N9    N     N_1   0.128396 0.318498 0.192847 -0.096901
N10   N     N_1   0.108896 0.797729 0.380705 -0.122200
O1    O     O_R   0.500010 0.321960 0.617040 -0.429997
O2    O     O_2   0.176135 0.414449 0.783946 -0.197391
O3    O     O_3   0.042299 0.526360 0.872440 -0.434677
O4    O     O_2   0.585935 0.054420 0.710722 -0.210669
O5    O     O_2   0.479910 0.906111 0.783655 -0.227805
O6    O     O_3   0.633670 0.835768 0.754999 -0.489345
O7    O     O_2   0.665971 0.211776 0.301870 -0.223821
O8    O     O_2   0.687852 0.197451 0.546224 -0.252164
O9    O     O_3   0.728005 0.010255 0.381710 -0.456499
O10   O     O_2   0.341002 0.325195 0.750387 -0.224742
O11   O     O_2   0.441965 0.178978 0.825935 -0.228916
O12   O     O_R   0.499990 0.321920 0.382900 -0.507799
O13   O     O_3   0.332366 0.265761 0.999015 -0.506837
O14   O     O_2   0.048989 0.147945 0.633631 -0.191815
O15   O     O_2   0.052549 0.195863 0.400316 -0.193701
O16   O     O_3   0.187830 0.237566 0.539948 -0.483134
O17   O     O_2   0.900472 0.223919 0.331800 -0.259188
O18   O     O_2   0.811006 0.364276 0.224002 -0.185020
O19   O     O_3   0.950162 0.305982 0.106496 -0.426113
O20   O     O_2   0.918593 0.545066 0.081699 -0.162614
O21   O     O_2   0.825729 0.633341 0.256220 -0.238959
O22   O     O_3   0.974546 0.727711 0.231921 -0.533633
O23   O     O_R   0.379450 0.500030 0.617120 -0.434170
O24   O     O_2   0.055852 0.756093 0.830252 -0.204110
O25   O     O_2   0.182338 0.648409 0.756130 -0.223364
O26   O     O_3   0.154306 0.857412 0.666557 -0.468863
O27   O     O_R   0.379420 0.499980 0.382980 -0.506409
O28   O     O_R   0.500010 0.678080 0.617100 -0.452433
O29   O     O_R   0.499990 0.678040 0.382960 -0.532169
O30   O     O_R   0.620580 0.500020 0.617020 -0.505851
O31   O     O_R   0.620550 0.499970 0.382880 -0.449555
O32   O     O_2   0.053857 0.294969 0.846818 -0.195386
S1    S     S_3+6 0.081893 0.407995 0.777645 0.111196
S2    S     S_3+6 0.556902 0.921875 0.696976 0.082203
S3    S     S_3+6 0.661696 0.126620 0.415723 0.094985
S4    S     S_3+6 0.395421 0.294350 0.866403 0.081471
S5    S     S_3+6 0.082153 0.241199 0.539504 0.092905
S6    S     S_3+6 0.901058 0.338945 0.256186 0.109233
S7    S     S_3+6 0.915119 0.598393 0.226784 0.066770
S8    S     S_3+6 0.110820 0.722294 0.709579 0.069299

loop_
_geom_bond_atom_site_label_1
_geom_bond_atom_site_label_2
_ccdc_geom_bond_type
C26   S8    S    
C6    N1    D    
C8    O29   A    
O16   S5    S    
O10   S4    D    
C16   N4    T    
O6    S2    S    
C22   N10   T    
Cu2   O27   S    
C12   C23   S    
O21   S7    D    
Cu1   O28   S    
C1    C5    S    
C28   C29   T    
C10   C15   S    
O18   S6    D    
O8    S3    D    
O14   S5    D    
C13   C23   S    
O5    S2    D    
C9    O31   A    
C11   C15   S    
C4    O27   A    
C12   C16   S    
H12   O16   S    
C23   C27   S    
C14   C27   T    
C4    C29   S    
O2    S1    D    
O20   S7    D    
O7    S3    D    
Cu1   O23   S    
O11   S4    D    
H3    O22   S    
C10   S1    S    
O17   S6    D    
C24   C25   S    
H9    O6    S    
O25   S8    D    
H4    O26   S    
C17   N5    T    
O32   S1    D    
C15   C26   S    
C5    C18   S    
C9    O30   A    
C25   C26   S    
C6    S4    S    
C11   C21   S    
O13   S4    S    
Cu1   O30   S    
O3    S1    S    
C30   H5    S    
C13   S7    S    
C7    N3    D    
C3    C30   S    
C9    C14   S    
O22   S7    S    
Cu1   Cu2   S    
O9    S3    S    
C1    O12   A    
C11   H7    S    
H6    N3    S    
C10   C12   S    
C10   S5    S    
C13   S6    S    
Cu1   N1    S    
Cu2   N3    S    
C8    O28   A    
C2    S2    S    
O26   S8    S    
C18   N6    T    
Cu2   O12   S    
Cu2   O29   S    
H8    O3    S    
C2    C8    S    
O19   S6    S    
C3    C5    D    
O4    S2    D    
C19   N1    S    
C6    C7    S    
C2    C30   D    
C3    S3    S    
C17   C25   S    
C1    O1    A    
C24   N2    T    
C4    O23   A    
C20   N8    T    
C21   N9    T    
C11   C13   S    
C15   C28   S    
O24   S8    D    
Cu2   O31   S    
C23   C25   S    
H2    O19   S    
C19   N7    T    
H11   O13   S    
C7    C20   S    
C22   C26   S    
Cu1   O1    S    
C12   H1    S    
O15   S5    D    
H10   O9    S    
