data_mof_unit_31368.cif
_audit_creation_date              2012-12-10T20:30:14-0500
_audit_creation_method            fapswitch 2.2
_symmetry_space_group_name_H-M    P1
_symmetry_Int_Tables_number       1
_space_group_crystal_system       triclinic
_cell_length_a                    9.899452
_cell_length_b                    10.669624
_cell_length_c                    13.089394
_cell_angle_alpha                 90.6127
_cell_angle_beta                  70.096915
_cell_angle_gamma                 89.541409
_cell_volume                      1299.79288745

loop_
_atom_site_label
_atom_site_type_symbol
_atom_type_description
_atom_site_fract_x
_atom_site_fract_y
_atom_site_fract_z
_atom_type_partial_charge
C1    C     C_R   0.502644 0.740136 0.494127 0.900686
C2    C     C_R   0.366472 0.493412 0.822487 -0.113937
C3    C     C_R   0.394388 0.937229 0.466054 0.062208
C4    C     C_R   0.419925 0.495703 0.704167 0.849260
C5    C     C_R   0.514373 0.871119 0.470111 -0.243320
C6    C     C_R   0.646572 0.934604 0.447115 0.515789
C7    C     C_R   0.644246 0.064819 0.450410 -0.320701
C8    C     C_R   0.513483 0.129084 0.471456 -0.187374
C9    C     C_R   0.394328 0.065145 0.466025 0.139564
C10   C     C_3   0.240367 0.075321 0.536910 -0.442461
C11   C     C_3   0.240430 0.933541 0.537681 -0.462250
C12   C     C_R   0.427646 0.481321 0.986018 0.093507
C13   C     C_R   0.886224 0.486913 0.594427 0.183548
C14   C     C_R   0.970574 0.504553 0.405392 -0.132553
C15   C     C_R   0.114020 0.504638 0.405381 -0.129616
C16   C     C_R   0.502857 0.260051 0.494658 0.905355
C17   C     C_R   0.028548 0.486534 0.594520 0.150513
C18   C     C_3   0.986177 0.570406 0.693572 -0.165059
C19   C     C_3   0.833981 0.571691 0.691534 -0.452124
C20   C     C_R   0.579818 0.498209 0.295793 0.852993
C21   C     C_R   0.754167 0.342984 0.025625 -0.201816
C22   C     C_R   0.627271 0.475965 0.179423 -0.057032
C23   C     C_R   0.450994 0.440566 0.878695 0.082413
C24   C     C_R   0.240908 0.561218 0.879339 -0.200298
C25   C     C_R   0.204436 0.583587 0.990112 -0.145077
C26   C     C_R   0.298461 0.547289 0.042966 -0.198215
C27   C     C_3   0.845565 0.844630 0.326687 -0.297038
C28   C     C_R   0.535153 0.455444 0.031481 0.084012
C29   C     C_R   0.649839 0.371076 0.978333 0.169319
C30   C     C_R   0.657337 0.315223 0.879695 -0.275301
C31   C     C_R   0.559834 0.350553 0.829596 -0.229420
C32   C     C_R   0.533027 0.513604 0.127611 -0.259972
C33   C     C_R   0.741277 0.393528 0.127371 -0.203463
H1    H     H_    0.814438 0.362732 0.167798 0.149418
H2    H     H_    0.757877 0.526316 0.763322 0.202521
H3    H     H_    0.741844 0.248077 0.839190 0.154958
H4    H     H_    0.795902 0.663995 0.672373 0.228227
H5    H     H_    0.841592 0.278014 0.986245 0.137025
H6    H     H_    0.453662 0.584580 0.167449 0.137762
H7    H     H_    0.173993 0.601262 0.837584 0.149318
H8    H     H_    0.266091 0.569597 0.128559 0.116972
H9    H     H_    0.106606 0.634761 0.034072 0.138207
H10   H     H_    0.571199 0.307961 0.751625 0.171148
H11   H     H_    0.156990 0.685879 0.669763 0.223154
H12   H     H_    0.742045 0.113925 0.444267 0.191191
H13   H     H_    0.049002 0.727796 0.600013 0.214271
H14   H     H_    0.780183 0.783076 0.292968 0.153766
H15   H     H_    0.946486 0.792989 0.318580 0.182478
H16   H     H_    0.875087 0.931713 0.278432 0.148724
H17   H     H_    0.225612 0.118396 0.617828 0.197362
H18   H     H_    0.171762 0.115911 0.493446 0.206791
H19   H     H_    0.226667 0.895544 0.619221 0.201824
H20   H     H_    0.171198 0.892675 0.494893 0.211444
H21   H     H_    0.951040 0.510047 0.329137 0.138301
H22   H     H_    0.201038 0.510192 0.328777 0.150277
H23   H     H_    0.996613 0.524225 0.766312 0.167715
N1    N     N_R   0.856940 0.500860 0.500710 -0.092440
N2    N     N_R   0.142580 0.500820 0.500710 -0.105034
N3    N     N_3   0.050020 0.694704 0.674645 -0.442830
O1    O     O_R   0.385310 0.683210 0.499990 -0.630097
O2    O     O_R   0.614650 0.683240 0.500000 -0.551732
O3    O     O_R   0.328390 0.499940 0.653610 -0.626099
O4    O     O_R   0.557730 0.499980 0.653620 -0.609573
O5    O     O_R   0.385350 0.316760 0.500000 -0.608335
O6    O     O_R   0.614690 0.316790 0.500010 -0.625935
O7    O     O_R   0.442270 0.500020 0.346380 -0.617030
O8    O     O_R   0.671610 0.500060 0.346390 -0.629932
O9    O     O_3   0.773499 0.872630 0.437542 -0.583897
Zn1   Zn    Zn3+2 0.346870 0.499980 0.499990 0.925722
Zn2   Zn    Zn3+2 0.653130 0.500020 0.500010 0.952221

loop_
_geom_bond_atom_site_label_1
_geom_bond_atom_site_label_2
_ccdc_geom_bond_type
C25   H9    S    
C27   H15   S    
C2    C4    S    
C30   H3    S    
N2    Zn1   S    
C6    C7    A    
C3    C9    A    
C21   C33   A    
C18   H23   S    
N1    Zn2   S    
C19   H4    S    
C9    C10   S    
C31   H10   S    
C20   O8    A    
C11   H20   S    
O4    Zn2   S    
C13   C17   A    
C17   N2    A    
C3    C5    A    
O8    Zn2   S    
C6    O9    S    
C17   C18   S    
C7    C8    A    
C8    C16   S    
O2    Zn2   S    
C19   H2    S    
O5    Zn1   S    
C5    C6    A    
C12   C23   A    
C29   C30   A    
C22   C32   A    
O1    Zn1   S    
C12   C28   A    
C1    C5    S    
C10   H18   S    
C7    H12   S    
C4    O4    A    
C28   C29   A    
C14   H21   S    
C20   C22   S    
C33   H1    S    
C16   O6    A    
C2    C24   A    
C30   C31   A    
H13   N3    S    
C15   N2    A    
C1    O1    A    
O7    Zn1   S    
C3    C11   S    
C10   C11   S    
C13   C19   S    
H11   N3    S    
C27   H14   S    
O6    Zn2   S    
C10   H17   S    
C4    O3    A    
C18   N3    S    
C28   C32   A    
C13   N1    A    
C24   C25   A    
O3    Zn1   S    
C18   C19   S    
C32   H6    S    
C20   O7    A    
C2    C23   A    
C22   C33   A    
C14   N1    A    
C14   C15   A    
C11   H19   S    
C16   O5    A    
C27   O9    S    
C24   H7    S    
C25   C26   A    
C21   C29   A    
C21   H5    S    
C27   H16   S    
C26   H8    S    
C12   C26   A    
C8    C9    A    
C1    O2    A    
C23   C31   A    
C15   H22   S    
