data_mof_unit_8455.cif
_audit_creation_date              2013-03-05T16:00:57-0500
_audit_creation_method            fapswitch 2.2
_symmetry_space_group_name_H-M    P1
_symmetry_Int_Tables_number       1
_space_group_crystal_system       triclinic
_cell_length_a                    10.618931
_cell_length_b                    14.731484
_cell_length_c                    14.739972
_cell_angle_alpha                 64.997828
_cell_angle_beta                  103.789644
_cell_angle_gamma                 103.015914
_cell_volume                      2009.10800442

loop_
_atom_site_label
_atom_site_type_symbol
_atom_site_description
_atom_site_fract_x
_atom_site_fract_y
_atom_site_fract_z
_atom_type_partial_charge
O1    O     O_R   0.454850 0.022100 0.338110 -0.534332
O2    O     O_R   0.545150 0.977900 0.661890 -0.560459
O3    O     O_R   0.512700 0.160150 0.379180 -0.596600
O4    O     O_R   0.487300 0.839850 0.620820 -0.594177
C1    C     C_R   0.477412 0.119656 0.312189 0.798352
C2    C     C_R   0.520374 0.880319 0.687682 0.788548
O5    O     O_R   0.287930 0.931000 0.479440 -0.546334
O6    O     O_R   0.712070 0.069000 0.520560 -0.500055
O7    O     O_R   0.345780 0.069050 0.520520 -0.608877
O8    O     O_R   0.654220 0.930950 0.479480 -0.609596
C3    C     C_R   0.259644 0.000163 0.500274 0.838214
C4    C     C_R   0.740392 0.999596 0.500208 0.840499
Cu1   Cu    Cu3+1 0.465750 0.918270 0.475680 0.992733
Cu2   Cu    Cu3+1 0.534250 0.081730 0.524320 0.999332
C5    C     C_3   0.019011 0.028480 0.404012 -0.338582
C6    C     C_3   0.981047 0.971148 0.597377 -0.294361
C7    C     C_3   0.969300 0.091357 0.445564 0.540391
C8    C     C_3   0.030892 0.908217 0.555813 0.518733
H1    H     H_    0.037145 0.054644 0.325382 0.152086
H2    H     H_    0.961860 0.945913 0.675725 0.149982
C9    C     C_3   0.876921 0.998614 0.500744 -0.086306
C10   C     C_3   0.123218 0.000976 0.500494 -0.105238
C11   C     C_3   0.925531 0.933849 0.460231 -0.291919
C12   C     C_3   0.074668 0.065732 0.541104 -0.253057
H3    H     H_    0.862702 0.879560 0.428381 0.165225
H4    H     H_    0.137726 0.120037 0.572836 0.170891
C13   C     C_R   0.459726 0.187054 0.204237 -0.056413
C14   C     C_R   0.523040 0.812581 0.794957 -0.054778
C15   C     C_R   0.399695 0.214626 0.026729 -0.147719
C16   C     C_R   0.533451 0.783622 0.970245 -0.136117
C17   C     C_R   0.415750 0.148793 0.128338 -0.200855
C18   C     C_R   0.536458 0.850006 0.869849 -0.212660
C19   C     C_R   0.484053 0.291573 0.177518 -0.223695
C20   C     C_R   0.506137 0.708263 0.821435 -0.209451
C21   C     C_R   0.460659 0.359799 0.075983 0.065749
C22   C     C_R   0.493050 0.639132 0.920850 0.067069
C23   C     C_R   0.425019 0.320329 0.998980 0.034455
C24   C     C_R   0.509515 0.678048 0.996998 0.033158
C25   C     C_R   0.474105 0.465957 0.049693 0.005798
C26   C     C_R   0.467187 0.532702 0.946352 0.003325
C27   C     C_R   0.431981 0.491162 0.871457 -0.281205
C28   C     C_R   0.488646 0.506919 0.123480 -0.280762
C29   C     C_R   0.412170 0.387122 0.896324 0.316076
C30   C     C_R   0.503987 0.610828 0.098210 0.318535
H5    H     H_    0.506330 0.682910 0.762938 0.144314
H6    H     H_    0.524566 0.318262 0.237514 0.161348
H7    H     H_    0.549627 0.930546 0.851038 0.163063
H8    H     H_    0.394414 0.068017 0.147300 0.198043
H9    H     H_    0.365020 0.181721 0.970589 0.190555
H10   H     H_    0.550122 0.816202 0.026165 0.191790
H11   H     H_    0.416326 0.537715 0.791629 0.178732
H12   H     H_    0.480527 0.459679 0.201625 0.168488
N1    N     N_R   0.585750 0.204560 0.560800 -0.210378
N2    N     N_R   0.414250 0.795440 0.439200 -0.210082
C31   C     C_R   0.725168 0.289617 0.662695 -0.384337
C32   C     C_R   0.281231 0.713116 0.332664 -0.337427
C33   C     C_R   0.690020 0.205454 0.635566 0.668146
C34   C     C_R   0.315709 0.796808 0.360005 0.651973
C35   C     C_R   0.512861 0.282328 0.513437 -0.071597
C36   C     C_R   0.478027 0.712973 0.494058 -0.073439
C37   C     C_R   0.543426 0.368580 0.539251 0.000390
C38   C     C_R   0.445240 0.625406 0.470198 -0.007145
C39   C     C_R   0.651307 0.369538 0.616527 0.134084
C40   C     C_R   0.342785 0.627105 0.388581 0.135571
C41   C     C_R   0.473144 0.454025 0.490671 0.133081
C42   C     C_R   0.512008 0.538115 0.521668 0.129279
C43   C     C_R   0.618055 0.532965 0.601407 -0.200852
C44   C     C_R   0.367231 0.459206 0.410819 -0.185686
C45   C     C_R   0.686439 0.450695 0.647111 -0.115013
C46   C     C_R   0.304142 0.544179 0.360832 -0.080395
H13   H     H_    0.768405 0.450746 0.707210 0.134041
H14   H     H_    0.225144 0.545665 0.298377 0.133996
H15   H     H_    0.554813 0.718219 0.554885 0.133955
H16   H     H_    0.431553 0.274674 0.456331 0.133874
H17   H     H_    0.811184 0.294482 0.718039 0.141365
H18   H     H_    0.209747 0.716319 0.265622 0.157627
H19   H     H_    0.652222 0.592144 0.629751 0.111061
H20   H     H_    0.331936 0.399471 0.383363 0.104636
O9    O     O_3   0.926190 0.186465 0.388153 -0.566306
C47   C     C_3   0.031057 0.257942 0.345577 0.062786
H21   H     H_    0.067897 0.235612 0.294369 0.132455
H22   H     H_    0.112790 0.266782 0.405890 0.139042
C48   C     C_3   0.983516 0.359986 0.283156 -0.749409
H23   H     H_    0.950879 0.386651 0.332768 0.255798
H24   H     H_    0.064267 0.416200 0.246796 0.187305
H25   H     H_    0.900406 0.353485 0.223031 0.253640
O10   O     O_3   0.074581 0.813306 0.613049 -0.572970
C49   C     C_3   0.970144 0.741363 0.655703 0.051496
H26   H     H_    0.888475 0.732261 0.595447 0.138537
H27   H     H_    0.933027 0.763383 0.707016 0.136039
C50   C     C_3   0.018613 0.639610 0.717951 -0.741900
H28   H     H_    0.101142 0.646233 0.778414 0.255905
H29   H     H_    0.937988 0.582750 0.753810 0.186920
H30   H     H_    0.052466 0.613666 0.668313 0.255471
O11   O     O_3   0.265756 0.886200 0.298195 -0.565040
C51   C     C_3   0.128122 0.873388 0.290972 0.048662
H31   H     H_    0.103180 0.871436 0.360820 0.183998
H32   H     H_    0.076471 0.803459 0.279822 0.127236
C52   C     C_3   0.075668 0.962592 0.200236 -0.799002
H33   H     H_    0.969571 0.959189 0.198363 0.211204
H34   H     H_    0.129010 0.034930 0.204999 0.243822
H35   H     H_    0.089547 0.960238 0.128941 0.247949
O12   O     O_3   0.765708 0.127382 0.675808 -0.548869
C53   C     C_3   0.797331 0.092482 0.782733 0.052371
H36   H     H_    0.709347 0.079728 0.817621 0.135531
H37   H     H_    0.874858 0.146598 0.806094 0.149130
C54   C     C_3   0.852274 0.993146 0.823944 -0.775143
H38   H     H_    0.864302 0.959616 0.908084 0.205026
H39   H     H_    0.785534 0.938821 0.794082 0.243475
H40   H     H_    0.949429 0.006958 0.801093 0.241689
N3    N     N_R   0.383608 0.351307 0.815682 0.109300
O13   O     O_R   0.302296 0.393261 0.733957 -0.375287
O14   O     O_R   0.456796 0.291635 0.815126 -0.388701
N4    N     N_R   0.513150 0.646338 0.176908 0.105315
O15   O     O_R   0.585451 0.605929 0.264461 -0.379663
O16   O     O_R   0.434295 0.707147 0.166914 -0.396474

loop_
_geom_bond_atom_site_label_1
_geom_bond_atom_site_label_2
_geom_bond_distance
_ccdc_geom_bond_type
O10   C49   1.410009 S    
C6    C9    1.542305 S    
C32   H18   1.083555 S    
C27   C29   1.394390 A    
O11   C51   1.414766 S    
C43   H19   1.076740 S    
O7    Cu2   1.957151 S    
C53   H37   1.110466 S    
N4    O15   1.301305 A    
N1    C35   1.365537 A    
N2    C36   1.366585 A    
C13   C19   1.396178 A    
O5    C3    1.291877 A    
C29   N3    1.438563 S    
O1    C1    1.301221 A    
C21   C23   1.422509 A    
C12   H4    1.110336 S    
C51   C52   1.521453 S    
C36   H15   1.075345 S    
C7    O9    1.410927 S    
C16   C24   1.410766 A    
C36   C38   1.425412 A    
O4    Cu1   1.939162 S    
C45   H13   1.083991 S    
C38   C40   1.412252 A    
C19   C21   1.405519 A    
C5    H1    1.106472 S    
C5    C10   1.541373 S    
C2    C14   1.467812 S    
C39   C45   1.395091 A    
C31   C39   1.395945 A    
C54   H38   1.110636 S    
C32   C40   1.394810 A    
C40   C46   1.394479 A    
O6    C4    1.290958 A    
C31   H17   1.081499 S    
C5    C11   1.551698 S    
C42   C43   1.409775 A    
C16   H10   1.080586 S    
C30   N4    1.436995 S    
C6    C12   1.552421 S    
C1    C13   1.469378 S    
Cu1   Cu2   2.695067 S    
C19   H6    1.076147 S    
C54   H39   1.109081 S    
O2    C2    1.302134 A    
C28   C30   1.393924 A    
C47   C48   1.520676 S    
C53   H36   1.113986 S    
C25   C28   1.415514 A    
C44   H20   1.076482 S    
C33   O12   1.390324 S    
C35   C37   1.424314 A    
C7    C12   1.538611 S    
C38   C42   1.435775 A    
C13   C17   1.397407 A    
C8    C11   1.538981 S    
C14   C18   1.395349 A    
C47   H22   1.113430 S    
C50   H28   1.111072 S    
N1    C33   1.365527 A    
C15   H9    1.081079 S    
C4    C9    1.451221 S    
C7    C9    1.525708 S    
C51   H32   1.111166 S    
C43   C45   1.386735 A    
C23   C29   1.407090 A    
C21   C25   1.424692 A    
C34   O11   1.384084 S    
C24   C30   1.405870 A    
C50   H29   1.110165 S    
C48   H23   1.110924 S    
C49   C50   1.521009 S    
C22   C26   1.425478 A    
C6    H2    1.108388 S    
C41   C44   1.409881 A    
C51   H31   1.110193 S    
C52   H35   1.110943 S    
C37   C39   1.412177 A    
N3    O14   1.301420 A    
C20   H5    1.075349 S    
O7    C3    1.289677 A    
C35   H16   1.075462 S    
Cu2   N1    2.024581 S    
O3    Cu2   1.939163 S    
O8    C4    1.290116 A    
O4    C2    1.298996 A    
C26   C27   1.415692 A    
C52   H34   1.110753 S    
C49   H27   1.113454 S    
C17   H8    1.083066 S    
C31   C33   1.405681 A    
C54   H40   1.110135 S    
C10   C12   1.544496 S    
O1    Cu1   1.952153 S    
C25   C26   1.416191 A    
Cu1   N2    2.024581 S    
N2    C34   1.365767 A    
C5    C7    1.538073 S    
O6    Cu2   1.954978 S    
N3    O13   1.301475 A    
C48   H24   1.110107 S    
C8    C10   1.526141 S    
C47   H21   1.113367 S    
O3    C1    1.300829 A    
O8    Cu1   1.957152 S    
N4    O16   1.301103 A    
C3    C10   1.452228 S    
C8    O10   1.410807 S    
C52   H33   1.110635 S    
C9    C11   1.543925 S    
C15   C17   1.392018 A    
C50   H30   1.110976 S    
C16   C18   1.390117 A    
C22   C24   1.422774 A    
C18   H7    1.081574 S    
C32   C34   1.401015 A    
C20   C22   1.405567 A    
C11   H3    1.110336 S    
O2    Cu2   1.952153 S    
C14   C20   1.395816 A    
O9    C47   1.410332 S    
C37   C41   1.435485 A    
O5    Cu1   1.954978 S    
C48   H25   1.110983 S    
C49   H26   1.113558 S    
C6    C8    1.539706 S    
C41   C42   1.439414 A    
C15   C23   1.410608 A    
O12   C53   1.414779 S    
C44   C46   1.386158 A    
C46   H14   1.083868 S    
C27   H11   1.076322 S    
C53   C54   1.521528 S    
C28   H12   1.077602 S    
