data_mof_unit_48382.cif
_audit_creation_date              2012-12-11T14:30:06-0500
_audit_creation_method            fapswitch 2.2
_symmetry_space_group_name_H-M    P1
_symmetry_Int_Tables_number       1
_space_group_crystal_system       triclinic
_cell_length_a                    12.704504
_cell_length_b                    12.707939
_cell_length_c                    27.245661
_cell_angle_alpha                 89.829574
_cell_angle_beta                  90.041448
_cell_angle_gamma                 119.958158
_cell_volume                      3811.0239951

loop_
_atom_site_label
_atom_site_type_symbol
_atom_type_description
_atom_site_fract_x
_atom_site_fract_y
_atom_site_fract_z
_atom_type_partial_charge
C1    C     C_R   0.558162 0.454569 0.822520 0.600495
C2    C     C_R   0.896990 0.440465 0.677825 0.641558
C3    C     C_R   0.545505 0.103704 0.822797 0.591748
C4    C     C_R   0.558946 0.456939 0.678025 0.636527
C5    C     C_R   0.895955 0.441304 0.822450 0.598473
C6    C     C_R   0.543814 0.103963 0.677433 0.634011
C7    C     C_R   0.454220 0.559027 0.322728 0.615838
C8    C     C_R   0.442304 0.900968 0.178334 0.586187
C9    C     C_R   0.105027 0.545697 0.322730 0.607909
C10   C     C_R   0.456695 0.559036 0.177956 0.634474
C11   C     C_R   0.442204 0.896685 0.322294 0.555184
C12   C     C_R   0.105535 0.544960 0.177237 0.620068
C13   C     C_R   0.997140 0.501010 0.973263 -0.058524
C14   C     C_R   0.505146 0.015173 0.524211 -0.066757
C15   C     C_R   0.501587 0.495133 0.974062 -0.043715
C16   C     C_R   0.997908 0.491694 0.526326 -0.037211
C17   C     C_R   0.510426 0.011888 0.975564 -0.061424
C18   C     C_R   0.508620 0.499489 0.525608 -0.043365
C19   C     C_R   0.501639 0.997804 0.472809 -0.064427
C20   C     C_R   0.017393 0.507910 0.024454 -0.045297
C21   C     C_R   0.494918 0.503229 0.474245 -0.041872
C22   C     C_R   0.500252 0.998680 0.027231 -0.071755
C23   C     C_R   0.017720 0.504883 0.475144 -0.049783
C24   C     C_R   0.498574 0.508056 0.025537 -0.041617
C25   C     C_R   0.879084 0.602367 0.984430 -0.131841
C26   C     C_R   0.591415 0.883759 0.535488 -0.074549
C27   C     C_R   0.393413 0.275766 0.985076 -0.058505
C28   C     C_R   0.116700 0.710816 0.536525 -0.069637
C29   C     C_R   0.729831 0.106058 0.983507 -0.044816
C30   C     C_R   0.292234 0.420973 0.536846 -0.100657
C31   C     C_R   0.587046 0.865702 0.485111 -0.109972
C32   C     C_R   0.900173 0.610171 0.034585 -0.109780
C33   C     C_R   0.278415 0.423092 0.486294 -0.112700
C34   C     C_R   0.719266 0.090320 0.034177 -0.058276
C35   C     C_R   0.134902 0.724232 0.486178 -0.059243
C36   C     C_R   0.392554 0.288826 0.035717 -0.072793
C37   C     C_R   0.902090 0.537131 0.902759 0.194803
C38   C     C_R   0.566572 0.987769 0.607058 0.202899
C39   C     C_R   0.457609 0.364590 0.902849 0.187195
C40   C     C_R   0.016308 0.580582 0.608333 0.204357
C41   C     C_R   0.637513 0.088608 0.902405 0.183914
C42   C     C_R   0.420528 0.442166 0.608588 0.215326
C43   C     C_R   0.544319 0.908451 0.402026 0.195818
C44   C     C_R   0.998054 0.577538 0.106410 0.213099
C45   C     C_R   0.363600 0.459735 0.403112 0.195784
C46   C     C_R   0.590082 0.005624 0.108064 0.211082
C47   C     C_R   0.108195 0.636315 0.404150 0.200529
C48   C     C_R   0.442284 0.420387 0.108659 0.198117
C49   C     C_R   0.067196 0.529188 0.125555 0.086313
C50   C     C_R   0.483975 0.951670 0.371349 0.023842
C51   C     C_R   0.475715 0.536251 0.126638 0.092394
C52   C     C_R   0.058352 0.533409 0.373270 0.065278
C53   C     C_R   0.475314 0.963451 0.129575 0.012770
C54   C     C_R   0.467435 0.521929 0.372762 0.091744
C55   C     C_R   0.524169 0.062305 0.625859 0.072263
C56   C     C_R   0.947798 0.479601 0.872052 0.077365
C57   C     C_R   0.536554 0.476905 0.626746 0.086874
C58   C     C_R   0.532591 0.051539 0.873046 0.039837
C59   C     C_R   0.941004 0.463548 0.626845 0.091757
C60   C     C_R   0.518720 0.468181 0.872234 0.062584
C61   C     C_R   0.925962 0.547233 0.953352 0.004957
C62   C     C_R   0.555764 0.962462 0.555844 0.033452
C63   C     C_R   0.450556 0.377886 0.953859 0.042913
C64   C     C_R   0.044357 0.595479 0.557383 0.046054
C65   C     C_R   0.626510 0.068342 0.953616 0.038079
C66   C     C_R   0.405823 0.453108 0.557329 0.040633
C67   C     C_R   0.546935 0.925670 0.453119 0.003487
C68   C     C_R   0.971882 0.566307 0.055401 0.040826
C69   C     C_R   0.377937 0.459718 0.454395 0.033501
C70   C     C_R   0.604682 0.033025 0.056845 0.027343
C71   C     C_R   0.086733 0.622438 0.455010 0.045877
C72   C     C_R   0.445954 0.404610 0.057023 0.027918
C73   C     C_R   0.022213 0.437261 0.891434 0.171264
C74   C     C_R   0.472771 0.112605 0.594142 0.202493
C75   C     C_R   0.564179 0.584873 0.892035 0.167721
C76   C     C_R   0.891742 0.362483 0.595194 0.160752
C77   C     C_R   0.416705 0.986244 0.894515 0.205007
C78   C     C_R   0.636413 0.519544 0.594627 0.150477
C79   C     C_R   0.446847 0.031116 0.390244 0.208704
C80   C     C_R   0.115534 0.475843 0.094245 0.168477
C81   C     C_R   0.584112 0.566074 0.392474 0.176223
C82   C     C_R   0.380732 0.960776 0.100695 0.200947
C83   C     C_R   0.984559 0.417106 0.392910 0.211355
C84   C     C_R   0.520086 0.636110 0.094402 0.157629
C85   C     C_R   0.049680 0.449752 0.942152 -0.059302
C86   C     C_R   0.457092 0.084433 0.543922 -0.023767
C87   C     C_R   0.552691 0.599274 0.942948 -0.069592
C88   C     C_R   0.929663 0.374600 0.546263 -0.061909
C89   C     C_R   0.404624 0.967921 0.946075 -0.010050
C90   C     C_R   0.625383 0.541747 0.545073 -0.076802
C91   C     C_R   0.453847 0.053252 0.441290 0.006738
C92   C     C_R   0.083006 0.455997 0.044550 -0.069530
C93   C     C_R   0.597993 0.549162 0.442864 -0.073564
C94   C     C_R   0.386312 0.956685 0.049487 0.024054
C95   C     C_R   0.966154 0.400953 0.444152 -0.000454
C96   C     C_R   0.545800 0.624769 0.045362 -0.076861
C97   C     C_R   0.122226 0.392314 0.013847 0.270398
C98   C     C_R   0.406237 0.122724 0.462118 0.255513
C99   C     C_R   0.608159 0.727991 0.014879 0.280070
C100  C     C_R   0.901884 0.283525 0.465188 0.299743
C101  C     C_R   0.280580 0.912543 0.020411 0.253048
C102  C     C_R   0.713475 0.585603 0.463452 0.280770
C103  C     C_R   0.396647 0.127303 0.513198 0.262592
C104  C     C_R   0.121438 0.404956 0.963357 0.286460
C105  C     C_R   0.728427 0.596463 0.513884 0.280780
C106  C     C_R   0.289359 0.907174 0.968861 0.219362
C107  C     C_R   0.894001 0.271091 0.516394 0.210454
C108  C     C_R   0.598146 0.715570 0.964290 0.287848
Cr1   Cr    Cr6+3 0.487630 0.241180 0.750000 1.153165
Cr2   Cr    Cr6+3 0.753550 0.512370 0.750000 1.151487
Cr3   Cr    Cr6+3 0.758820 0.246450 0.750000 1.151286
Cr4   Cr    Cr6+3 0.241180 0.487630 0.250000 1.142244
Cr5   Cr    Cr6+3 0.512370 0.753550 0.250000 1.149316
Cr6   Cr    Cr6+3 0.246450 0.758820 0.250000 1.138516
O1    O     O_R   0.460870 0.120930 0.805240 -0.449456
O2    O     O_R   0.660060 0.539130 0.694760 -0.464363
O3    O     O_R   0.879070 0.339940 0.805240 -0.448318
O4    O     O_R   0.460870 0.120930 0.694760 -0.457177
O5    O     O_R   0.660060 0.539130 0.805240 -0.437837
O6    O     O_R   0.879070 0.339940 0.694760 -0.463741
O7    O     O_R   0.120930 0.460870 0.305240 -0.463840
O8    O     O_R   0.539130 0.660060 0.194760 -0.467719
O9    O     O_R   0.339940 0.879070 0.305240 -0.461590
O10   O     O_R   0.120930 0.460870 0.194760 -0.459603
O11   O     O_R   0.539130 0.660060 0.305240 -0.432651
O12   O     O_R   0.339940 0.879070 0.194760 -0.503635
O13   O     O_R   0.498910 0.350470 0.801870 -0.460725
O14   O     O_R   0.851560 0.501090 0.698130 -0.440009
O15   O     O_R   0.649530 0.148440 0.801870 -0.456394
O16   O     O_R   0.498910 0.350470 0.698130 -0.446423
O17   O     O_R   0.851560 0.501090 0.801870 -0.458474
O18   O     O_R   0.649530 0.148440 0.698130 -0.440871
O19   O     O_R   0.350470 0.498910 0.301870 -0.466106
O20   O     O_R   0.501090 0.851560 0.198130 -0.419994
O21   O     O_R   0.148440 0.649530 0.301870 -0.449692
O22   O     O_R   0.350470 0.498910 0.198130 -0.441444
O23   O     O_R   0.501090 0.851560 0.301870 -0.449592
O24   O     O_R   0.148440 0.649530 0.198130 -0.459347
O25   O     O_3   0.666667 0.333333 0.750000 -0.331776
O26   O     O_3   0.333333 0.666667 0.250000 -0.320404
O27   O     O_3   0.959651 0.635985 0.138195 -0.671967
H1    H     H_    0.967684 0.708791 0.121411 0.355666
O28   O     O_3   0.593213 0.842903 0.381750 -0.665321
H2    H     H_    0.672587 0.869079 0.397705 0.329772
O29   O     O_3   0.401384 0.325624 0.141820 -0.675658
H3    H     H_    0.422331 0.265386 0.129278 0.315440
O30   O     O_3   0.182321 0.749554 0.384217 -0.630471
H4    H     H_    0.256986 0.789077 0.404360 0.304042
O31   O     O_3   0.683466 0.017145 0.137746 -0.656620
H5    H     H_    0.742014 0.006037 0.117742 0.341478
O32   O     O_3   0.249413 0.407378 0.382310 -0.686541
H6    H     H_    0.195796 0.330882 0.400145 0.335000
O33   O     O_3   0.620968 0.945308 0.639241 -0.664164
H7    H     H_    0.689463 0.944823 0.622211 0.341031
O34   O     O_3   0.827485 0.576156 0.883231 -0.653517
H8    H     H_    0.752490 0.539126 0.903277 0.292954
O35   O     O_3   0.324800 0.394210 0.641370 -0.666146
H9    H     H_    0.252425 0.328693 0.624877 0.345223
O36   O     O_3   0.750537 0.149449 0.880706 -0.642698
H10   H     H_    0.800849 0.223395 0.900284 0.296123
O37   O     O_3   0.056002 0.676957 0.640378 -0.667078
H11   H     H_    0.051688 0.743742 0.623529 0.340482
O38   O     O_3   0.412708 0.250900 0.882776 -0.654894
H12   H     H_    0.445715 0.208577 0.902506 0.286737
H13   H     H_    0.858720 0.650532 0.056492 0.130409
H14   H     H_    0.613400 0.802028 0.471798 0.127742
H15   H     H_    0.345050 0.206815 0.057442 0.147726
H16   H     H_    0.186586 0.816050 0.472189 0.142467
H17   H     H_    0.802282 0.123940 0.055065 0.120327
H18   H     H_    0.188990 0.398166 0.472712 0.121844
H19   H     H_    0.621338 0.833501 0.558028 0.126318
H20   H     H_    0.826389 0.641464 0.970447 0.143543
H21   H     H_    0.212572 0.394194 0.559263 0.123771
H22   H     H_    0.820461 0.147276 0.968249 0.138970
H23   H     H_    0.159205 0.792502 0.558421 0.130507
H24   H     H_    0.347459 0.184165 0.970816 0.133897
O39   O     O_3   0.207596 0.458876 0.111823 -0.660544
H25   H     H_    0.270827 0.488233 0.086048 0.338766
O40   O     O_3   0.396334 0.081039 0.359706 -0.624813
H26   H     H_    0.435776 0.095877 0.327067 0.332141
O41   O     O_3   0.521580 0.739814 0.110192 -0.666145
H27   H     H_    0.489813 0.768250 0.083070 0.334164
O42   O     O_3   0.933727 0.319959 0.361270 -0.614675
H28   H     H_    0.981546 0.278204 0.365405 0.376003
O43   O     O_3   0.281897 0.960592 0.121745 -0.597383
H29   H     H_    0.313241 0.021002 0.148692 0.333954
O44   O     O_3   0.682981 0.631971 0.362229 -0.655096
H30   H     H_    0.740529 0.706781 0.380083 0.368522
O45   O     O_3   0.452922 0.202315 0.611961 -0.612250
H31   H     H_    0.495392 0.271818 0.589152 0.331693
O46   O     O_3   0.057648 0.374593 0.860686 -0.647154
H32   H     H_    0.031108 0.294539 0.876255 0.375636
O47   O     O_3   0.739346 0.520566 0.611108 -0.677846
H33   H     H_    0.763604 0.482446 0.585175 0.331287
O48   O     O_3   0.316803 0.949683 0.864693 -0.588583
H34   H     H_    0.272025 0.989257 0.877435 0.385000
O49   O     O_3   0.793247 0.255687 0.611252 -0.671251
H35   H     H_    0.734275 0.223480 0.583860 0.330386
O50   O     O_3   0.629147 0.683274 0.861500 -0.642877
H36   H     H_    0.709053 0.735238 0.877309 0.381020
O51   O     O_3   0.162762 0.317137 0.031736 -0.642397
H37   H     H_    0.117116 0.278440 0.062241 0.356519
O52   O     O_3   0.368571 0.187489 0.433676 -0.653230
H38   H     H_    0.439891 0.244611 0.413742 0.351515
O53   O     O_3   0.680578 0.843075 0.033316 -0.658283
H39   H     H_    0.714137 0.835820 0.065178 0.342114
O54   O     O_3   0.851618 0.181992 0.435327 -0.661533
H40   H     H_    0.800851 0.107692 0.454799 0.371713
O55   O     O_3   0.168994 0.869458 0.042949 -0.643939
H41   H     H_    0.114238 0.880747 0.020352 0.334896
O56   O     O_3   0.814376 0.611224 0.435741 -0.634369
H42   H     H_    0.787223 0.551397 0.408653 0.350694
O57   O     O_3   0.328221 0.172970 0.533976 -0.665152
H43   H     H_    0.279208 0.184560 0.508546 0.372065
O58   O     O_3   0.190743 0.370621 0.936225 -0.629060
H44   H     H_    0.232708 0.433438 0.910551 0.355224
O59   O     O_3   0.845861 0.661307 0.531296 -0.650506
H45   H     H_    0.844749 0.701987 0.562112 0.349585
O60   O     O_3   0.186874 0.840622 0.940578 -0.660736
H46   H     H_    0.124464 0.773990 0.960782 0.346059
O61   O     O_3   0.855216 0.157174 0.536162 -0.716902
H47   H     H_    0.896815 0.167123 0.568030 0.364600
O62   O     O_3   0.633607 0.819712 0.937207 -0.628648
H48   H     H_    0.571235 0.799824 0.911493 0.356604

loop_
_geom_bond_atom_site_label_1
_geom_bond_atom_site_label_2
_ccdc_geom_bond_type
C44   C49   A    
O52   H38   S    
C80   C92   A    
O35   H9    S    
C82   C94   A    
Cr2   O2    S    
C18   C21   A    
C22   C94   A    
O51   H37   S    
Cr4   O26   S    
C5    C56   S    
C43   O28   S    
O38   H12   S    
O30   H4    S    
Cr4   O19   S    
C38   C55   A    
C50   C79   A    
C12   C49   S    
Cr3   O25   S    
O57   H43   S    
C78   C90   A    
C31   C67   A    
C99   C108  A    
C20   C92   A    
C77   C89   A    
C99   O53   S    
C6    O4    A    
Cr2   O25   S    
C48   C72   A    
C41   C58   A    
Cr4   O10   S    
C76   O49   S    
C24   C96   A    
C1    O5    A    
Cr6   O12   S    
C102  O56   S    
Cr5   O11   S    
C86   C103  A    
C27   H24   S    
C98   C103  A    
C14   C62   A    
C96   C99   A    
O41   H27   S    
C102  C105  A    
C84   C96   A    
C37   O34   S    
C58   C77   A    
C41   O36   S    
C37   C56   A    
Cr1   O13   S    
C48   C51   A    
Cr5   O8    S    
O62   H48   S    
C94   C101  A    
C44   O27   S    
C89   C106  A    
C92   C97   A    
C9    O7    A    
O32   H6    S    
C19   C67   A    
Cr6   O26   S    
Cr2   O14   S    
C29   H22   S    
C30   H21   S    
C79   C91   A    
C30   C33   A    
C33   C69   A    
C32   C68   A    
C25   C32   A    
C106  O60   S    
C35   C71   A    
O50   H36   S    
C91   C98   A    
C40   C59   A    
C3    O15   A    
C32   H13   S    
C55   C74   A    
O45   H31   S    
C9    C52   S    
Cr4   O22   S    
C6    C55   S    
C33   H18   S    
C14   C19   A    
C42   C57   A    
C104  O58   S    
C100  O54   S    
Cr3   O15   S    
Cr1   O4    S    
O37   H11   S    
O55   H41   S    
C47   O30   S    
C87   C108  A    
C82   O43   S    
C45   C69   A    
O54   H40   S    
C18   C90   A    
C23   C71   A    
C98   O52   S    
C7    C54   S    
C17   C89   A    
C28   C35   A    
C6    O18   A    
C1    C60   S    
C97   O51   S    
O60   H46   S    
C88   C107  A    
C2    O6    A    
C95   C100  A    
C41   C65   A    
O48   H34   S    
C101  O55   S    
O59   H45   S    
O53   H39   S    
C38   C62   A    
C8    O20   A    
C29   C34   A    
C36   H15   S    
C7    O11   A    
O46   H32   S    
C21   C69   A    
C53   C82   A    
C45   O32   S    
C78   O47   S    
C5    O3    A    
Cr2   O5    S    
C52   C83   A    
O42   H28   S    
O56   H42   S    
O61   H47   S    
C16   C64   A    
C74   O45   S    
C81   C93   A    
C11   O23   A    
C37   C61   A    
O36   H10   S    
C12   O10   A    
C31   H14   S    
C5    O17   A    
Cr6   O21   S    
C83   C95   A    
C48   O29   S    
C35   H16   S    
C81   O44   S    
Cr5   O26   S    
C83   O42   S    
Cr2   O17   S    
C43   C50   A    
C25   C61   A    
C74   C86   A    
C85   C104  A    
C14   C86   A    
C30   C66   A    
C34   H17   S    
C27   C63   A    
C29   C65   A    
Cr6   O9    S    
C28   C64   A    
C25   H20   S    
C8    O12   A    
C15   C24   A    
C45   C54   A    
O47   H33   S    
C16   C23   A    
C105  O59   S    
Cr5   O20   S    
C12   O24   A    
C44   C68   A    
C42   O35   S    
C47   C71   A    
C39   O38   S    
C9    O21   A    
O29   H3    S    
Cr1   O16   S    
C24   C72   A    
C15   C87   A    
C73   C85   A    
C75   C87   A    
C101  C106  A    
C108  O62   S    
C76   C88   A    
C84   O41   S    
C100  C107  A    
C56   C73   A    
C13   C20   A    
C2    C59   S    
C93   C102  A    
C57   C78   A    
C20   C68   A    
C11   O9    A    
C103  O57   S    
C1    O13   A    
C90   C105  A    
C10   O22   A    
C10   O8    A    
C8    C53   S    
C26   H19   S    
C4    O16   A    
C28   H23   S    
C7    O19   A    
C47   C52   A    
C75   O50   S    
C27   C36   A    
C18   C66   A    
C39   C63   A    
C60   C75   A    
C17   C65   A    
C17   C22   A    
C40   C64   A    
C49   C80   A    
Cr3   O3    S    
Cr1   O25   S    
Cr5   O23   S    
C10   C51   S    
C80   O39   S    
C26   C62   A    
C4    O2    A    
Cr4   O7    S    
C11   C50   S    
C3    O1    A    
O27   H1    S    
O43   H29   S    
C21   C93   A    
C39   C60   A    
C59   C76   A    
C46   C53   A    
C42   C66   A    
C23   C95   A    
C79   O40   S    
Cr6   O24   S    
O58   H44   S    
C77   O48   S    
O49   H35   S    
C46   C70   A    
C97   C104  A    
C19   C91   A    
Cr1   O1    S    
O40   H26   S    
C3    C58   S    
C36   C72   A    
Cr3   O18   S    
C26   C31   A    
C46   O31   S    
C13   C61   A    
C43   C67   A    
O39   H25   S    
C13   C85   A    
O34   H8    S    
C16   C88   A    
C15   C63   A    
Cr3   O6    S    
O44   H30   S    
C34   C70   A    
C38   O33   S    
C107  O61   S    
O33   H7    S    
O31   H5    S    
C51   C84   A    
C22   C70   A    
C54   C81   A    
O28   H2    S    
C4    C57   S    
C40   O37   S    
C73   O46   S    
C2    O14   A    
