data_mof_unit_9956.cif
_audit_creation_date              2012-12-10T20:27:11-0500
_audit_creation_method            fapswitch 2.2
_symmetry_space_group_name_H-M    P1
_symmetry_Int_Tables_number       1
_space_group_crystal_system       triclinic
_cell_length_a                    10.658664
_cell_length_b                    10.66581
_cell_length_c                    9.880691
_cell_angle_alpha                 90.169612
_cell_angle_beta                  103.014701
_cell_angle_gamma                 90.259332
_cell_volume                      1094.3948808

loop_
_atom_site_label
_atom_site_type_symbol
_atom_type_description
_atom_site_fract_x
_atom_site_fract_y
_atom_site_fract_z
_atom_type_partial_charge
C1    C     C_R   0.498215 0.260142 0.499656 0.879504
C2    C     C_R   0.499579 0.609363 0.072043 -0.016631
C3    C     C_R   0.500114 0.609382 0.928524 -0.092366
C4    C     C_R   0.258391 0.505065 0.443205 0.922070
C5    C     C_R   0.508560 0.390385 0.930643 0.133057
C6    C     C_3   0.417030 0.281629 0.904770 0.205156
C7    C     C_3   0.422250 0.280378 0.059648 -0.547097
C8    C     C_R   0.497185 0.739724 0.499666 0.911307
C9    C     C_R   0.741112 0.508373 0.556692 0.976956
C10   C     C_2   0.121987 0.531118 0.414901 -0.278288
C11   C     C_2   0.072919 0.574575 0.519045 -0.251689
C12   C     C_R   0.486516 0.128242 0.499342 -0.076679
C13   C     C_2   0.878836 0.526472 0.586520 -0.475343
C14   C     C_2   0.936408 0.590971 0.500428 0.429175
C15   C     C_R   0.530672 0.064178 0.623091 0.125527
C16   C     C_R   0.423280 0.064146 0.379239 -0.205145
C17   C     C_R   0.423429 0.934339 0.378952 -0.186928
C18   C     C_R   0.485053 0.871345 0.499637 -0.063319
C19   C     C_R   0.529305 0.936368 0.623415 0.105781
C20   C     C_3   0.657420 0.928974 0.722907 -0.437749
C21   C     C_3   0.659497 0.071044 0.721742 -0.478387
C22   C     C_R   0.510693 0.390487 0.073460 0.171260
Cl1   Cl    Cl    0.261039 0.321080 0.803943 -0.597341
H1    H     H_    0.735428 0.110955 0.673333 0.213915
H2    H     H_    0.378263 0.113683 0.285692 0.163588
H3    H     H_    0.380319 0.883918 0.284424 0.163716
H4    H     H_    0.649826 0.889257 0.824669 0.208297
H5    H     H_    0.732703 0.885952 0.676118 0.230583
H6    H     H_    0.654735 0.113260 0.823349 0.200643
H7    H     H_    0.001845 0.840521 0.408191 0.351459
H8    H     H_    0.497497 0.697710 0.125298 0.156758
H9    H     H_    0.498425 0.697711 0.874877 0.142144
H10   H     H_    0.459035 0.196628 0.867835 0.115337
H11   H     H_    0.329711 0.302816 0.088248 0.244238
H12   H     H_    0.472411 0.196522 0.111679 0.177471
H13   H     H_    0.131366 0.586421 0.623802 0.194678
H14   H     H_    0.935955 0.476389 0.674851 0.168021
H15   H     H_    0.062704 0.517794 0.310897 0.196565
N1    N     N_R   0.499160 0.499140 0.142600 -0.091856
N2    N     N_R   0.499160 0.499180 0.856960 -0.085681
O1    O     O_R   0.500020 0.316790 0.614700 -0.604094
O2    O     O_2   0.757658 0.769199 0.413536 -0.336008
O3    O     O_3   0.966980 0.791011 0.322922 -0.526059
O4    O     O_R   0.500000 0.316760 0.385350 -0.628004
O5    O     O_R   0.317820 0.500020 0.571850 -0.562707
O6    O     O_R   0.317800 0.499980 0.342510 -0.622930
O7    O     O_R   0.500000 0.683240 0.614650 -0.646049
O8    O     O_R   0.499980 0.683210 0.385300 -0.597141
O9    O     O_R   0.682200 0.500020 0.657490 -0.617106
O10   O     O_R   0.682180 0.499980 0.428150 -0.539605
O11   O     O_2   0.795970 0.618051 0.239894 -0.267435
S1    S     S_3+6 0.858187 0.693272 0.366194 0.036038
Zn1   Zn    Zn3+2 0.500010 0.500020 0.653140 0.993721
Zn2   Zn    Zn3+2 0.499990 0.499980 0.346860 1.014672

loop_
_geom_bond_atom_site_label_1
_geom_bond_atom_site_label_2
_ccdc_geom_bond_type
O8    Zn2   S    
C6    H10   S    
C6    C7    S    
C20   H4    S    
C7    C22   S    
C9    O10   A    
C1    O4    A    
C13   H14   S    
C19   C20   S    
C12   C15   A    
O7    Zn1   S    
C10   H15   S    
O6    Zn2   S    
C8    O8    A    
C2    C3    A    
C8    O7    A    
O5    Zn1   S    
C3    H9    S    
C4    O6    A    
C13   C14   D    
C15   C19   A    
O1    Zn1   S    
O10   Zn2   S    
C1    C12   S    
C21   H6    S    
O9    Zn1   S    
C17   H3    S    
C1    O1    A    
C11   H13   S    
C11   C14   S    
C3    N2    A    
C17   C18   A    
C4    O5    A    
C5    C6    S    
H7    O3    S    
C7    H11   S    
C14   S1    S    
O3    S1    S    
C21   H1    S    
N1    Zn2   S    
C10   C11   D    
C6    Cl1   S    
C4    C10   S    
O11   S1    D    
O4    Zn2   S    
C15   C21   S    
C9    O9    A    
C20   C21   S    
C18   C19   A    
N2    Zn1   S    
C5    N2    A    
C16   H2    S    
C9    C13   S    
C16   C17   A    
C20   H5    S    
C22   N1    A    
C7    H12   S    
C2    N1    A    
C8    C18   S    
C5    C22   A    
C12   C16   A    
O2    S1    D    
C2    H8    S    
