data_mof_unit_27333.cif
_audit_creation_date              2012-12-11T17:17:02-0500
_audit_creation_method            fapswitch 2.2
_symmetry_space_group_name_H-M    P1
_symmetry_Int_Tables_number       1
_space_group_crystal_system       triclinic
_cell_length_a                    6.965345
_cell_length_b                    13.386915
_cell_length_c                    14.720903
_cell_angle_alpha                 99.161563
_cell_angle_beta                  89.175592
_cell_angle_gamma                 90.784947
_cell_volume                      1354.90179985

loop_
_atom_site_label
_atom_site_type_symbol
_atom_type_description
_atom_site_fract_x
_atom_site_fract_y
_atom_site_fract_z
_atom_type_partial_charge
O1    O     O_R   0.354890 0.151580 0.148210 -0.536534
O2    O     O_R   0.645110 0.848420 0.851790 -0.536534
O3    O     O_R   0.682370 0.152980 0.336770 -0.520583
O4    O     O_R   0.317630 0.847020 0.663230 -0.520582
O5    O     O_R   0.854980 0.348430 0.351800 -0.538120
O6    O     O_R   0.145020 0.651570 0.648200 -0.538120
C1    C     C_R   0.512760 0.131803 0.366207 0.814738
C2    C     C_R   0.487240 0.868197 0.633793 0.814737
O7    O     O_R   0.684450 0.139580 0.148000 -0.537181
O8    O     O_R   0.315550 0.860420 0.852000 -0.537181
O9    O     O_R   0.857080 0.334940 0.161680 -0.530790
O10   O     O_R   0.142920 0.665060 0.838320 -0.530790
C3    C     C_R   0.515719 0.112732 0.114104 0.775203
C4    C     C_R   0.484281 0.887267 0.885896 0.775203
O11   O     O_R   0.352790 0.165070 0.338330 -0.548446
O12   O     O_R   0.647210 0.834930 0.661670 -0.548447
O13   O     O_3   0.522170 0.314120 0.254710 -0.364294
O14   O     O_3   0.477830 0.685880 0.745290 -0.364293
V1    V     V_3+5 0.796120 0.238110 0.249130 1.569865
V2    V     V_3+5 0.203880 0.761890 0.750870 1.569864
O15   O     O_R   0.186930 0.347040 0.163240 -0.516723
O16   O     O_R   0.813070 0.652960 0.836760 -0.516723
C5    C     C_R   0.020012 0.367462 0.132691 0.789025
C6    C     C_R   0.979988 0.632538 0.867309 0.789025
O17   O     O_R   0.184850 0.360440 0.352010 -0.543429
O18   O     O_R   0.815150 0.639560 0.647990 -0.543429
C7    C     C_R   0.015708 0.387283 0.385912 0.742485
C8    C     C_R   0.984292 0.612717 0.614087 0.742485
V3    V     V_3+5 0.296410 0.261900 0.250880 1.562882
V4    V     V_3+5 0.703590 0.738100 0.749120 1.562882
O19   O     O_3   0.020490 0.185890 0.245290 -0.379056
O20   O     O_3   0.979510 0.814110 0.754710 -0.379057
C9    C     C_1   0.004999 0.466886 0.466318 -0.138110
C10   C     C_1   0.995001 0.533114 0.533682 -0.138110
C11   C     C_3   0.175378 0.534192 0.981029 0.267473
C12   C     C_3   0.824622 0.465808 0.018971 0.267473
C13   C     C_3   0.079383 0.550067 0.078224 -0.310934
C14   C     C_3   0.920617 0.449933 0.921776 -0.310934
H1    H     H_    0.143290 0.591447 0.142243 0.185460
H2    H     H_    0.856710 0.408553 0.857757 0.185461
C15   C     C_3   0.013256 0.437314 0.061888 -0.189562
C16   C     C_3   0.986744 0.562686 0.938112 -0.189562
C17   C     C_3   0.108330 0.422656 0.965858 0.374403
C18   C     C_3   0.891670 0.577344 0.034142 0.374403
C19   C     C_3   0.324685 0.034102 0.490051 0.287878
C20   C     C_3   0.675315 0.965898 0.509949 0.287874
C21   C     C_3   0.383028 0.922293 0.473081 0.257174
C22   C     C_3   0.616972 0.077707 0.526919 0.257175
C23   C     C_3   0.496125 0.938134 0.563842 -0.305256
C24   C     C_3   0.503875 0.061866 0.436158 -0.305254
C25   C     C_3   0.436558 0.051286 0.581224 0.166861
C26   C     C_3   0.563442 0.948714 0.418776 0.166855
C27   C     C_1   0.505161 0.033109 0.033683 -0.121903
C28   C     C_1   0.494839 0.966891 0.966317 -0.121903
Br1   Br    Br    0.420608 0.593624 0.953486 -0.450753
Br2   Br    Br    0.579392 0.406376 0.046514 -0.450752
O21   O     O_3   0.220116 0.339508 0.929635 -0.588098
H3    H     H_    0.264079 0.352763 0.868282 0.336099
O22   O     O_3   0.779884 0.660492 0.070365 -0.588098
H4    H     H_    0.735921 0.647237 0.131718 0.336099
O23   O     O_3   0.258224 0.840743 0.445577 -0.592599
H5    H     H_    0.207679 0.851737 0.385398 0.333832
O24   O     O_3   0.741775 0.159258 0.554423 -0.592600
H6    H     H_    0.792337 0.148258 0.614597 0.333834
O25   O     O_3   0.140178 0.070329 0.480174 -0.578824
H7    H     H_    0.101934 0.042156 0.416547 0.325895
O26   O     O_3   0.859822 0.929671 0.519826 -0.578821
H8    H     H_    0.898064 0.957841 0.583454 0.325892
Br3   Br    Br    0.344946 0.126775 0.696597 -0.498072
Br4   Br    Br    0.655054 0.873225 0.303403 -0.498075

loop_
_geom_bond_atom_site_label_1
_geom_bond_atom_site_label_2
_ccdc_geom_bond_type
V4    O20   S    
C6    C16   S    
O4    C2    A    
V1    O19   S    
C21   C23   S    
C27   C28   T    
C7    C9    S    
C20   C23   S    
O9    V1    S    
C11   C13   S    
C14   C16   S    
O3    C1    A    
C19   C25   S    
C18   O22   S    
O12   V4    S    
C20   C26   S    
O13   V3    S    
O9    C5    A    
C11   C16   S    
O7    C3    A    
O5    C7    A    
O7    V1    S    
C22   C25   S    
O6    C8    A    
O8    V2    S    
C23   C25   S    
C24   C26   S    
O3    V1    S    
O14   V4    S    
C11   C17   S    
C22   C24   S    
C8    C10   S    
O22   H4    S    
C2    O12   A    
C15   C17   S    
C12   C15   S    
C16   C18   S    
O11   V3    S    
C3    C27   S    
C19   C21   S    
O17   V3    S    
C20   C22   S    
C11   Br1   S    
O26   H8    S    
O8    C4    A    
C22   O24   S    
O15   V3    S    
C12   Br2   S    
O10   V2    S    
O1    V3    S    
C9    C10   T    
C4    C28   S    
O18   V4    S    
O15   C5    A    
C19   O25   S    
O16   C6    A    
C12   C18   S    
O1    C3    A    
V2    O20   S    
O16   V4    S    
C1    C24   S    
C21   O23   S    
C21   C26   S    
O5    V1    S    
O17   C7    A    
O6    V2    S    
O10   C6    A    
O18   C8    A    
C5    C15   S    
O2    V4    S    
C13   C18   S    
C12   C14   S    
C20   O26   S    
V3    O19   S    
C14   H2    S    
O21   H3    S    
C19   C24   S    
C1    O11   A    
O13   V1    S    
O14   V2    S    
C13   C15   S    
O23   H5    S    
O2    C4    A    
C26   Br4   S    
C17   O21   S    
O24   H6    S    
O4    V2    S    
C14   C17   S    
C13   H1    S    
O25   H7    S    
C25   Br3   S    
C2    C23   S    
