data_mof_unit_30640.cif
_audit_creation_date              2013-03-05T15:50:27-0500
_audit_creation_method            fapswitch 2.2
_symmetry_space_group_name_H-M    P1
_symmetry_Int_Tables_number       1
_space_group_crystal_system       triclinic
_cell_length_a                    18.30575
_cell_length_b                    25.882766
_cell_length_c                    18.279641
_cell_angle_alpha                 90.009497
_cell_angle_beta                  90.179186
_cell_angle_gamma                 89.986718
_cell_volume                      8660.91415044

loop_
_atom_site_label
_atom_site_type_symbol
_atom_site_description
_atom_site_fract_x
_atom_site_fract_y
_atom_site_fract_z
_atom_type_partial_charge
Zn1   Zn    Zn3+2 0.249990 0.293780 0.913250 0.952967
Zn2   Zn    Zn3+2 0.249990 0.706220 0.086750 0.958226
Zn3   Zn    Zn3+2 0.249990 0.706220 0.913250 0.953299
Zn4   Zn    Zn3+2 0.249990 0.293780 0.086750 0.965147
Zn5   Zn    Zn3+2 0.749990 0.793780 0.413250 0.954348
Zn6   Zn    Zn3+2 0.749990 0.206220 0.586750 0.957101
Zn7   Zn    Zn3+2 0.749990 0.206220 0.413250 0.954651
Zn8   Zn    Zn3+2 0.749990 0.793780 0.586750 0.963931
Zn9   Zn    Zn3+2 0.336760 0.206240 0.000000 0.958613
Zn10  Zn    Zn3+2 0.336760 0.793760 0.000000 0.962698
Zn11  Zn    Zn3+2 0.836760 0.706240 0.500000 0.958671
Zn12  Zn    Zn3+2 0.836760 0.293760 0.500000 0.962748
Zn13  Zn    Zn3+2 0.163250 0.206230 0.000000 0.961211
Zn14  Zn    Zn3+2 0.163250 0.793770 0.000000 0.979252
Zn15  Zn    Zn3+2 0.663250 0.706230 0.500000 0.961044
Zn16  Zn    Zn3+2 0.663250 0.293770 0.500000 0.979152
O1    O     O_3   0.249990 0.250010 0.000000 -0.488777
O2    O     O_3   0.249990 0.749990 0.000000 -0.491372
O3    O     O_3   0.749990 0.750010 0.500000 -0.488752
O4    O     O_3   0.749990 0.249990 0.500000 -0.491379
O5    O     O_R   0.335430 0.280650 0.146160 -0.627326
O6    O     O_R   0.335430 0.719350 0.853840 -0.636580
O7    O     O_R   0.335430 0.719350 0.146160 -0.633707
O8    O     O_R   0.335430 0.280650 0.853840 -0.639355
O9    O     O_R   0.835430 0.780650 0.646160 -0.627391
O10   O     O_R   0.835430 0.219350 0.353840 -0.636398
O11   O     O_R   0.835430 0.219350 0.646160 -0.633691
O12   O     O_R   0.835430 0.780650 0.353840 -0.639175
O13   O     O_R   0.164550 0.280640 0.853840 -0.637009
O14   O     O_R   0.164550 0.719360 0.146160 -0.640004
O15   O     O_R   0.164550 0.719360 0.853840 -0.645717
O16   O     O_R   0.164550 0.280640 0.146160 -0.634879
O17   O     O_R   0.664550 0.780640 0.353840 -0.636812
O18   O     O_R   0.664550 0.219360 0.646160 -0.640218
O19   O     O_R   0.664550 0.219360 0.353840 -0.645492
O20   O     O_R   0.664550 0.780640 0.646160 -0.635066
O21   O     O_R   0.396160 0.219380 0.914560 -0.635948
O22   O     O_R   0.396160 0.780620 0.085440 -0.637166
O23   O     O_R   0.396160 0.780620 0.914560 -0.631708
O24   O     O_R   0.396160 0.219380 0.085440 -0.642257
O25   O     O_R   0.896160 0.719380 0.414560 -0.636011
O26   O     O_R   0.896160 0.280620 0.585440 -0.637183
O27   O     O_R   0.896160 0.280620 0.414560 -0.631739
O28   O     O_R   0.896160 0.719380 0.585440 -0.642260
O29   O     O_R   0.103840 0.219370 0.085450 -0.631375
O30   O     O_R   0.103840 0.780630 0.914550 -0.616162
O31   O     O_R   0.103840 0.780630 0.085450 -0.634553
O32   O     O_R   0.103840 0.219370 0.914550 -0.638502
O33   O     O_R   0.603840 0.719370 0.585450 -0.631381
O34   O     O_R   0.603840 0.280630 0.414550 -0.616279
O35   O     O_R   0.603840 0.280630 0.585450 -0.634493
O36   O     O_R   0.603840 0.719370 0.414550 -0.638653
O37   O     O_R   0.310730 0.133160 0.000000 -0.639254
O38   O     O_R   0.310730 0.866840 0.000000 -0.641076
O39   O     O_R   0.810730 0.633160 0.500000 -0.639193
O40   O     O_R   0.810730 0.366840 0.500000 -0.641026
O41   O     O_R   0.249970 0.366860 0.060720 -0.641473
O42   O     O_R   0.249970 0.633140 0.939280 -0.647108
O43   O     O_R   0.249970 0.633140 0.060720 -0.640792
O44   O     O_R   0.249970 0.366860 0.939280 -0.646233
O45   O     O_R   0.749970 0.866860 0.560720 -0.644823
O46   O     O_R   0.749970 0.133140 0.439280 -0.644062
O47   O     O_R   0.749970 0.133140 0.560720 -0.644040
O48   O     O_R   0.749970 0.866860 0.439280 -0.643074
O49   O     O_R   0.189290 0.133150 0.000000 -0.639714
O50   O     O_R   0.189290 0.866850 0.000000 -0.631193
O51   O     O_R   0.689290 0.633150 0.500000 -0.639819
O52   O     O_R   0.689290 0.366850 0.500000 -0.631255
C1    C     C_R   0.389789 0.250072 0.139740 0.784906
C2    C     C_R   0.389811 0.749945 0.860191 0.788023
C3    C     C_R   0.389677 0.750059 0.139824 0.785327
C4    C     C_R   0.389823 0.250030 0.860140 0.782038
C5    C     C_R   0.889798 0.750080 0.639732 0.785043
C6    C     C_R   0.889808 0.249946 0.360189 0.787902
C7    C     C_R   0.889681 0.250056 0.639820 0.785467
C8    C     C_R   0.889829 0.750035 0.360146 0.781967
C9    C     C_R   0.110259 0.250055 0.860168 0.783296
C10   C     C_R   0.110208 0.749996 0.139840 0.778740
C11   C     C_R   0.110225 0.749864 0.860213 0.788155
C12   C     C_R   0.110188 0.250038 0.139819 0.787480
C13   C     C_R   0.610266 0.750048 0.360162 0.783212
C14   C     C_R   0.610215 0.250002 0.639846 0.778808
C15   C     C_R   0.610231 0.249871 0.360206 0.787990
C16   C     C_R   0.610186 0.750039 0.639817 0.787611
C17   C     C_R   0.249942 0.109316 0.999662 0.788512
C18   C     C_R   0.249925 0.890675 0.999818 0.781374
C19   C     C_R   0.749942 0.609317 0.499665 0.788558
C20   C     C_R   0.749924 0.390675 0.499808 0.781391
C21   C     C_R   0.249975 0.391404 0.999913 0.742649
C22   C     C_R   0.249984 0.608596 0.999904 0.743241
C23   C     C_R   0.749970 0.891404 0.500098 0.742465
C24   C     C_R   0.749978 0.108596 0.500090 0.743182
C25   C     C_3   0.181102 0.470120 0.038906 -0.393120
C26   C     C_3   0.250055 0.529685 0.920001 -0.376902
C27   C     C_3   0.181109 0.529909 0.038900 -0.392315
C28   C     C_3   0.250045 0.470296 0.920008 -0.376354
C29   C     C_3   0.750037 0.970314 0.580016 -0.371757
C30   C     C_3   0.681099 0.029900 0.460668 -0.393183
C31   C     C_3   0.750047 0.029705 0.580009 -0.371770
C32   C     C_3   0.681090 0.970111 0.460682 -0.393817
H1    H     H_    0.179581 0.455899 0.096337 0.188398
H2    H     H_    0.299142 0.543831 0.890288 0.182115
H3    H     H_    0.179593 0.544145 0.096329 0.187917
H4    H     H_    0.299125 0.456120 0.890290 0.182124
H5    H     H_    0.799120 0.956147 0.610040 0.191349
H6    H     H_    0.679588 0.044116 0.403224 0.186633
H7    H     H_    0.799138 0.043858 0.610026 0.192303
H8    H     H_    0.679564 0.955869 0.403247 0.186806
H9    H     H_    0.130963 0.455714 0.010996 0.152033
H10   H     H_    0.201015 0.543851 0.889905 0.181773
H11   H     H_    0.130973 0.544320 0.010983 0.152943
H12   H     H_    0.200999 0.456144 0.889918 0.181705
H13   H     H_    0.700992 0.956170 0.609800 0.181356
H14   H     H_    0.630960 0.044325 0.488254 0.152700
H15   H     H_    0.701012 0.043880 0.609800 0.180934
H16   H     H_    0.630951 0.955719 0.488286 0.151898
H17   H     H_    0.179447 0.904771 0.880845 0.166945
H18   H     H_    0.178976 0.095079 0.881120 0.137973
H19   H     H_    0.679456 0.404778 0.380827 0.166792
H20   H     H_    0.679091 0.595089 0.381067 0.137868
H21   H     H_    0.320261 0.455884 0.096890 0.195070
H22   H     H_    0.369014 0.544282 0.011896 0.156516
H23   H     H_    0.320287 0.544132 0.096867 0.196011
H24   H     H_    0.369005 0.455673 0.011929 0.156046
H25   H     H_    0.868988 0.955680 0.488879 0.158708
H26   H     H_    0.820272 0.044102 0.403585 0.186477
H27   H     H_    0.868998 0.044287 0.488865 0.159318
H28   H     H_    0.820261 0.955854 0.403594 0.186469
C33   C     C_3   0.318827 0.470099 0.039444 -0.382961
C34   C     C_3   0.318837 0.529891 0.039429 -0.380819
C35   C     C_3   0.818817 0.970091 0.461025 -0.390490
C36   C     C_3   0.818824 0.029881 0.461018 -0.391405
C37   C     C_3   0.249990 0.449154 0.999590 0.182875
C38   C     C_3   0.249998 0.550846 0.999578 0.181756
C39   C     C_3   0.749978 0.949154 0.500436 0.185838
C40   C     C_3   0.749986 0.050846 0.500423 0.185829
H29   H     H_    0.910565 0.363582 0.935319 0.121342
H30   H     H_    0.875938 0.701719 0.029891 0.143598
H31   H     H_    0.189556 0.857593 0.655834 0.111752
H32   H     H_    0.918910 0.373480 0.073465 0.119211
H33   H     H_    0.687640 0.640281 0.157027 0.125002
H34   H     H_    0.376000 0.201633 0.529896 0.143580
H35   H     H_    0.689355 0.357821 0.155970 0.111612
H36   H     H_    0.676345 0.626475 0.831164 0.121850
C41   C     C_R   0.129907 0.192733 0.727459 -0.188438
C42   C     C_R   0.145610 0.776987 0.288303 -0.140148
C43   C     C_R   0.980311 0.689226 0.877530 -0.146489
C44   C     C_R   0.123119 0.184339 0.265563 -0.137398
C45   C     C_R   0.480032 0.810269 0.378064 -0.138879
C46   C     C_R   0.645600 0.277009 0.788314 -0.140361
C47   C     C_R   0.480432 0.189108 0.377437 -0.146274
C48   C     C_R   0.484863 0.816071 0.627159 -0.143368
C49   C     C_R   0.138734 0.163179 0.664349 -0.155456
C50   C     C_R   0.163714 0.789126 0.360288 -0.142220
C51   C     C_R   0.917762 0.659133 0.885931 -0.157732
C52   C     C_R   0.129755 0.152018 0.326188 -0.133474
C53   C     C_R   0.417548 0.840441 0.386546 -0.135497
C54   C     C_R   0.663683 0.289180 0.860294 -0.142259
C55   C     C_R   0.417938 0.158952 0.385798 -0.157367
C56   C     C_R   0.424397 0.848495 0.620616 -0.138894
C57   C     C_R   0.364264 0.841090 0.332215 -0.166870
C58   C     C_R   0.610244 0.288937 0.913904 -0.144566
C59   C     C_R   0.364118 0.159037 0.331994 -0.143586
C60   C     C_R   0.370785 0.848504 0.674297 -0.138593
C61   C     C_R   0.084227 0.162282 0.611315 -0.092484
C62   C     C_R   0.110289 0.788857 0.413910 -0.144517
C63   C     C_R   0.863937 0.659234 0.832132 -0.143560
C64   C     C_R   0.075997 0.151870 0.379725 -0.139998
C65   C     C_R   0.372825 0.811189 0.269420 -0.152339
C66   C     C_R   0.538346 0.276704 0.895828 -0.142844
C67   C     C_R   0.372588 0.189166 0.269423 -0.141814
C68   C     C_R   0.377262 0.816038 0.734791 -0.141688
C69   C     C_R   0.020562 0.190938 0.621068 -0.129950
C70   C     C_R   0.038381 0.776647 0.395840 -0.142697
C71   C     C_R   0.872468 0.689307 0.769516 -0.141824
C72   C     C_R   0.015331 0.184091 0.373008 -0.144233
C73   C     C_R   0.435891 0.780266 0.259518 0.078769
C74   C     C_R   0.518756 0.262809 0.823285 0.073196
C75   C     C_R   0.435887 0.219830 0.259436 0.076587
C76   C     C_R   0.438314 0.782854 0.742806 0.074110
C77   C     C_R   0.010109 0.220978 0.684990 0.074028
C78   C     C_R   0.018770 0.762785 0.323289 0.073226
C79   C     C_R   0.935828 0.719901 0.759482 0.076580
C80   C     C_R   0.007245 0.217193 0.311816 0.073673
C81   C     C_R   0.065197 0.221527 0.739152 0.080230
C82   C     C_R   0.073242 0.762851 0.268766 0.073404
C83   C     C_R   0.990449 0.719837 0.814145 0.075587
C84   C     C_R   0.061846 0.217292 0.257346 0.073059
C85   C     C_R   0.490378 0.780036 0.314317 0.073015
C86   C     C_R   0.573237 0.262866 0.768770 0.073332
C87   C     C_R   0.490511 0.219773 0.314097 0.075637
C88   C     C_R   0.492865 0.782898 0.688288 0.073823
C89   C     C_R   0.445868 0.750185 0.195840 -0.147120
C90   C     C_R   0.445967 0.250097 0.803987 -0.158628
C91   C     C_R   0.445884 0.250020 0.195882 -0.146945
C92   C     C_R   0.445900 0.749925 0.804032 -0.147745
C93   C     C_R   0.945870 0.250186 0.695837 -0.147285
C94   C     C_R   0.945972 0.750093 0.303992 -0.158479
C95   C     C_R   0.945889 0.750027 0.695878 -0.147092
C96   C     C_R   0.945897 0.249923 0.304028 -0.147576
C97   C     C_R   0.510086 0.720950 0.185005 0.074010
C98   C     C_R   0.426834 0.237463 0.731026 0.073085
C99   C     C_R   0.510099 0.279301 0.185242 0.079416
C100  C     C_R   0.507152 0.717089 0.811719 0.073684
C101  C     C_R   0.935873 0.280250 0.759526 0.078799
C102  C     C_R   0.926828 0.737472 0.231031 0.073147
C103  C     C_R   0.010159 0.779244 0.685198 0.079316
C104  C     C_R   0.938218 0.282749 0.242705 0.074100
C105  C     C_R   0.990352 0.280018 0.814333 0.073003
C106  C     C_R   0.981404 0.737286 0.176619 0.072956
C107  C     C_R   0.065547 0.778162 0.739037 0.099523
C108  C     C_R   0.992776 0.282797 0.188193 0.073835
C109  C     C_R   0.565176 0.721494 0.239165 0.080029
C110  C     C_R   0.481419 0.237268 0.676624 0.072923
C111  C     C_R   0.565490 0.278231 0.239079 0.099470
C112  C     C_R   0.561742 0.717179 0.757240 0.073075
C113  C     C_R   0.054276 0.250346 0.803858 -0.147627
C114  C     C_R   0.054126 0.749990 0.195941 -0.156725
C115  C     C_R   0.054399 0.749475 0.803783 -0.140584
C116  C     C_R   0.054112 0.250063 0.195980 -0.147167
C117  C     C_R   0.554281 0.750340 0.303853 -0.147490
C118  C     C_R   0.554133 0.249989 0.695948 -0.156877
C119  C     C_R   0.554402 0.249482 0.303779 -0.140489
C120  C     C_R   0.554107 0.750061 0.695976 -0.147349
C121  C     C_R   0.520518 0.690894 0.121094 -0.130368
C122  C     C_R   0.354358 0.223876 0.711145 -0.142688
C123  C     C_R   0.520196 0.309994 0.121932 -0.131919
C124  C     C_R   0.515156 0.683897 0.872828 -0.144471
C125  C     C_R   0.872796 0.311161 0.769429 -0.152304
C126  C     C_R   0.854349 0.723884 0.211161 -0.142439
C127  C     C_R   0.020307 0.809893 0.621855 -0.131960
C128  C     C_R   0.877074 0.315832 0.234593 -0.141635
C129  C     C_R   0.584170 0.662224 0.111341 -0.091729
C130  C     C_R   0.336413 0.211904 0.639030 -0.143795
C131  C     C_R   0.584158 0.338300 0.112071 -0.152981
C132  C     C_R   0.575724 0.651570 0.879444 -0.140488
C133  C     C_R   0.864217 0.341049 0.832231 -0.166925
C134  C     C_R   0.836386 0.711934 0.139043 -0.143661
C135  C     C_R   0.084313 0.838147 0.611967 -0.153188
C136  C     C_R   0.870519 0.348211 0.174015 -0.138335
C137  C     C_R   0.917488 0.340393 0.886573 -0.135778
C138  C     C_R   0.890060 0.711511 0.085691 -0.141701
C139  C     C_R   0.139811 0.835797 0.663893 -0.133074
C140  C     C_R   0.924143 0.348210 0.120346 -0.138398
C141  C     C_R   0.638678 0.663112 0.164376 -0.154209
C142  C     C_R   0.390103 0.211454 0.585692 -0.141797
C143  C     C_R   0.639653 0.335974 0.164001 -0.133263
C144  C     C_R   0.629459 0.651695 0.825884 -0.133682
C145  C     C_R   0.979980 0.310229 0.878094 -0.139081
C146  C     C_R   0.961991 0.723274 0.104066 -0.139914
C147  C     C_R   0.130861 0.806210 0.726919 -0.069983
C148  C     C_R   0.984695 0.315881 0.126980 -0.143123
C149  C     C_R   0.629865 0.692672 0.227484 -0.188838
C150  C     C_R   0.462026 0.223227 0.604076 -0.140057
C151  C     C_R   0.630751 0.306348 0.226999 -0.070178
C152  C     C_R   0.622910 0.684112 0.765348 -0.137463
H37   H     H_    0.173619 0.191906 0.767432 0.108588
H38   H     H_    0.189034 0.779206 0.248507 0.133154
H39   H     H_    0.020806 0.687784 0.920745 0.106935
H40   H     H_    0.166329 0.183106 0.225311 0.110390
H41   H     H_    0.520237 0.811280 0.421585 0.111353
H42   H     H_    0.689034 0.279208 0.748527 0.133211
H43   H     H_    0.520929 0.187673 0.420652 0.106928
H44   H     H_    0.525185 0.817424 0.584018 0.109893
H45   H     H_    0.187701 0.140355 0.657001 0.124801
H46   H     H_    0.219354 0.799120 0.374473 0.142834
H47   H     H_    0.911146 0.635502 0.934309 0.124415
H48   H     H_    0.176720 0.126884 0.331552 0.121835
H49   H     H_    0.410638 0.863636 0.435291 0.121438
H50   H     H_    0.719318 0.299181 0.874485 0.142847
H51   H     H_    0.411363 0.135288 0.434149 0.124397
H52   H     H_    0.419220 0.873827 0.573792 0.119174
H53   H     H_    0.316097 0.864904 0.338695 0.125904
H54   H     H_    0.624543 0.298632 0.969651 0.140562
H55   H     H_    0.315725 0.135517 0.338626 0.121717
H56   H     H_    0.324068 0.873884 0.669146 0.118912
H57   H     H_    0.091206 0.139155 0.562531 0.120613
H58   H     H_    0.124610 0.798516 0.469663 0.140556
H59   H     H_    0.815493 0.635771 0.838802 0.121832
H60   H     H_    0.081235 0.126582 0.426578 0.122339
H61   H     H_    0.329895 0.812923 0.228646 0.105819
H62   H     H_    0.498679 0.278669 0.939401 0.133859
H63   H     H_    0.329364 0.187841 0.228922 0.107444
H64   H     H_    0.334132 0.817366 0.775122 0.109272
H65   H     H_    0.979673 0.189062 0.578252 0.109085
H66   H     H_    0.998727 0.778597 0.439424 0.133908
H67   H     H_    0.829241 0.687993 0.729017 0.107571
H68   H     H_    0.974933 0.182655 0.416074 0.111168
H69   H     H_    0.479625 0.689021 0.078281 0.109069
H70   H     H_    0.310714 0.222047 0.750715 0.134368
H71   H     H_    0.478782 0.312653 0.079716 0.106882
H72   H     H_    0.474776 0.682475 0.915909 0.111108
H73   H     H_    0.829874 0.312898 0.728646 0.105838
H74   H     H_    0.810714 0.722035 0.250739 0.134300
H75   H     H_    0.978897 0.812564 0.579638 0.106967
H76   H     H_    0.833937 0.317153 0.274917 0.109239
H77   H     H_    0.816048 0.364861 0.838707 0.125845
H78   H     H_    0.780670 0.702634 0.124472 0.142136
H79   H     H_    0.090925 0.861912 0.563733 0.124170
H80   H     H_    0.823738 0.373520 0.168794 0.118928
H81   H     H_    0.591139 0.639096 0.062552 0.120740
H82   H     H_    0.280701 0.202609 0.624448 0.142211
H83   H     H_    0.590737 0.362087 0.063853 0.124159
H84   H     H_    0.580903 0.626218 0.926240 0.122346
C153  C     C_R   0.312765 0.053763 0.119932 -0.140835
C154  C     C_R   0.312976 0.946338 0.119929 -0.139009
C155  C     C_R   0.812701 0.553761 0.619961 -0.140813
C156  C     C_R   0.812909 0.446336 0.619954 -0.138943
C157  C     C_R   0.343418 0.026898 0.178472 -0.144981
C158  C     C_R   0.343550 0.973269 0.178458 -0.142495
C159  C     C_R   0.843322 0.526894 0.678517 -0.145205
C160  C     C_R   0.843453 0.473264 0.678500 -0.142731
C161  C     C_R   0.282346 0.972856 0.059123 0.072354
C162  C     C_R   0.282299 0.027182 0.059090 0.067818
C163  C     C_R   0.782311 0.472855 0.559134 0.072349
C164  C     C_R   0.782265 0.527181 0.559103 0.067790
C165  C     C_R   0.249391 0.946329 0.999978 -0.138604
C166  C     C_R   0.249466 0.053645 0.999815 -0.137508
C167  C     C_R   0.749389 0.446331 0.499969 -0.138612
C168  C     C_R   0.749467 0.553646 0.499813 -0.137501
C169  C     C_R   0.213368 0.972878 0.942519 0.039589
C170  C     C_R   0.213583 0.027013 0.942300 0.082494
C171  C     C_R   0.713405 0.472883 0.442486 0.039689
C172  C     C_R   0.713625 0.527017 0.442271 0.082531
C173  C     C_R   0.177347 0.946409 0.884906 -0.183988
C174  C     C_R   0.177594 0.053409 0.884559 -0.253727
C175  C     C_R   0.677409 0.446418 0.384855 -0.184030
C176  C     C_R   0.677692 0.553419 0.384500 -0.253832
C177  C     C_R   0.137449 0.972684 0.830985 0.025826
C178  C     C_R   0.136826 0.027201 0.831190 -0.041177
C179  C     C_R   0.637582 0.472697 0.330885 0.025662
C180  C     C_R   0.637008 0.527218 0.331056 -0.040945
H85   H     H_    0.312192 0.095431 0.123941 0.132526
H86   H     H_    0.312572 0.904671 0.123926 0.133431
H87   H     H_    0.812131 0.595429 0.623968 0.132474
H88   H     H_    0.812505 0.404668 0.623946 0.133385
H89   H     H_    0.366324 0.047822 0.224429 0.139305
H90   H     H_    0.366568 0.952393 0.224400 0.140451
H91   H     H_    0.866205 0.547817 0.724486 0.139101
H92   H     H_    0.866446 0.452387 0.724453 0.140252
H93   H     H_    0.020175 0.311233 0.921624 0.111327
H94   H     H_    0.001817 0.720932 0.060676 0.132825
H95   H     H_    0.175117 0.806221 0.766320 0.100717
H96   H     H_    0.025028 0.317239 0.083849 0.109920
H97   H     H_    0.673577 0.691839 0.267457 0.108558
H98   H     H_    0.501864 0.220869 0.560698 0.132786
H99   H     H_    0.675004 0.306375 0.266403 0.100545
H100  H     H_    0.666106 0.682862 0.725082 0.110396
C181  C     C_2   0.091582 0.059207 0.780791 0.367244
H101  H     H_    0.092791 0.100844 0.786106 0.093779
O53   O     O_2   0.050922 0.040421 0.734976 -0.588572
C182  C     C_2   0.097311 0.941746 0.775927 0.435135
H102  H     H_    0.095475 0.953559 0.719077 0.107543
O54   O     O_2   0.065625 0.902289 0.793999 -0.558798
C183  C     C_2   0.591882 0.559245 0.280573 0.367666
H103  H     H_    0.592443 0.600856 0.286464 0.093898
O55   O     O_2   0.552123 0.540499 0.233941 -0.588951
C184  C     C_2   0.597355 0.441749 0.275906 0.434833
H104  H     H_    0.595723 0.453403 0.218988 0.108313
O56   O     O_2   0.565390 0.402439 0.294125 -0.558536

loop_
_geom_bond_atom_site_label_1
_geom_bond_atom_site_label_2
_geom_bond_distance
_ccdc_geom_bond_type
C162  C166  1.414350 A    
C87   C119  1.413004 A    
C94   C102  1.416083 A    
C109  C149  1.416157 A    
C176  C180  1.401561 A    
C99   C123  1.416422 A    
C75   C91   1.412589 A    
C97   C121  1.416881 A    
O26   C7    1.276337 A    
C154  C158  1.392813 A    
C73   C89   1.412588 A    
C66   C74   1.418928 A    
C99   C111  1.411082 A    
C4    C90   1.454810 S    
O30   C11   1.278574 A    
C22   C38   1.494743 S    
C30   H14   1.113014 S    
C91   C99   1.412771 A    
C136  C140  1.389991 A    
C89   C97   1.412344 A    
C157  H89   1.082865 S    
Zn12  O26   1.930454 S    
C110  C118  1.414985 A    
C51   C63   1.389934 A    
C19   C168  1.440935 S    
H34   C142  1.081580 S    
C20   C167  1.440555 S    
C173  C177  1.401030 A    
C92   C100  1.413468 A    
C43   C51   1.393872 A    
C76   C92   1.413346 A    
C32   C39   1.551320 S    
H29   C137  1.082019 S    
C96   C104  1.413307 A    
C34   C38   1.551405 S    
C44   H40   1.082456 S    
O11   C7    1.277671 A    
C154  H86   1.080980 S    
C45   H41   1.082398 S    
C42   C82   1.419012 A    
O34   C15   1.278566 A    
C135  H79   1.082272 S    
C55   H51   1.082434 S    
C167  C171  1.416339 A    
C62   C70   1.392525 A    
C41   H37   1.082132 S    
C171  C172  1.401158 A    
C137  C145  1.393851 A    
Zn14  O30   1.930704 S    
Zn1   O44   1.950366 S    
C25   H1    1.112955 S    
Zn2   O43   1.950365 S    
C18   C165  1.440536 S    
C108  C116  1.413283 A    
C141  C149  1.393906 A    
C153  C162  1.420339 A    
Zn5   O48   1.950366 S    
H32   C140  1.082125 S    
C145  H93   1.082393 S    
Zn6   O47   1.950365 S    
C112  C120  1.413250 A    
Zn7   O46   1.950519 S    
C46   C86   1.419001 A    
C11   C115  1.449790 S    
C183  H103  1.082426 S    
C42   C50   1.391837 A    
Zn16  O4    1.950493 S    
C182  H102  1.083712 S    
Zn12  O4    1.951220 S    
Zn1   O13   1.931523 S    
C151  H99   1.082320 S    
C71   H67   1.082451 S    
C98   C110  1.411959 A    
C26   C28   1.537149 S    
C72   H68   1.082425 S    
Zn4   O16   1.937078 S    
C57   H53   1.082485 S    
C104  C128  1.416541 A    
C9    C113  1.450249 S    
C33   C37   1.551429 S    
C6    C96   1.454196 S    
C28   H4    1.113440 S    
C125  C133  1.393482 A    
C63   H59   1.082152 S    
C31   H7    1.113481 S    
C64   H60   1.082021 S    
C71   C79   1.416952 A    
C72   C80   1.416463 A    
C165  C169  1.416311 A    
C14   C118  1.453355 S    
C44   C84   1.416563 A    
C45   C85   1.416715 A    
C30   H6    1.112953 S    
Zn10  O22   1.930454 S    
C105  C113  1.413045 A    
C48   C88   1.416524 A    
O25   C8    1.277433 A    
C175  C179  1.401049 A    
C129  C141  1.389219 A    
C15   C119  1.449793 S    
Zn10  O2    1.951220 S    
C31   C40   1.554383 S    
O29   C12   1.276870 A    
C171  C175  1.417337 A    
Zn15  O33   1.936110 S    
C75   C87   1.411379 A    
C26   H2    1.113459 S    
C169  C170  1.401163 A    
C41   C81   1.416142 A    
C135  C139  1.389496 A    
O48   C23   1.280348 A    
C156  H88   1.080982 S    
C130  C142  1.386599 A    
Zn13  O29   1.936110 S    
C181  H101  1.082281 S    
C132  C144  1.390024 A    
C101  C125  1.416675 A    
C168  C172  1.416889 A    
Zn16  O35   1.936289 S    
C77   C93   1.412328 A    
C70   C78   1.418931 A    
C180  C183  1.488727 S    
C82   C114  1.415052 A    
Zn7   O10   1.937035 S    
C123  H71   1.082268 S    
O33   C16   1.276856 A    
C25   C37   1.551260 S    
C86   C118  1.415059 A    
C78   C82   1.412047 A    
O40   C20   1.272487 A    
C52   C64   1.390022 A    
C70   H66   1.080656 S    
C1    C91   1.449510 S    
C102  C106  1.411960 A    
H35   C143  1.081765 S    
C80   C96   1.413414 A    
Zn5   O17   1.931523 S    
C179  C184  1.479616 S    
H33   C141  1.082163 S    
H31   C139  1.081807 S    
C65   H61   1.082343 S    
C57   C65   1.393512 A    
C53   H49   1.082062 S    
C25   C27   1.547513 S    
C129  H81   1.081887 S    
C103  C107  1.411075 A    
C178  C181  1.488650 S    
C67   C75   1.416933 A    
C61   H57   1.081836 S    
C65   C73   1.416685 A    
C27   H3    1.112942 S    
C32   H8    1.112951 S    
Zn8   O3    1.948709 S    
C21   C37   1.494740 S    
O38   C18   1.272469 A    
H22   C34   1.113050 S    
O5    C1    1.276985 A    
C47   C55   1.393848 A    
O32   C9    1.278203 A    
C156  C163  1.420241 A    
C147  H95   1.082316 S    
H25   C35   1.113031 S    
C52   H48   1.082213 S    
H26   C36   1.112950 S    
C36   C40   1.551280 S    
Zn15  O51   1.950545 S    
C111  C151  1.416920 A    
Zn11  O28   1.930452 S    
C184  O56   1.220717 D    
C183  O55   1.219773 D    
C121  H69   1.082370 S    
H23   C34   1.112961 S    
C42   H38   1.080751 S    
C29   C39   1.554284 S    
C159  H91   1.082864 S    
H28   C35   1.112941 S    
O8    C4    1.277392 A    
C63   C71   1.393482 A    
C33   C34   1.547567 S    
C64   C72   1.393783 A    
C49   C61   1.389195 A    
O50   C18   1.269903 A    
O37   C17   1.272574 A    
C161  C165  1.414233 A    
C107  C115  1.412640 A    
C100  C112  1.413009 A    
Zn1   O1    1.949016 S    
C122  C130  1.392443 A    
C133  C137  1.389947 A    
Zn2   O14   1.936888 S    
C29   H5    1.113472 S    
C58   H54   1.080839 S    
C68   C76   1.416601 A    
C170  C174  1.417936 A    
C153  C157  1.392773 A    
O9    C5    1.276981 A    
C43   H39   1.082258 S    
O36   C13   1.278201 A    
C60   C68   1.393729 A    
O13   C9    1.276277 A    
Zn1   O8    1.936844 S    
C2    C92   1.454195 S    
Zn2   O7    1.931479 S    
Zn3   O6    1.937035 S    
O18   C14   1.276934 A    
O31   C10   1.276804 A    
C106  C146  1.419044 A    
C156  C160  1.392815 A    
C25   H9    1.113055 S    
C110  C150  1.419041 A    
C93   C101  1.412559 A    
C32   H16   1.113054 S    
C98   C122  1.418836 A    
C59   H55   1.082128 S    
Zn15  O3    1.950920 S    
C74   C90   1.416111 A    
Zn11  O3    1.950792 S    
O41   C21   1.280353 A    
C56   C60   1.389993 A    
C66   H62   1.080668 S    
Zn16  O34   1.930704 S    
C31   H15   1.113437 S    
C74   C86   1.412051 A    
C3    C89   1.449124 S    
Zn2   O2    1.949015 S    
C90   C98   1.416091 A    
Zn8   O20   1.937078 S    
O10   C6    1.277149 A    
C109  C117  1.413009 A    
C182  O54   1.220714 D    
C174  C178  1.401533 A    
C108  C148  1.416471 A    
C59   C67   1.393489 A    
C47   H43   1.082265 S    
C48   H44   1.082412 S    
C84   C116  1.413201 A    
C69   C77   1.416858 A    
C163  C164  1.406100 A    
C112  C152  1.416624 A    
Zn8   O9    1.931415 S    
C24   C40   1.494735 S    
C131  H83   1.082273 S    
C132  H84   1.082093 S    
C133  H77   1.082476 S    
C7    C93   1.449118 S    
C56   H52   1.082190 S    
C166  C170  1.416909 A    
C138  C146  1.391664 A    
O7    C3    1.277666 A    
C88   C120  1.413344 A    
C95   C103  1.412800 A    
C16   C120  1.454050 S    
O19   C15   1.275244 A    
Zn13  O49   1.950545 S    
C142  C150  1.391634 A    
C43   C83   1.416446 A    
C157  C158  1.388068 A    
C26   H10   1.113461 S    
C27   C38   1.551354 S    
C146  H94   1.080675 S    
H18   C174  1.080677 S    
Zn10  O23   1.935859 S    
C49   H45   1.082151 S    
C179  C180  1.411191 A    
C79   C83   1.411373 A    
C58   C66   1.392505 A    
C172  C176  1.417928 A    
C130  H82   1.080486 S    
Zn15  O36   1.930707 S    
O15   C11   1.275236 A    
O42   C22   1.277455 A    
C97   C109  1.411064 A    
C28   C37   1.554347 S    
C46   H42   1.080760 S    
Zn4   O1    1.948709 S    
C30   C32   1.547510 S    
Zn9   O37   1.950717 S    
C35   C36   1.547544 S    
O12   C8    1.277420 A    
C53   C57   1.389959 A    
Zn11  O39   1.950717 S    
C152  H100  1.082446 S    
C46   C54   1.391849 A    
C154  C161  1.420246 A    
C60   H56   1.082117 S    
H21   C33   1.112959 S    
Zn5   O3    1.949016 S    
Zn13  O1    1.950920 S    
C13   C117  1.450244 S    
C163  C167  1.414232 A    
C54   H50   1.081643 S    
C164  C168  1.414332 A    
C121  C129  1.393201 A    
C139  C147  1.393603 A    
C8    C94   1.454805 S    
C10   C114  1.453358 S    
C161  C162  1.406102 A    
C136  H80   1.082049 S    
H19   C175  1.080930 S    
C153  H85   1.080991 S    
H24   C33   1.113012 S    
C155  C159  1.392774 A    
Zn9   O24   1.930452 S    
O28   C5    1.276840 A    
Zn3   O42   1.950519 S    
Zn6   O18   1.936888 S    
C23   C39   1.494747 S    
Zn7   O4    1.948710 S    
O21   C4    1.277461 A    
C50   C62   1.386823 A    
C44   C52   1.393601 A    
C45   C53   1.393851 A    
C105  C145  1.416688 A    
C143  C151  1.393614 A    
C159  C160  1.388074 A    
C48   C56   1.393739 A    
C102  C126  1.418849 A    
C177  C178  1.411112 A    
Zn14  O2    1.950493 S    
C78   C94   1.416134 A    
C83   C115  1.413025 A    
O44   C21   1.277405 A    
C28   H12   1.113465 S    
C81   C113  1.412980 A    
Zn12  O27   1.935859 S    
C35   C39   1.551376 S    
C85   C117  1.413048 A    
O16   C12   1.276983 A    
C61   C69   1.393192 A    
C30   C40   1.551346 S    
Zn3   O2    1.948710 S    
C127  C135  1.393582 A    
C148  H96   1.082424 S    
H27   C36   1.113063 S    
C122  H70   1.080454 S    
C17   C166  1.440951 S    
O46   C24   1.280396 A    
O47   C24   1.277363 A    
Zn16  O52   1.950759 S    
C100  C124  1.416512 A    
H30   C138  1.081555 S    
C104  C108  1.413015 A    
Zn8   O45   1.950518 S    
C41   C49   1.393878 A    
O27   C6    1.276988 A    
C47   C87   1.416452 A    
C181  O53   1.219800 D    
O39   C19   1.272564 A    
C67   H63   1.082453 S    
C131  C143  1.389494 A    
C29   C31   1.537185 S    
C160  H92   1.082856 S    
C73   C85   1.411405 A    
O24   C1    1.276830 A    
C76   C88   1.413003 A    
C77   C81   1.411062 A    
C79   C95   1.412586 A    
C80   C84   1.413025 A    
O43   C22   1.280306 A    
O14   C10   1.276964 A    
Zn4   O41   1.950518 S    
Zn3   O15   1.931458 S    
C127  H75   1.082261 S    
C128  H76   1.082441 S    
Zn5   O12   1.936844 S    
Zn6   O11   1.931479 S    
C101  C105  1.411412 A    
Zn6   O4    1.949015 S    
Zn9   O21   1.936039 S    
Zn14  O50   1.950759 S    
H17   C173  1.080922 S    
C124  H72   1.082412 S    
C125  H73   1.082343 S    
O35   C14   1.276828 A    
Zn12  O40   1.950503 S    
C134  H78   1.080521 S    
Zn9   O1    1.950792 S    
H20   C176  1.080702 S    
H36   C144  1.082268 S    
O52   C20   1.269896 A    
C55   C59   1.389941 A    
C126  C134  1.392432 A    
C29   H13   1.113455 S    
C158  H90   1.082858 S    
O22   C3    1.276348 A    
C140  C148  1.393671 A    
Zn7   O19   1.931458 S    
C50   H46   1.081661 S    
C111  C119  1.412647 A    
C12   C116  1.454039 S    
Zn13  O32   1.930707 S    
C144  C152  1.393662 A    
O49   C17   1.270046 A    
Zn14  O31   1.936289 S    
C123  C131  1.393548 A    
C134  C138  1.386581 A    
O51   C19   1.270045 A    
C106  C114  1.415017 A    
C126  H74   1.080449 S    
C27   H11   1.113027 S    
Zn4   O5    1.931415 S    
C103  C127  1.416420 A    
O20   C16   1.277005 A    
C169  C173  1.417352 A    
C5    C95   1.449517 S    
C26   C38   1.554252 S    
O23   C2    1.276976 A    
O6    C2    1.277162 A    
Zn11  O25   1.936039 S    
C184  H104  1.083665 S    
Zn10  O38   1.950503 S    
C155  H87   1.080995 S    
C124  C132  1.393846 A    
C54   C58   1.386848 A    
C68   H64   1.082435 S    
C150  H98   1.080688 S    
C69   H65   1.082367 S    
C128  C136  1.393677 A    
C155  C164  1.420330 A    
C177  C182  1.479652 S    
C107  C147  1.416946 A    
O17   C13   1.276278 A    
C62   H58   1.080812 S    
C51   H47   1.082435 S    
O45   C23   1.277413 A    
C149  H97   1.082131 S    
