data_mof_unit_50694.cif
_audit_creation_date              2013-03-05T16:35:44-0500
_audit_creation_method            fapswitch 2.2
_symmetry_space_group_name_H-M    P1
_symmetry_Int_Tables_number       1
_space_group_crystal_system       triclinic
_cell_length_a                    19.499289
_cell_length_b                    9.075372
_cell_length_c                    7.985999
_cell_angle_alpha                 89.983129
_cell_angle_beta                  89.999914
_cell_angle_gamma                 90.000061
_cell_volume                      1413.22868683

loop_
_atom_site_label
_atom_site_type_symbol
_atom_site_description
_atom_site_fract_x
_atom_site_fract_y
_atom_site_fract_z
_atom_type_partial_charge
O1    O     O_R   0.500000 0.288390 0.642760 -0.571035
O2    O     O_R   0.500000 0.711610 0.357240 -0.571035
O3    O     O_R   0.500000 0.711610 0.642760 -0.576031
O4    O     O_R   0.500000 0.288390 0.357240 -0.576031
C1    C     C_R   0.500000 0.220846 0.500011 0.832872
C2    C     C_R   0.500000 0.779154 0.499989 0.832872
O5    O     O_R   0.400140 0.500000 0.642830 -0.580191
O6    O     O_R   0.599860 0.500000 0.357170 -0.580191
O7    O     O_R   0.599860 0.500000 0.642830 -0.580191
O8    O     O_R   0.400140 0.500000 0.357170 -0.580191
C3    C     C_R   0.367137 0.500000 0.500000 0.804792
C4    C     C_R   0.632863 0.500000 0.500000 0.804792
Cu1   Cu    Cu3+1 0.500000 0.500000 0.669080 0.986890
Cu2   Cu    Cu3+1 0.500000 0.500000 0.330920 0.986890
C5    C     C_1   0.500000 0.065590 0.500016 -0.173685
C6    C     C_1   0.500000 0.934410 0.499984 -0.173685
N1    N     N_1   0.500000 0.500000 0.076820 -0.058199
N2    N     N_1   0.500000 0.500000 0.923180 -0.058199
C7    C     C_R   0.252382 0.528146 0.648968 0.125307
C8    C     C_R   0.747617 0.471855 0.351032 0.125307
C9    C     C_R   0.747617 0.528146 0.648968 0.125308
C10   C     C_R   0.252383 0.471855 0.351032 0.125309
C11   C     C_R   0.180908 0.503233 0.650337 0.148426
C12   C     C_R   0.819092 0.496768 0.349663 0.148426
C13   C     C_R   0.819092 0.503233 0.650337 0.148427
C14   C     C_R   0.180908 0.496768 0.349663 0.148426
C15   C     C_R   0.144754 0.500000 0.500000 -0.014712
C16   C     C_R   0.855246 0.500001 0.500000 -0.014712
C17   C     C_R   0.290099 0.500000 0.500000 -0.140171
C18   C     C_R   0.709900 0.500000 0.500000 -0.140171
N3    N     N_R   0.034080 0.396841 0.412147 -0.228268
N4    N     N_R   0.965920 0.603160 0.587853 -0.228268
N5    N     N_R   0.965920 0.396842 0.412147 -0.228268
N6    N     N_R   0.034080 0.603160 0.587853 -0.228268
C19   C     C_R   0.930776 0.500001 0.499999 0.427426
C20   C     C_R   0.069224 0.500000 0.500000 0.427425
C21   C     C_3   0.286483 0.590120 0.802853 -0.809480
H1    H     H_    0.249130 0.636050 0.892713 0.227554
H2    H     H_    0.316558 0.502017 0.863880 0.249816
H3    H     H_    0.320220 0.683868 0.768120 0.237004
C22   C     C_3   0.713517 0.409880 0.197147 -0.809481
H4    H     H_    0.750871 0.363950 0.107288 0.227554
H5    H     H_    0.679780 0.316132 0.231880 0.237004
H6    H     H_    0.683442 0.497982 0.136120 0.249816
C23   C     C_3   0.713517 0.590121 0.802852 -0.809482
H7    H     H_    0.679781 0.683870 0.768118 0.237003
H8    H     H_    0.683441 0.502020 0.863879 0.249817
H9    H     H_    0.750870 0.636049 0.892713 0.227554
C24   C     C_3   0.286483 0.409879 0.197148 -0.809482
H10   H     H_    0.320219 0.316130 0.231882 0.237003
H11   H     H_    0.249130 0.363952 0.107287 0.227553
H12   H     H_    0.316559 0.497980 0.136121 0.249818
C25   C     C_3   0.143809 0.468038 0.809033 -0.868843
H13   H     H_    0.101964 0.387046 0.788236 0.240424
H14   H     H_    0.179602 0.412305 0.895026 0.239704
H15   H     H_    0.121558 0.570719 0.860928 0.259472
C26   C     C_3   0.856191 0.531964 0.190967 -0.868842
H16   H     H_    0.898036 0.612957 0.211764 0.240424
H17   H     H_    0.878442 0.429283 0.139072 0.259472
H18   H     H_    0.820397 0.587696 0.104973 0.239704
C27   C     C_3   0.856191 0.468038 0.809032 -0.868842
H19   H     H_    0.820397 0.412305 0.895026 0.239704
H20   H     H_    0.898036 0.387045 0.788235 0.240424
H21   H     H_    0.878442 0.570719 0.860927 0.259472
C28   C     C_3   0.143809 0.531964 0.190968 -0.868841
H22   H     H_    0.179603 0.587696 0.104974 0.239704
H23   H     H_    0.121557 0.429283 0.139073 0.259472
H24   H     H_    0.101964 0.612957 0.211765 0.240424

loop_
_geom_bond_atom_site_label_1
_geom_bond_atom_site_label_2
_geom_bond_distance
_ccdc_geom_bond_type
C27   H21   1.108430 S    
C7    C11   1.411966 A    
N3    N5    1.329073 A    
C21   H1    1.104270 S    
C10   C17   1.421830 A    
C11   C15   1.392581 A    
C15   C20   1.472789 S    
C7    C21   1.506367 S    
C22   H4    1.104270 S    
O7    Cu1   1.958451 S    
N6    C20   1.355994 A    
O3    C2    1.294345 A    
O3    Cu1   1.931846 S    
O6    C4    1.309652 A    
C24   H12   1.104763 S    
C22   H6    1.104763 S    
C28   H24   1.110730 S    
C24   H11   1.104269 S    
C23   H8    1.104763 S    
C8    C22   1.506366 S    
C14   C15   1.392582 A    
C21   H2    1.104763 S    
O4    Cu2   1.931847 S    
C13   C27   1.493739 S    
C25   H13   1.110726 S    
C13   C16   1.392582 A    
O5    C3    1.309652 A    
C22   H5    1.110597 S    
Cu2   N1    2.029242 S    
C26   H16   1.110728 S    
O2    C2    1.294503 A    
Cu1   N2    2.029242 S    
C10   C24   1.506366 S    
O1    C1    1.294503 A    
N5    C19   1.355993 A    
C11   C25   1.493737 S    
C21   H3    1.110597 S    
C9    C23   1.506365 S    
C25   H14   1.101987 S    
C10   C14   1.411964 A    
C27   H19   1.101988 S    
O2    Cu2   1.931970 S    
O7    C4    1.309652 A    
O6    Cu2   1.958451 S    
C1    C5    1.409005 S    
C26   H17   1.108429 S    
O8    C3    1.309652 A    
C2    C6    1.409005 S    
C5    C6    1.190514 T    
C7    C17   1.421830 A    
N4    C19   1.355994 A    
C23   H7    1.110596 S    
O5    Cu1   1.958453 S    
O1    Cu1   1.931970 S    
C3    C17   1.502186 S    
N1    N2    1.226970 T    
C28   H22   1.101988 S    
C9    C18   1.421831 A    
C25   H15   1.108427 S    
C24   H10   1.110595 S    
C9    C13   1.411966 A    
N3    C20   1.355995 A    
O4    C1    1.294345 A    
C26   H18   1.101988 S    
C8    C18   1.421830 A    
C23   H9    1.104269 S    
C4    C18   1.502184 S    
Cu1   Cu2   2.700546 S    
C14   C28   1.493738 S    
C8    C12   1.411965 A    
C27   H20   1.110728 S    
C12   C16   1.392582 A    
C16   C19   1.472789 S    
O8    Cu2   1.958452 S    
C12   C26   1.493739 S    
C28   H23   1.108430 S    
N4    N6    1.329073 A    
