data_mof_unit_18049.cif
_audit_creation_date              2012-12-10T17:21:40-0500
_audit_creation_method            fapswitch 2.2
_symmetry_space_group_name_H-M    P1
_symmetry_Int_Tables_number       1
_space_group_crystal_system       triclinic
_cell_length_a                    10.742094
_cell_length_b                    10.83922
_cell_length_c                    9.588406
_cell_angle_alpha                 91.155159
_cell_angle_beta                  90.004166
_cell_angle_gamma                 92.819388
_cell_volume                      1114.85623208

loop_
_atom_site_label
_atom_site_type_symbol
_atom_type_description
_atom_site_fract_x
_atom_site_fract_y
_atom_site_fract_z
_atom_type_partial_charge
C1    C     C_R   0.511129 0.263499 0.498992 0.850895
C2    C     C_3   0.878195 0.502482 0.501497 0.120372
C3    C     C_3   0.933703 0.612919 0.417264 -0.427433
C4    C     C_3   0.922471 0.380452 0.435652 -0.369100
C5    C     C_R   0.623460 0.128288 0.734524 0.391456
C6    C     C_R   0.617717 0.075029 0.866807 -0.365620
C7    C     C_R   0.550130 0.962963 0.885941 0.418862
C8    C     C_R   0.502263 0.897274 0.769640 -0.185046
C9    C     C_R   0.517120 0.944026 0.633565 -0.064075
C10   C     C_R   0.557243 0.069001 0.621541 0.055912
C11   C     C_R   0.526334 0.130272 0.497968 -0.077789
C12   C     C_R   0.260071 0.501524 0.500329 0.783479
C13   C     C_R   0.489317 0.061661 0.378696 -0.248044
C14   C     C_R   0.477884 0.934272 0.382658 -0.203467
C15   C     C_R   0.491633 0.873384 0.508699 -0.073091
C16   C     C_R   0.669777 0.661177 0.147286 -0.126164
C17   C     C_R   0.755043 0.737162 0.076451 -0.183596
C18   C     C_R   0.754834 0.736954 0.932729 -0.165116
C19   C     C_R   0.669161 0.660960 0.859112 -0.150813
C20   C     C_R   0.583314 0.579112 0.926837 0.209781
C21   C     C_R   0.583420 0.579124 0.076444 0.226694
C22   C     C_R   0.420953 0.424375 0.072198 -0.071295
C23   C     C_R   0.494489 0.737976 0.502397 0.775921
C24   C     C_R   0.420979 0.424423 0.924217 -0.026605
C25   C     C_R   0.740123 0.501441 0.500282 0.779156
C26   C     C_3   0.071591 0.515973 0.654331 0.270677
C27   C     C_3   0.928360 0.515067 0.653437 -0.417249
C28   C     C_3   0.077235 0.610649 0.412844 -0.371265
C29   C     C_3   0.066208 0.380070 0.437451 -0.481063
C30   C     C_3   0.122126 0.503168 0.501735 0.090001
Cu1   Cu    Cu3+1 0.499990 0.499990 0.640660 0.960063
Cu2   Cu    Cu3+1 0.500010 0.500010 0.359340 0.927909
H1    H     H_    0.888625 0.369779 0.326143 0.179951
H2    H     H_    0.107485 0.598175 0.302617 0.191559
H3    H     H_    0.897292 0.608401 0.308639 0.183451
H4    H     H_    0.467475 0.106439 0.282318 0.167444
H5    H     H_    0.663657 0.121861 0.954948 0.128774
H6    H     H_    0.448397 0.813009 0.789888 0.210281
H7    H     H_    0.454111 0.883351 0.287281 0.201359
H8    H     H_    0.356208 0.362385 0.126091 0.131691
H9    H     H_    0.098937 0.434179 0.713596 0.129248
H10   H     H_    0.675782 0.671409 0.257329 0.188184
H11   H     H_    0.820396 0.798198 0.133843 0.138329
H12   H     H_    0.819701 0.798105 0.877612 0.140363
H13   H     H_    0.673136 0.671791 0.749482 0.187394
H14   H     H_    0.356222 0.362468 0.867467 0.129344
H15   H     H_    0.890990 0.436453 0.716439 0.170184
H16   H     H_    0.895690 0.601015 0.703653 0.169533
H17   H     H_    0.119783 0.700937 0.449983 0.152118
H18   H     H_    0.905635 0.701562 0.465515 0.145277
H19   H     H_    0.100853 0.366695 0.329034 0.190592
H20   H     H_    0.096124 0.300687 0.498974 0.151872
H21   H     H_    0.882929 0.300104 0.494338 0.188131
N1    N     N_R   0.501200 0.501210 0.147910 -0.202359
N2    N     N_R   0.501250 0.501290 0.852040 -0.197765
O1    O     O_R   0.499990 0.319640 0.618810 -0.547023
O2    O     O_R   0.500000 0.319660 0.381240 -0.599308
O3    O     O_R   0.317680 0.499970 0.618790 -0.551896
O4    O     O_R   0.317700 0.499990 0.381210 -0.589363
O5    O     O_R   0.500000 0.680340 0.618760 -0.607893
O6    O     O_R   0.500010 0.680360 0.381190 -0.594484
O7    O     O_R   0.682300 0.500010 0.618790 -0.583855
O8    O     O_R   0.682320 0.500030 0.381210 -0.612990
O9    O     O_3   0.123524 0.621555 0.725337 -0.720136
H22   H     H_    0.089888 0.695940 0.683540 0.322134
O10   O     O_3   0.698999 0.232852 0.711636 -0.739754
H23   H     H_    0.737991 0.261803 0.800952 0.314214
O11   O     O_3   0.532685 0.913219 0.016072 -0.736025
H24   H     H_    0.575771 0.968606 0.086191 0.317079

loop_
_geom_bond_atom_site_label_1
_geom_bond_atom_site_label_2
_ccdc_geom_bond_type
Cu1   O5    S    
C27   H16   S    
C2    C4    S    
C19   H13   S    
C16   C21   A    
C6    C7    A    
C1    O2    A    
Cu1   O1    S    
C29   C30   S    
C28   H17   S    
C4    C29   S    
C1    C11   S    
C3    H3    S    
C12   O3    A    
O9    H22   S    
C19   C20   A    
C15   C23   S    
O10   H23   S    
C9    C15   A    
C6    H5    S    
C22   H8    S    
C5    C10   A    
C22   N1    A    
O11   H24   S    
C13   C14   A    
C24   N2    A    
C23   O5    A    
C11   C13   A    
Cu1   O7    S    
C26   C27   S    
C2    C27   S    
C8    H6    S    
Cu2   O2    S    
C20   N2    A    
C5    C6    A    
Cu1   O3    S    
Cu2   N1    S    
C3    C28   S    
C3    H18   S    
C28   C30   S    
Cu2   O6    S    
C26   C30   S    
C2    C25   S    
C2    C3    S    
C25   O7    A    
C29   H19   S    
C21   N1    A    
C4    H21   S    
C22   C24   A    
C16   C17   A    
C10   C11   A    
C28   H2    S    
C9    C10   A    
C16   H10   S    
C18   H12   S    
C7    C8    A    
C20   C21   A    
Cu2   O8    S    
C13   H4    S    
C17   C18   A    
C18   C19   A    
C25   O8    A    
C23   O6    A    
C27   H15   S    
C17   H11   S    
C24   H14   S    
C26   O9    S    
C14   C15   A    
C8    C9    A    
Cu2   O4    S    
Cu1   N2    S    
C7    O11   S    
C4    H1    S    
C12   O4    A    
C12   C30   S    
C1    O1    A    
Cu1   Cu2   S    
C26   H9    S    
C14   H7    S    
C5    O10   S    
C29   H20   S    
