data_mof_unit_42785.cif
_audit_creation_date              2012-12-10T17:22:38-0500
_audit_creation_method            fapswitch 2.2
_symmetry_space_group_name_H-M    P1
_symmetry_Int_Tables_number       1
_space_group_crystal_system       triclinic
_cell_length_a                    10.630569
_cell_length_b                    10.861454
_cell_length_c                    9.586371
_cell_angle_alpha                 90.371091
_cell_angle_beta                  90.24762
_cell_angle_gamma                 92.598568
_cell_volume                      1105.70214623

loop_
_atom_site_label
_atom_site_type_symbol
_atom_type_description
_atom_site_fract_x
_atom_site_fract_y
_atom_site_fract_z
_atom_type_partial_charge
C1    C     C_R   0.510202 0.263156 0.500377 0.817298
C2    C     C_3   0.961956 0.601851 0.434981 -0.133019
C3    C     C_3   0.039627 0.500464 0.367041 -0.199861
C4    C     C_3   0.122546 0.500825 0.498762 -0.085553
C5    C     C_R   0.582817 0.122743 0.754792 -0.141538
C6    C     C_R   0.568238 0.064894 0.883319 -0.145868
C7    C     C_R   0.505784 0.950149 0.890427 -0.135861
C8    C     C_R   0.469840 0.887939 0.767960 -0.152456
C9    C     C_R   0.497229 0.939721 0.635233 0.096423
C10   C     C_R   0.535134 0.065559 0.630806 0.102149
C11   C     C_R   0.521996 0.129398 0.503099 -0.114259
C12   C     C_R   0.259420 0.499875 0.499623 0.847513
C13   C     C_R   0.502837 0.063068 0.378644 -0.191638
C14   C     C_R   0.492117 0.935849 0.380130 -0.196629
C15   C     C_R   0.488827 0.872367 0.506915 -0.110434
C16   C     C_R   0.666313 0.665619 0.145699 -0.206046
C17   C     C_R   0.746301 0.747920 0.073984 -0.021596
C18   C     C_R   0.746834 0.746451 0.929993 -0.236370
C19   C     C_R   0.666822 0.664244 0.857391 -0.173196
C20   C     C_R   0.581947 0.580970 0.926005 0.193314
C21   C     C_R   0.581835 0.581225 0.075615 0.198554
C22   C     C_R   0.422459 0.422556 0.072996 -0.068662
C23   C     C_R   0.493315 0.737610 0.501511 0.774365
C24   C     C_R   0.422459 0.422622 0.925016 -0.057200
C25   C     C_R   0.740546 0.500424 0.500415 0.790592
C26   C     C_3   0.036853 0.401095 0.564174 0.656826
C27   C     C_3   0.952549 0.398912 0.433358 -0.223042
C28   C     C_3   0.877332 0.500432 0.501367 -0.063617
C29   C     C_3   0.959778 0.500846 0.633494 -0.205197
C30   C     C_3   0.046905 0.602102 0.566668 -0.241933
Cu1   Cu    Cu3+1 0.499990 0.499990 0.640660 0.939644
Cu2   Cu    Cu3+1 0.500010 0.500010 0.359340 0.938941
H1    H     H_    0.911325 0.315300 0.380179 0.156199
H2    H     H_    0.487559 0.907918 0.990777 0.137801
H3    H     H_    0.416753 0.801813 0.780530 0.168903
H4    H     H_    0.484117 0.887282 0.281184 0.162843
H5    H     H_    0.358918 0.359096 0.127535 0.144582
H6    H     H_    0.674410 0.671792 0.255820 0.202010
H7    H     H_    0.809064 0.809724 0.872946 0.166081
H8    H     H_    0.675003 0.671246 0.747540 0.212168
H9    H     H_    0.358949 0.359156 0.868899 0.171089
H10   H     H_    0.924917 0.499989 0.742525 0.160869
H11   H     H_    0.088399 0.685232 0.620572 0.159491
H12   H     H_    0.927644 0.684548 0.382143 0.154612
H13   H     H_    0.074574 0.500777 0.258062 0.167424
H14   H     H_    0.495912 0.109438 0.279358 0.161424
H15   H     H_    0.633909 0.211036 0.753910 0.164502
H16   H     H_    0.602055 0.110771 0.977761 0.140988
N1    N     N_R   0.501210 0.501210 0.147910 -0.195541
N2    N     N_R   0.501250 0.501290 0.852040 -0.207014
O1    O     O_R   0.499990 0.319640 0.618810 -0.582754
O2    O     O_R   0.500000 0.319660 0.381240 -0.582745
O3    O     O_R   0.316850 0.499960 0.618770 -0.563674
O4    O     O_R   0.316860 0.499980 0.381190 -0.585281
O5    O     O_R   0.500000 0.680340 0.618760 -0.618000
O6    O     O_R   0.500010 0.680360 0.381190 -0.600433
O7    O     O_R   0.683140 0.500020 0.618810 -0.608271
O8    O     O_R   0.683150 0.500040 0.381230 -0.594962
C31   C     C_1   0.828006 0.834980 0.149031 0.212678
N3    N     N_1   0.893462 0.904998 0.209304 -0.284917
F1    F     F_    0.078801 0.297889 0.630503 -0.671714

loop_
_geom_bond_atom_site_label_1
_geom_bond_atom_site_label_2
_ccdc_geom_bond_type
C4    C26   S    
C18   H7    S    
C23   O5    A    
C16   C21   A    
Cu1   O1    S    
C29   H10   S    
C4    C12   S    
C11   C13   A    
C9    C10   A    
C19   C20   A    
C1    C11   S    
Cu2   O8    S    
C2    C30   S    
Cu1   O7    S    
C15   C23   S    
C17   C18   A    
C9    C15   A    
C31   N3    T    
C12   O4    A    
C13   C14   A    
C27   H1    S    
C25   C28   S    
C14   H4    S    
C24   H9    S    
C1    O1    A    
C26   C27   S    
C29   C30   S    
C12   O3    A    
C6    H16   S    
C17   C31   S    
C22   N1    A    
C19   H8    S    
C21   N1    A    
Cu2   O4    S    
C28   C29   S    
C5    H15   S    
C26   F1    S    
C3    H13   S    
C2    C3    S    
C6    C7    A    
C3    C27   S    
C24   N2    A    
C5    C6    A    
Cu2   N1    S    
C1    O2    A    
C22   C24   A    
C30   H11   S    
Cu1   O3    S    
C7    C8    A    
C10   C11   A    
Cu1   N2    S    
C5    C10   A    
C3    C4    S    
C25   O7    A    
C23   O6    A    
C7    H2    S    
C26   C29   S    
C20   N2    A    
C18   C19   A    
C25   O8    A    
C16   H6    S    
C27   C28   S    
C13   H14   S    
Cu2   O2    S    
C2    C28   S    
Cu1   O5    S    
C20   C21   A    
C14   C15   A    
C22   H5    S    
Cu2   O6    S    
C4    C30   S    
Cu1   Cu2   S    
C16   C17   A    
C2    H12   S    
C8    C9    A    
C8    H3    S    
