data_mof_unit_62015.cif
_audit_creation_date              2013-03-05T16:07:32-0500
_audit_creation_method            fapswitch 2.2
_symmetry_space_group_name_H-M    P1
_symmetry_Int_Tables_number       1
_space_group_crystal_system       triclinic
_cell_length_a                    30.221616
_cell_length_b                    31.831859
_cell_length_c                    21.320876
_cell_angle_alpha                 90.1019
_cell_angle_beta                  135.131024
_cell_angle_gamma                 89.971085
_cell_volume                      14470.1614465

loop_
_atom_site_label
_atom_site_type_symbol
_atom_site_description
_atom_site_fract_x
_atom_site_fract_y
_atom_site_fract_z
_atom_type_partial_charge
O1    O     O_R   0.406950 0.500000 0.354430 -0.629230
O2    O     O_R   0.906950 1.000000 0.354430 -0.629224
O3    O     O_R   0.407010 0.500000 0.459520 -0.625803
O4    O     O_R   0.907010 0.000000 0.459520 -0.625816
C1    C     C_R   0.378317 0.500093 0.378167 0.859716
C2    C     C_R   0.878317 0.000094 0.378167 0.859718
O5    O     O_R   0.499970 0.561610 0.447450 -0.618141
O6    O     O_R   0.499970 0.438390 0.447450 -0.617319
O7    O     O_R   0.999970 0.061610 0.447450 -0.618146
O8    O     O_R   0.999970 0.938390 0.447450 -0.617319
O9    O     O_R   0.500030 0.561620 0.552540 -0.619241
O10   O     O_R   0.500030 0.438380 0.552540 -0.618522
O11   O     O_R   0.000030 0.061620 0.552540 -0.619242
O12   O     O_R   0.000030 0.938380 0.552540 -0.618517
C3    C     C_R   0.500001 0.581295 0.500047 0.905969
C4    C     C_R   0.499997 0.418707 0.499938 0.906004
C5    C     C_R   0.000001 0.081295 0.500047 0.905969
C6    C     C_R   0.999997 0.918707 0.499938 0.906004
Zn1   Zn    Zn3+2 0.499970 0.500000 0.429830 0.942944
Zn2   Zn    Zn3+2 0.999970 0.000000 0.429830 0.942944
Zn3   Zn    Zn3+2 0.500040 0.500000 0.570170 0.946576
Zn4   Zn    Zn3+2 0.000040 1.000000 0.570170 0.946575
O13   O     O_R   0.593000 0.500000 0.540480 -0.628307
O14   O     O_R   0.093000 0.000000 0.540480 -0.628305
O15   O     O_R   0.593060 0.500000 0.645570 -0.626057
O16   O     O_R   0.093060 1.000000 0.645570 -0.626053
C7    C     C_R   0.621672 0.500001 0.621752 0.871886
C8    C     C_R   0.121671 0.000001 0.621752 0.871884
C9    C     C_3   0.450653 0.763902 0.417601 -0.165264
C10   C     C_3   0.451086 0.235945 0.416987 -0.164914
C11   C     C_3   0.950119 0.263902 0.417865 -0.165270
C12   C     C_3   0.949897 0.735947 0.417592 -0.164982
C13   C     C_3   0.446374 0.736030 0.472587 -0.164373
C14   C     C_3   0.446414 0.263937 0.471564 -0.164244
C15   C     C_3   0.946799 0.236031 0.473876 -0.164367
C16   C     C_3   0.947378 0.763940 0.474462 -0.164320
H1    H     H_    0.402493 0.723789 0.449762 0.130716
H2    H     H_    0.402390 0.276141 0.448329 0.130415
H3    H     H_    0.903268 0.223791 0.452109 0.130747
H4    H     H_    0.904145 0.776148 0.453604 0.130475
H5    H     H_    0.410279 0.776058 0.349688 0.131805
H6    H     H_    0.410896 0.223655 0.349000 0.131705
H7    H     H_    0.909308 0.276058 0.350168 0.131832
H8    H     H_    0.908731 0.723658 0.350102 0.131768
H9    H     H_    0.492059 0.776273 0.600541 0.132901
H10   H     H_    0.491627 0.223978 0.599310 0.130009
H11   H     H_    0.993804 0.276275 0.602405 0.132880
H12   H     H_    0.995546 0.723982 0.603483 0.130003
C17   C     C_1   0.499970 0.625859 0.500156 -0.191503
C18   C     C_1   0.500020 0.374147 0.499848 -0.191857
C19   C     C_1   0.999970 0.125859 0.500156 -0.191502
C20   C     C_1   0.000020 0.874147 0.499848 -0.191858
C21   C     C_1   0.499901 0.874166 0.500227 -0.190844
C22   C     C_1   0.500091 0.125842 0.499995 -0.190973
C23   C     C_1   0.999901 0.374166 0.500227 -0.190854
C24   C     C_1   0.000091 0.625842 0.499995 -0.190975
C25   C     C_3   0.504179 0.736029 0.445401 -0.165441
C26   C     C_3   0.504747 0.263866 0.445267 -0.165329
C27   C     C_3   0.003219 0.236028 0.444375 -0.165450
C28   C     C_3   0.002594 0.763864 0.442974 -0.165334
C29   C     C_3   0.499902 0.708946 0.500384 0.208648
C30   C     C_3   0.500075 0.291064 0.499844 0.208979
C31   C     C_3   0.999901 0.208946 0.500383 0.208647
C32   C     C_3   0.000075 0.791064 0.499844 0.208977
C33   C     C_3   0.553386 0.764002 0.528239 -0.165747
C34   C     C_3   0.553775 0.236052 0.528217 -0.165377
C35   C     C_3   0.052959 0.264001 0.526948 -0.165738
C36   C     C_3   0.052810 0.736048 0.525318 -0.165315
C37   C     C_3   0.499861 0.791087 0.500440 0.208484
C38   C     C_3   0.500114 0.208925 0.499937 0.208832
C39   C     C_3   0.999860 0.291087 0.500438 0.208488
C40   C     C_3   0.000113 0.708925 0.499937 0.208832
C41   C     C_3   0.549111 0.736131 0.583229 -0.164528
C42   C     C_3   0.549102 0.264044 0.582793 -0.164214
C43   C     C_3   0.049644 0.236131 0.582964 -0.164522
C44   C     C_3   0.050291 0.764042 0.582188 -0.164132
C45   C     C_3   0.495583 0.764013 0.555431 -0.162008
C46   C     C_3   0.495441 0.236124 0.554513 -0.163711
C47   C     C_3   0.996542 0.264014 0.556455 -0.162011
C48   C     C_3   0.997594 0.736126 0.556806 -0.163703
C49   C     C_1   0.499938 0.663427 0.500273 -0.083241
C50   C     C_1   0.500045 0.336581 0.499822 -0.083285
C51   C     C_1   0.999937 0.163427 0.500273 -0.083242
C52   C     C_1   0.000045 0.836581 0.499822 -0.083284
C53   C     C_1   0.499866 0.836602 0.500367 -0.081087
C54   C     C_1   0.500114 0.163408 0.499981 -0.083677
C55   C     C_1   0.999865 0.336602 0.500366 -0.081097
C56   C     C_1   0.000114 0.663408 0.499981 -0.083675
H13   H     H_    0.589486 0.723974 0.651141 0.131150
H14   H     H_    0.589294 0.276336 0.650779 0.130806
H15   H     H_    0.090456 0.223974 0.650659 0.131114
H16   H     H_    0.091458 0.776333 0.649677 0.130744
H17   H     H_    0.597268 0.776241 0.551062 0.131905
H18   H     H_    0.597797 0.223848 0.551448 0.131747
H19   H     H_    0.096490 0.276239 0.548712 0.131877
H20   H     H_    0.096042 0.723841 0.546173 0.131690
H21   H     H_    0.507705 0.723790 0.400283 0.132244
H22   H     H_    0.508562 0.276011 0.400471 0.132315
H23   H     H_    0.005958 0.223789 0.398415 0.132247
H24   H     H_    0.004642 0.776007 0.396297 0.132322
C57   C     C_3   0.270773 0.462294 0.288736 -0.152820
C58   C     C_3   0.270930 0.529939 0.310134 -0.162137
C59   C     C_3   0.770773 0.962271 0.288625 -0.152772
C60   C     C_3   0.770930 0.029887 0.310223 -0.162181
C61   C     C_3   0.229656 0.492010 0.287362 -0.154029
C62   C     C_3   0.729656 0.991934 0.287339 -0.154067
H25   H     H_    0.211013 0.485378 0.316227 0.120192
H26   H     H_    0.711013 0.985238 0.316184 0.120216
H27   H     H_    0.289590 0.431393 0.322624 0.126111
H28   H     H_    0.289815 0.554214 0.361461 0.134339
H29   H     H_    0.789590 0.931349 0.322421 0.126100
H30   H     H_    0.789815 0.054120 0.361621 0.134386
C63   C     C_3   0.189415 0.500163 0.188841 0.024797
C64   C     C_3   0.689415 0.000164 0.188842 0.024788
C65   C     C_3   0.229231 0.470448 0.188858 -0.167354
C66   C     C_3   0.229456 0.538086 0.210391 -0.172782
C67   C     C_3   0.729230 0.970502 0.188771 -0.167307
C68   C     C_3   0.729457 0.038112 0.210505 -0.172783
C69   C     C_3   0.270418 0.508336 0.211558 -0.171812
C70   C     C_3   0.770418 0.008414 0.211584 -0.171809
C71   C     C_3   0.310757 0.500192 0.310225 0.028390
C72   C     C_3   0.810757 0.000193 0.310226 0.028385
H31   H     H_    0.210344 0.446201 0.137480 0.134827
H32   H     H_    0.210958 0.569047 0.176697 0.143835
H33   H     H_    0.710343 0.946298 0.137321 0.134782
H34   H     H_    0.710960 0.069093 0.176905 0.143874
H35   H     H_    0.288597 0.515046 0.182079 0.145867
H36   H     H_    0.788598 0.015188 0.182127 0.145851
C73   C     C_3   0.729465 0.533966 0.761157 -0.166649
C74   C     C_3   0.729300 0.464623 0.757253 -0.164550
C75   C     C_3   0.229465 0.033968 0.761150 -0.166657
C76   C     C_3   0.229300 0.964625 0.757260 -0.164562
C77   C     C_3   0.770745 0.498619 0.829313 0.262397
C78   C     C_3   0.270745 0.998624 0.829314 0.262404
H37   H     H_    0.711112 0.561462 0.769022 0.134150
H38   H     H_    0.710802 0.436000 0.761942 0.132736
H39   H     H_    0.211112 0.061467 0.769009 0.134141
H40   H     H_    0.210802 0.936005 0.761955 0.132724
C79   C     C_3   0.810742 0.499967 0.810320 0.010281
C80   C     C_3   0.310742 0.999967 0.810320 0.010291
C81   C     C_3   0.770369 0.535245 0.742292 -0.213413
C82   C     C_3   0.770223 0.466075 0.738399 -0.213879
C83   C     C_3   0.270369 0.035243 0.742285 -0.213414
C84   C     C_3   0.270223 0.966072 0.738406 -0.213889
C85   C     C_3   0.728881 0.501348 0.669296 -0.163764
C86   C     C_3   0.228881 0.001343 0.669296 -0.163745
C87   C     C_3   0.689182 0.499986 0.689349 -0.013222
C88   C     C_3   0.189182 0.999986 0.689349 -0.013219
H41   H     H_    0.788750 0.563949 0.737623 0.149994
H42   H     H_    0.788527 0.438504 0.730631 0.148122
H43   H     H_    0.288750 0.063944 0.737611 0.149982
H44   H     H_    0.288527 0.938499 0.730644 0.148109
H45   H     H_    0.710214 0.502483 0.601965 0.152839
H46   H     H_    0.210214 0.002473 0.601965 0.152840
O17   O     O_R   0.447530 0.000000 0.354370 -0.629276
O18   O     O_R   0.947530 0.500000 0.354370 -0.629277
O19   O     O_R   0.552560 1.000000 0.459510 -0.625627
O20   O     O_R   0.052560 0.500000 0.459510 -0.625628
C89   C     C_R   0.499893 0.000089 0.378119 0.859972
C90   C     C_R   0.999893 0.500089 0.378119 0.859974
O21   O     O_R   0.447490 0.938400 0.447370 -0.616611
O22   O     O_R   0.447490 0.061600 0.447370 -0.619172
O23   O     O_R   0.947490 0.438400 0.447370 -0.616607
O24   O     O_R   0.947490 0.561600 0.447370 -0.619181
O25   O     O_R   0.552530 0.938390 0.552510 -0.617882
O26   O     O_R   0.552530 0.061610 0.552510 -0.619699
O27   O     O_R   0.052530 0.438390 0.552510 -0.617887
O28   O     O_R   0.052530 0.561610 0.552510 -0.619679
C91   C     C_R   0.499976 0.918721 0.500043 0.909899
C92   C     C_R   0.500036 0.081282 0.499974 0.904860
C93   C     C_R   0.999976 0.418721 0.500042 0.909886
C94   C     C_R   0.000036 0.581282 0.499974 0.904866
Zn5   Zn    Zn3+2 0.429870 1.000000 0.429720 0.944555
Zn6   Zn    Zn3+2 0.929870 0.500000 0.429720 0.944551
Zn7   Zn    Zn3+2 0.570140 1.000000 0.570120 0.944810
Zn8   Zn    Zn3+2 0.070140 0.500000 0.570120 0.944811
O29   O     O_R   0.447440 0.000000 0.540340 -0.626699
O30   O     O_R   0.947440 0.500000 0.540340 -0.626649
O31   O     O_R   0.552480 1.000000 0.645470 -0.629041
O32   O     O_R   0.052480 0.500000 0.645470 -0.629088
C95   C     C_R   0.500077 0.000276 0.621625 0.877502
C96   C     C_R   0.000078 0.500273 0.621626 0.877491
O33   O     O_R   0.000050 0.534770 0.093010 -0.628146
O34   O     O_R   0.000050 0.465230 0.093010 -0.626283
O35   O     O_R   0.500050 0.034770 0.093010 -0.628148
O36   O     O_R   0.500050 0.965230 0.093010 -0.626287
C97   C     C_R   0.999610 0.500047 0.121426 0.871130
C98   C     C_R   0.499610 0.000047 0.121426 0.871129
O37   O     O_R   0.093030 0.534780 0.092960 -0.629117
O38   O     O_R   0.093030 0.465220 0.092960 -0.627225
O39   O     O_R   0.593030 0.034780 0.092960 -0.629117
O40   O     O_R   0.593030 0.965220 0.092960 -0.627206
C99   C     C_R   0.121893 0.500037 0.121570 0.865754
C100  C     C_R   0.621893 0.000038 0.121571 0.865757
Zn9   Zn    Zn3+2 0.000000 0.546450 0.999940 0.932650
Zn10  Zn    Zn3+2 0.000000 0.453550 0.999940 0.937274
Zn11  Zn    Zn3+2 0.500000 0.046450 0.999940 0.932637
Zn12  Zn    Zn3+2 0.500000 0.953550 0.999940 0.937287
O41   O     O_R   0.999950 0.534800 0.906860 -0.630368
O42   O     O_R   0.999950 0.465200 0.906860 -0.628402
O43   O     O_R   0.499950 0.034800 0.906860 -0.630380
O44   O     O_R   0.499950 0.965200 0.906860 -0.628389
O45   O     O_R   0.906980 0.534790 0.906910 -0.629173
O46   O     O_R   0.906980 0.465210 0.906910 -0.628915
O47   O     O_R   0.406980 0.034790 0.906910 -0.629181
O48   O     O_R   0.406980 0.965210 0.906910 -0.628928
C101  C     C_R   0.000074 0.499988 0.878156 0.875678
C102  C     C_R   0.500071 0.999988 0.878153 0.875683
C103  C     C_R   0.878187 0.499984 0.877600 0.884243
C104  C     C_R   0.378187 0.999984 0.877601 0.884242
C105  C     C_3   0.537682 0.030757 0.308514 -0.161017
C106  C     C_3   0.519644 0.962703 0.290251 -0.155449
C107  C     C_3   0.037673 0.530762 0.308505 -0.161014
C108  C     C_3   0.019655 0.462705 0.290262 -0.155445
C109  C     C_3   0.057939 0.493244 0.287449 -0.154530
C110  C     C_3   0.557937 0.993236 0.287447 -0.154530
H47   H     H_    0.105725 0.487606 0.316550 0.120118
H48   H     H_    0.605722 0.987592 0.316546 0.120122
H49   H     H_    0.568978 0.055686 0.358707 0.134005
H50   H     H_    0.536188 0.932127 0.325555 0.127262
H51   H     H_    0.068962 0.555695 0.358691 0.133988
H52   H     H_    0.036207 0.432131 0.325575 0.127261
C111  C     C_3   0.999274 0.500183 0.188590 0.023563
C112  C     C_3   0.499274 0.000183 0.188590 0.023572
C113  C     C_3   0.979005 0.537690 0.208398 -0.173271
C114  C     C_3   0.960929 0.469648 0.190039 -0.163913
C115  C     C_3   0.479016 0.037693 0.208409 -0.173279
C116  C     C_3   0.460920 0.969653 0.190030 -0.163909
C117  C     C_3   0.440684 0.007129 0.211035 -0.167014
C118  C     C_3   0.940682 0.507121 0.211033 -0.167009
C119  C     C_3   0.499421 0.000193 0.310076 0.026041
C120  C     C_3   0.999421 0.500193 0.310076 0.026042
H53   H     H_    0.962292 0.568296 0.173180 0.143765
H54   H     H_    0.929551 0.444766 0.139753 0.137350
H55   H     H_    0.462312 0.068301 0.173200 0.143759
H56   H     H_    0.429535 0.944775 0.139737 0.137341
H57   H     H_    0.392709 0.012836 0.181198 0.149558
H58   H     H_    0.892705 0.512822 0.181194 0.149561
C121  C     C_3   0.555356 0.015590 0.785007 -0.211914
C122  C     C_3   0.452869 0.024331 0.682024 -0.208393
C123  C     C_3   0.055485 0.515387 0.785136 -0.211969
C124  C     C_3   0.953071 0.524501 0.682227 -0.208287
C125  C     C_3   0.008184 0.539679 0.778918 -0.166139
C126  C     C_3   0.507858 0.039709 0.778591 -0.166155
H59   H     H_    0.014672 0.572002 0.803998 0.150835
H60   H     H_    0.514083 0.072055 0.803405 0.150876
H61   H     H_    0.600222 0.028351 0.811747 0.151600
H62   H     H_    0.414299 0.044175 0.624797 0.147066
H63   H     H_    0.100455 0.527984 0.811982 0.151679
H64   H     H_    0.914663 0.544484 0.625160 0.146958
C127  C     C_3   0.000250 0.500017 0.810869 -0.015513
C128  C     C_3   0.500245 0.000018 0.810863 -0.015521
C129  C     C_3   0.047677 0.475730 0.818462 -0.169317
C130  C     C_3   0.945004 0.484832 0.715313 -0.166032
C131  C     C_3   0.547869 0.975904 0.818655 -0.169228
C132  C     C_3   0.445123 0.984634 0.715430 -0.166093
C133  C     C_3   0.492820 0.961113 0.722136 0.258882
C134  C     C_3   0.992508 0.461138 0.721825 0.258815
C135  C     C_3   0.500341 0.000273 0.689386 0.014376
C136  C     C_3   0.000345 0.500269 0.689391 0.014374
H65   H     H_    0.085953 0.455652 0.875462 0.133445
H66   H     H_    0.900173 0.472153 0.688844 0.128998
H67   H     H_    0.586307 0.955967 0.875820 0.133320
H68   H     H_    0.400396 0.971792 0.689063 0.129087
C137  C     C_3   0.796467 0.497077 0.921667 -0.964926
H69   H     H_    0.757043 0.496412 0.916017 0.249171
H70   H     H_    0.825488 0.468440 0.956848 0.240374
H71   H     H_    0.825901 0.525231 0.960253 0.241715
C138  C     C_3   0.296467 0.997088 0.921667 -0.964927
H72   H     H_    0.257043 0.996425 0.916017 0.249175
H73   H     H_    0.325488 0.968452 0.956854 0.240368
H74   H     H_    0.325900 0.025243 0.960248 0.241716
C139  C     C_3   0.484383 0.916732 0.688529 -0.956746
H75   H     H_    0.525440 0.908009 0.700529 0.241211
H76   H     H_    0.480258 0.894433 0.724118 0.247035
H77   H     H_    0.441236 0.915084 0.616159 0.247133
C140  C     C_3   0.983713 0.416787 0.687861 -0.956630
H78   H     H_    0.024696 0.407915 0.699781 0.241069
H79   H     H_    0.979414 0.394504 0.723278 0.247009
H80   H     H_    0.940550 0.415293 0.615481 0.247270

loop_
_geom_bond_atom_site_label_1
_geom_bond_atom_site_label_2
_geom_bond_distance
_ccdc_geom_bond_type
C76   C84   1.548576 S    
C131  C133  1.539109 S    
Zn12  O48   2.018120 S    
C111  C114  1.529926 S    
C79   C103  1.438016 S    
C78   C138  1.521365 S    
C121  C135  1.533349 S    
C79   C82   1.532525 S    
Zn9   O45   2.017344 S    
C9    C13   1.548211 S    
C122  C126  1.545231 S    
C139  H77   1.109864 S    
C11   C27   1.548120 S    
C20   C52   1.195792 T    
C32   C52   1.448872 S    
C108  H52   1.110202 S    
O9    C3    1.282938 A    
C129  C134  1.539119 S    
O10   C4    1.282921 A    
O8    Zn2   1.997477 S    
O40   Zn12  2.017611 S    
Zn10  O46   2.018120 S    
C81   C85   1.545286 S    
C62   H26   1.110336 S    
O5    C3    1.283063 A    
C57   H27   1.110211 S    
O6    C4    1.283022 A    
C59   C67   1.546091 S    
C112  C116  1.529924 S    
C116  C117  1.543797 S    
O32   C96   1.274887 A    
C9    C37   1.533851 S    
C107  C109  1.545972 S    
O25   C91   1.283009 A    
C65   H31   1.110253 S    
C6    C20   1.418429 S    
C123  H63   1.110206 S    
C16   C48   1.548181 S    
O27   C93   1.283009 A    
C106  H50   1.110202 S    
C89   C119  1.440665 S    
Zn1   O13   2.017080 S    
C110  C112  1.529428 S    
C86   H46   1.110234 S    
C36   C40   1.533866 S    
C30   C42   1.533876 S    
C25   H21   1.110143 S    
C134  C140  1.520525 S    
C118  C120  1.531963 S    
O30   C96   1.275301 A    
C73   C77   1.539077 S    
C131  H67   1.110338 S    
C77   C79   1.523470 S    
O5    Zn1   1.996162 S    
C132  H68   1.110382 S    
C121  C131  1.547701 S    
C57   C65   1.546088 S    
C117  H57   1.110236 S    
C19   C51   1.195856 T    
C75   C83   1.548074 S    
C22   C54   1.195794 T    
C129  H65   1.110345 S    
C64   C100  1.439691 S    
C28   H24   1.110132 S    
C25   C29   1.533833 S    
C95   C135  1.439093 S    
C96   C136  1.439102 S    
C27   C31   1.533835 S    
C113  C118  1.544338 S    
C28   C32   1.533850 S    
C42   H14   1.110138 S    
O39   C100  1.266196 A    
C34   C38   1.533863 S    
O8    C6    1.283022 A    
O43   C102  1.266229 A    
C3    C17   1.418538 S    
C122  C135  1.532816 S    
C68   C70   1.544385 S    
C73   C87   1.532809 S    
C13   C29   1.533926 S    
C41   C45   1.548334 S    
C15   C31   1.533929 S    
C133  C135  1.523625 S    
C16   C32   1.533864 S    
C43   C47   1.548337 S    
C63   C65   1.529974 S    
C121  H61   1.110199 S    
C37   C45   1.533833 S    
C26   H22   1.110132 S    
C80   C83   1.532805 S    
C39   C47   1.533834 S    
C61   H25   1.110334 S    
C11   H7    1.110134 S    
C12   C16   1.548195 S    
C61   C63   1.529498 S    
C110  H48   1.110338 S    
C24   C56   1.195791 T    
C60   C72   1.530006 S    
C34   C42   1.548218 S    
C102  C128  1.438403 S    
C27   C35   1.548094 S    
C73   H37   1.110249 S    
Zn12  O44   2.018494 S    
C90   C120  1.440665 S    
C58   C71   1.530001 S    
C43   H15   1.110133 S    
O21   C91   1.283037 A    
C11   C39   1.533849 S    
C105  C110  1.545974 S    
C140  H78   1.110014 S    
C35   H19   1.110140 S    
Zn9   O41   2.017197 S    
C69   C71   1.531426 S    
C12   H8    1.110132 S    
C122  C132  1.548774 S    
O6    Zn1   1.997477 S    
C125  C127  1.533098 S    
C10   C14   1.548195 S    
O17   C89   1.274709 A    
O18   C90   1.274709 A    
C60   H30   1.110220 S    
C127  C130  1.532248 S    
C114  C118  1.543794 S    
O9    Zn3   1.997784 S    
O40   C100  1.267158 A    
O4    Zn4   2.017080 S    
O48   C104  1.266369 A    
C137  H70   1.109921 S    
C128  C131  1.532561 S    
C76   C78   1.538879 S    
C115  C117  1.544335 S    
C44   H16   1.110137 S    
O26   C92   1.283078 A    
C65   C69   1.543905 S    
C42   C46   1.548200 S    
O24   C94   1.283043 A    
C123  C129  1.547674 S    
C37   C53   1.448828 S    
O20   Zn8   2.016896 S    
O28   Zn8   1.997171 S    
Zn3   O15   2.020256 S    
C9    H5    1.110132 S    
C74   C87   1.532821 S    
C10   H6    1.110133 S    
O14   C8    1.274810 A    
C21   C53   1.195734 T    
C111  C113  1.530766 S    
C36   C44   1.548222 S    
C105  H49   1.110199 S    
C114  H54   1.110255 S    
O34   C97   1.266721 A    
O11   C5    1.282936 A    
O35   Zn11  2.018462 S    
O12   Zn4   1.996474 S    
C40   C48   1.533852 S    
C29   C49   1.448979 S    
C79   C81   1.532804 S    
C13   C45   1.548340 S    
C31   C43   1.533918 S    
O47   C104  1.266092 A    
O29   C95   1.275287 A    
C83   H43   1.110192 S    
C139  H76   1.109615 S    
C126  H60   1.110236 S    
C23   C55   1.195731 T    
C74   C82   1.548579 S    
C64   C67   1.529968 S    
O3    Zn3   2.017080 S    
O37   C99   1.266201 A    
Zn8   O32   2.020183 S    
C35   C43   1.548188 S    
C130  H66   1.110395 S    
C140  H80   1.109862 S    
O45   C103  1.266090 A    
H9    C45   1.110179 S    
C101  C127  1.438390 S    
C69   H35   1.110216 S    
C26   C30   1.533850 S    
C83   C86   1.545287 S    
C123  C136  1.533365 S    
C22   C92   1.418441 S    
Zn11  O47   2.017344 S    
C75   C78   1.539078 S    
C108  C120  1.529708 S    
C5    C19   1.418538 S    
C60   C62   1.546074 S    
C80   C104  1.438016 S    
C12   C40   1.533874 S    
O22   Zn5   1.996109 S    
O18   Zn6   2.020182 S    
O26   Zn7   1.997171 S    
C36   H20   1.110136 S    
C105  C119  1.529885 S    
O1    C1    1.275042 A    
C4    C18   1.418429 S    
C73   C81   1.548072 S    
C76   H40   1.110252 S    
C14   C30   1.533865 S    
C58   C61   1.546073 S    
C59   H29   1.110212 S    
C17   C49   1.195856 T    
O38   C99   1.267153 A    
C10   C38   1.533876 S    
C107  H51   1.110201 S    
O46   C103  1.266372 A    
O33   Zn9   2.018462 S    
O24   Zn6   1.996109 S    
O23   C93   1.283037 A    
Zn6   O30   2.017276 S    
C60   C68   1.544064 S    
C21   C91   1.418288 S    
C30   C50   1.448869 S    
O19   C89   1.276616 A    
C138  H72   1.109543 S    
C24   C94   1.418441 S    
O20   C90   1.276616 A    
C82   C85   1.545224 S    
C23   C93   1.418291 S    
C85   C87   1.533388 S    
C86   C88   1.533384 S    
O1    Zn1   2.020258 S    
C8    C88   1.439409 S    
O2    Zn2   2.020258 S    
C124  H64   1.110189 S    
C44   C48   1.548202 S    
O4    C2    1.276143 A    
C67   C70   1.543906 S    
H10   C46   1.110141 S    
C106  C119  1.529709 S    
C29   C41   1.533921 S    
O34   Zn10  2.017162 S    
C57   C71   1.529748 S    
C31   C51   1.448979 S    
C15   H3    1.110137 S    
C75   H39   1.110247 S    
O33   C97   1.265981 A    
O21   Zn5   1.996899 S    
O37   Zn9   2.018388 S    
O7    Zn2   1.996162 S    
O22   C92   1.283043 A    
C124  C125  1.545233 S    
C39   C55   1.448828 S    
C84   C86   1.545223 S    
C9    C25   1.548117 S    
O42   C101  1.267462 A    
C11   C15   1.548220 S    
C58   H28   1.110219 S    
C74   C77   1.538882 S    
O25   Zn7   1.996390 S    
C12   C28   1.548223 S    
O36   C98   1.266720 A    
C112  C115  1.530764 S    
C18   C50   1.195792 T    
C66   H32   1.110226 S    
C63   C99   1.439689 S    
C80   C84   1.532524 S    
C25   C33   1.548095 S    
C133  C139  1.520541 S    
O3    C1    1.276147 A    
C70   H36   1.110217 S    
C113  H53   1.110222 S    
C82   H42   1.110193 S    
C41   H13   1.110132 S    
C117  C119  1.531962 S    
C33   C37   1.533856 S    
O11   Zn4   1.997784 S    
C35   C39   1.533859 S    
C13   H1    1.110149 S    
C106  C116  1.546125 S    
O28   C94   1.283078 A    
C28   C36   1.548229 S    
C84   H44   1.110194 S    
Zn4   O16   2.020256 S    
C138  H74   1.110018 S    
C122  H62   1.110184 S    
O36   Zn12  2.017162 S    
C59   C72   1.529747 S    
C38   C46   1.533853 S    
C27   H23   1.110135 S    
O12   C6    1.282921 A    
H11   C47   1.110169 S    
Zn10  O42   2.018494 S    
C81   H41   1.110191 S    
C97   C111  1.439204 S    
C62   C64   1.529499 S    
C109  H47   1.110340 S    
C78   C80   1.523470 S    
C127  C129  1.532570 S    
C130  C134  1.538174 S    
C1    C71   1.440436 S    
C33   C41   1.548184 S    
C15   C47   1.548343 S    
C26   C34   1.548230 S    
C106  C110  1.544971 S    
C125  H59   1.110243 S    
Zn11  O43   2.017197 S    
C121  C126  1.545841 S    
O13   C7    1.274809 A    
C137  H69   1.109545 S    
O38   Zn10  2.017611 S    
C128  C132  1.532247 S    
C63   C66   1.531024 S    
C85   H45   1.110233 S    
O17   Zn5   2.020182 S    
C77   C137  1.521364 S    
C105  C115  1.544370 S    
O2    C2    1.275046 A    
C40   C56   1.448880 S    
C70   C72   1.531422 S    
C57   C61   1.545011 S    
C76   C88   1.532822 S    
Zn2   O14   2.017080 S    
C16   H4    1.110144 S    
C107  C113  1.544370 S    
C108  C109  1.544972 S    
O35   C98   1.265980 A    
Zn7   O31   2.020183 S    
O10   Zn3   1.996474 S    
C123  C125  1.545852 S    
C134  C136  1.523619 S    
Zn5   O29   2.017276 S    
C132  C133  1.538187 S    
O41   C101  1.266238 A    
C139  H75   1.109986 S    
C32   C44   1.533875 S    
C75   C88   1.532809 S    
C64   C68   1.531029 S    
C107  C120  1.529887 S    
O19   Zn7   2.016896 S    
C98   C112  1.439209 S    
O7    C5    1.283065 A    
C140  H79   1.109618 S    
C124  C130  1.548796 S    
C118  H58   1.110237 S    
C2    C72   1.440434 S    
C38   C54   1.448877 S    
C126  C128  1.533100 S    
C14   H2    1.110146 S    
C124  C136  1.532804 S    
C74   H38   1.110249 S    
O39   Zn11  2.018388 S    
C109  C111  1.529429 S    
O15   C7    1.275922 A    
C115  H55   1.110224 S    
O16   C8    1.275919 A    
C66   C69   1.544385 S    
C34   H18   1.110137 S    
H12   C48   1.110142 S    
C138  H73   1.109920 S    
C14   C46   1.548183 S    
C67   H33   1.110258 S    
C10   C26   1.548223 S    
C33   H17   1.110150 S    
C59   C62   1.545008 S    
C108  C114  1.546124 S    
C137  H71   1.110017 S    
C116  H56   1.110256 S    
C58   C66   1.544071 S    
C7    C87   1.439407 S    
O44   C102  1.267471 A    
C68   H34   1.110228 S    
O23   Zn6   1.996899 S    
O27   Zn8   1.996390 S    
O31   C95   1.274903 A    
