data_mof_unit_34878.cif
_audit_creation_date              2012-12-10T19:02:19-0500
_audit_creation_method            fapswitch 2.2
_symmetry_space_group_name_H-M    P1
_symmetry_Int_Tables_number       1
_space_group_crystal_system       triclinic
_cell_length_a                    14.343014
_cell_length_b                    10.87531
_cell_length_c                    9.54197
_cell_angle_alpha                 90.779839
_cell_angle_beta                  90.015739
_cell_angle_gamma                 90.222041
_cell_volume                      1488.25243441

loop_
_atom_site_label
_atom_site_type_symbol
_atom_type_description
_atom_site_fract_x
_atom_site_fract_y
_atom_site_fract_z
_atom_type_partial_charge
C1    C     C_R   0.495650 0.262372 0.498441 0.789878
C2    C     C_1   0.771229 0.500186 0.500052 -0.111399
C3    C     C_R   0.519733 0.066881 0.614502 0.131493
C4    C     C_R   0.493179 0.128540 0.493773 -0.152727
C5    C     C_R   0.467732 0.059689 0.371205 0.074410
C6    C     C_R   0.475673 0.931166 0.374830 -0.200330
C7    C     C_R   0.498343 0.870849 0.499386 -0.131426
C8    C     C_R   0.521568 0.940038 0.618329 0.153029
C9    C     C_3   0.477370 0.938670 0.760411 -0.477874
C10   C     C_3   0.475467 0.077239 0.755534 -0.452575
C11   C     C_R   0.577263 0.536570 0.074370 0.227994
C12   C     C_R   0.331047 0.499918 0.500003 0.797089
C13   C     C_R   0.427445 0.451610 0.073573 -0.087892
C14   C     C_R   0.427261 0.452065 0.924819 -0.080600
C15   C     C_R   0.578162 0.534012 0.926783 0.243523
C16   C     C_3   0.627614 0.655093 0.920167 -0.352496
C17   C     C_3   0.623467 0.660010 0.080926 -0.346521
C18   C     C_R   0.499111 0.737619 0.500636 0.819488
C19   C     C_R   0.668934 0.500080 0.499990 0.837222
C20   C     C_1   0.228727 0.499990 0.499980 -0.202666
C21   C     C_1   0.143313 0.500112 0.500033 -0.003842
C22   C     C_1   0.042664 0.500270 0.500140 0.018926
C23   C     C_1   0.957253 0.500342 0.500218 0.017601
C24   C     C_1   0.856626 0.500295 0.500222 0.025990
Cu1   Cu    Cu3+1 0.500000 0.499980 0.640670 0.954326
Cu2   Cu    Cu3+1 0.500000 0.500020 0.359330 0.946883
H1    H     H_    0.583537 0.724416 0.869304 0.151019
H2    H     H_    0.575565 0.732987 0.120331 0.154954
H3    H     H_    0.459577 0.876621 0.282455 0.158274
H4    H     H_    0.406821 0.895836 0.760276 0.202012
H5    H     H_    0.525037 0.906581 0.843325 0.201165
H6    H     H_    0.403765 0.115384 0.750297 0.196127
H7    H     H_    0.522173 0.122353 0.833955 0.216796
H8    H     H_    0.368153 0.413802 0.128342 0.145157
H9    H     H_    0.367736 0.414856 0.868896 0.142976
N1    N     N_R   0.500540 0.500930 0.147930 -0.192479
N2    N     N_R   0.500540 0.500890 0.852020 -0.191769
O1    O     O_R   0.500000 0.319640 0.618810 -0.567279
O2    O     O_R   0.500010 0.319680 0.381230 -0.587534
O3    O     O_R   0.376050 0.499980 0.618820 -0.567895
O4    O     O_R   0.376060 0.500020 0.381230 -0.570838
O5    O     O_R   0.499990 0.680320 0.618770 -0.582789
O6    O     O_R   0.500000 0.680360 0.381190 -0.583112
O7    O     O_R   0.623940 0.499980 0.618770 -0.544459
O8    O     O_R   0.623950 0.500020 0.381180 -0.552773
C25   C     C_3   0.425670 0.122106 0.243342 -0.358645
C26   C     C_3   0.372574 0.038058 0.139473 -0.383274
C27   C     C_3   0.316627 0.113769 0.035594 -0.845287
H10   H     H_    0.259536 0.163413 0.090651 0.254241
H11   H     H_    0.362351 0.181989 0.983779 0.246110
H12   H     H_    0.285502 0.052005 0.954473 0.251053
H13   H     H_    0.422876 0.980032 0.079888 0.223613
H14   H     H_    0.323247 0.977734 0.196781 0.229611
H15   H     H_    0.374708 0.191547 0.282015 0.205268
H16   H     H_    0.482054 0.169860 0.185259 0.221996
C28   C     C_2   0.715307 0.658141 0.158222 0.935731
O9    O     O_2   0.735682 0.743724 0.236893 -0.593543
O10   O     O_R   0.776180 0.558783 0.141730 -0.735109
H17   H     H_    0.835682 0.569739 0.197918 0.328931
C29   C     C_2   0.723896 0.648330 0.856155 0.938094
O11   O     O_2   0.761836 0.549199 0.835034 -0.561286
O12   O     O_R   0.769728 0.757479 0.822179 -0.756177
H18   H     H_    0.833572 0.742470 0.779836 0.333617

loop_
_geom_bond_atom_site_label_1
_geom_bond_atom_site_label_2
_ccdc_geom_bond_type
C25   H16   S    
C12   O3    A    
C23   C24   S    
C19   O8    A    
C8    C9    S    
C26   H13   S    
C12   O4    A    
C13   C14   A    
Cu1   O1    S    
C10   H7    S    
C5    C25   S    
C26   C27   S    
C19   O7    A    
C26   H14   S    
C7    C18   S    
C12   C20   S    
C16   H1    S    
C27   H11   S    
C2    C19   S    
C7    C8    A    
C3    C10   S    
C21   C22   S    
C28   O9    D    
C14   N2    A    
C17   C28   S    
C25   H15   S    
O12   H18   S    
Cu1   O5    S    
C9    H4    S    
C16   C29   S    
C1    O1    A    
Cu1   O7    S    
Cu2   N1    S    
C11   N1    A    
Cu1   Cu2   S    
C28   O10   S    
Cu2   O6    S    
C6    C7    A    
C18   O5    A    
Cu1   O3    S    
C2    C24   T    
C5    C6    A    
Cu2   O2    S    
C27   H12   S    
C1    C4    S    
C16   C17   S    
C9    H5    S    
C3    C4    A    
C10   H6    S    
C4    C5    A    
C6    H3    S    
C20   C21   T    
C13   N1    A    
C29   O12   S    
C3    C8    A    
C9    C10   S    
C14   H9    S    
C1    O2    A    
C25   C26   S    
C27   H10   S    
C13   H8    S    
Cu2   O8    S    
Cu1   N2    S    
O10   H17   S    
C18   O6    A    
C17   H2    S    
C11   C15   A    
C22   C23   T    
C15   N2    A    
C15   C16   S    
Cu2   O4    S    
C29   O11   D    
C11   C17   S    
