data_mof_unit_57902.cif
_audit_creation_date              2013-03-05T15:43:51-0500
_audit_creation_method            fapswitch 2.2
_symmetry_space_group_name_H-M    P1
_symmetry_Int_Tables_number       1
_space_group_crystal_system       triclinic
_cell_length_a                    10.193373
_cell_length_b                    10.646602
_cell_length_c                    15.039852
_cell_angle_alpha                 89.883794
_cell_angle_beta                  69.13813
_cell_angle_gamma                 87.092831
_cell_volume                      1523.00491722

loop_
_atom_site_label
_atom_site_type_symbol
_atom_site_description
_atom_site_fract_x
_atom_site_fract_y
_atom_site_fract_z
_atom_type_partial_charge
O1    O     O_R   0.386950 0.680940 0.500010 -0.517409
O2    O     O_R   0.613110 0.680900 0.499990 -0.612529
C1    C     C_R   0.500724 0.736909 0.492433 0.900878
O3    O     O_R   0.322330 0.500030 0.632270 -0.575117
O4    O     O_R   0.548480 0.499990 0.632240 -0.560178
C2    C     C_R   0.411874 0.498116 0.677006 0.906227
Zn1   Zn    Zn3+2 0.349000 0.500030 0.500020 1.107425
Zn2   Zn    Zn3+2 0.651000 0.499970 0.499980 1.103450
O5    O     O_R   0.386890 0.319100 0.500010 -0.619476
O6    O     O_R   0.613050 0.319060 0.499990 -0.589411
O7    O     O_R   0.451520 0.500010 0.367760 -0.619405
O8    O     O_R   0.677670 0.499970 0.367730 -0.539929
C3    C     C_R   0.504365 0.262761 0.498490 0.937919
C4    C     C_R   0.588465 0.497079 0.322800 0.945442
C5    C     C_R   0.359714 0.470340 0.779580 -0.210958
C6    C     C_R   0.640872 0.468328 0.219289 -0.193699
C7    C     C_R   0.189200 0.367213 0.912087 0.001503
C8    C     C_R   0.228629 0.418605 0.821288 -0.139413
C9    C     C_R   0.448439 0.474548 0.832288 0.385589
C10   C     C_R   0.418663 0.401496 0.914984 -0.047905
C11   C     C_R   0.283071 0.358594 0.960900 -0.048603
C12   C     C_R   0.521137 0.371578 0.953675 0.024423
C13   C     C_R   0.482032 0.346690 0.051055 -0.028723
C14   C     C_R   0.345186 0.305318 0.100063 0.214036
C15   C     C_R   0.247394 0.306363 0.052866 0.284918
C16   C     C_R   0.661878 0.348854 0.895528 -0.128514
C17   C     C_R   0.762807 0.331875 0.936854 0.364376
C18   C     C_R   0.726268 0.375124 0.031518 -0.026718
C19   C     C_R   0.584037 0.370106 0.092052 0.089831
C20   C     C_R   0.813476 0.454303 0.057993 0.139221
C21   C     C_R   0.778704 0.489619 0.154847 0.437794
C22   C     C_R   0.544045 0.417095 0.184546 -0.182957
H1    H     H_    0.434156 0.422050 0.228394 0.215403
H2    H     H_    0.085745 0.333411 0.943022 0.228727
H3    H     H_    0.155948 0.419395 0.783723 0.234095
H4    H     H_    0.688516 0.326144 0.820739 0.162487
C23   C     C_2   0.624545 0.060887 0.439960 0.441720
C24   C     C_2   0.514519 0.129516 0.499913 -0.380358
H5    H     H_    0.428489 0.085432 0.553955 0.161528
C25   C     C_2   0.623492 0.926572 0.451518 -0.279861
C26   C     C_2   0.506880 0.865688 0.463306 0.084761
H6    H     H_    0.716537 0.879960 0.458576 0.182756
C27   C     C_2   0.072008 0.401701 0.508751 -0.036594
N1    N     N_2   0.148330 0.498670 0.499030 0.046215
H7    H     H_    0.123115 0.308872 0.504103 0.155286
C28   C     C_2   0.916595 0.406664 0.525998 0.046394
N2    N     N_2   0.852680 0.498640 0.499000 -0.124437
H8    H     H_    0.857334 0.326562 0.559079 0.146120
H9    H     H_    0.915976 0.561129 0.453151 0.231224
Br1   Br    Br    0.066897 0.236993 0.115414 -0.209495
Br2   Br    Br    0.923600 0.563668 0.960248 -0.354781
S1    S     S_3+6 0.769035 0.122305 0.348511 0.124026
O9    O     O_2   0.716480 0.214639 0.291701 -0.247227
O10   O     O_2   0.861023 0.187743 0.390704 -0.279040
O11   O     O_3   0.864212 0.004946 0.275556 -0.425674
H10   H     H_    0.928029 0.969162 0.306986 0.374427
Br3   Br    Br    0.354490 0.935708 0.426439 -0.325686
S2    S     S_3+6 0.069118 0.643998 0.550901 0.148505
O12   O     O_2   0.086366 0.737497 0.473068 -0.272126
O13   O     O_2   0.916440 0.640401 0.610758 -0.241964
O14   O     O_3   0.145787 0.696200 0.624824 -0.466379
H11   H     H_    0.112550 0.785677 0.637985 0.392987
S3    S     S_3+6 0.901553 0.567310 0.192886 0.101351
O15   O     O_2   0.945483 0.482513 0.258539 -0.266776
O16   O     O_2   0.031822 0.599020 0.111793 -0.204710
O17   O     O_3   0.823115 0.700823 0.251912 -0.517443
H12   H     H_    0.876167 0.719798 0.293682 0.378985
S4    S     S_3+6 0.882691 0.201417 0.892258 0.061074
O18   O     O_2   0.940441 0.153954 0.965647 -0.195072
O19   O     O_2   0.806885 0.097127 0.867547 -0.232736
O20   O     O_3   0.014330 0.238961 0.792955 -0.566313
H13   H     H_    0.967822 0.268891 0.748532 0.350267
S5    S     S_3+6 0.573113 0.593051 0.809715 0.082423
O21   O     O_2   0.714124 0.538825 0.746521 -0.283969
O22   O     O_2   0.529876 0.703256 0.761780 -0.243957
O23   O     O_3   0.584237 0.642832 0.912780 -0.503724
H14   H     H_    0.665020 0.697665 0.893854 0.420724
Br4   Br    Br    0.302111 0.217616 0.219206 -0.315253

loop_
_geom_bond_atom_site_label_1
_geom_bond_atom_site_label_2
_geom_bond_distance
_ccdc_geom_bond_type
C5    C8    1.399482 A    
C20   Br2   1.930610 S    
S3    O16   1.501683 D    
S5    O21   1.499246 D    
C9    C10   1.412461 A    
O11   H10   0.992424 S    
N2    H9    1.029179 S    
C6    C21   1.423461 A    
Zn1   O7    1.888997 S    
C16   C17   1.383295 A    
C13   C19   1.416687 A    
C18   C19   1.414648 A    
C19   C22   1.389188 A    
C20   C21   1.417684 A    
O7    C4    1.315374 A    
S2    O13   1.497333 D    
O5    C3    1.304582 A    
C15   Br1   1.928173 S    
C17   S4    1.766407 S    
C2    C5    1.476467 S    
N1    S2    1.756150 S    
S4    O18   1.500160 D    
C13   C14   1.418388 A    
C8    H3    1.079642 S    
S1    O11   1.682490 S    
S2    O14   1.679631 S    
C25   H6    1.086655 S    
O17   H12   0.990680 S    
S3    O17   1.682912 S    
S5    O22   1.503673 D    
O3    Zn1   1.909185 S    
S1    O10   1.503038 D    
C24   H5    1.087418 S    
C28   H8    1.084526 S    
C21   S3    1.787973 S    
C9    S5    1.782054 S    
O23   H14   0.990476 S    
O3    C2    1.312134 A    
C23   S1    1.771938 S    
S2    O12   1.502852 D    
C7    C11   1.397897 A    
O1    C1    1.299523 A    
C5    C9    1.401159 A    
C27   N1    1.300886 D    
C23   C24   1.343149 D    
Zn2   O8    1.909182 S    
C7    C8    1.397904 A    
Zn1   N1    2.051638 S    
C14   C15   1.414384 A    
C27   H7    1.084044 S    
C3    C24   1.417809 S    
C16   H4    1.083664 S    
C25   C26   1.338702 D    
C10   C12   1.389098 A    
S5    O23   1.682591 S    
C4    C6    1.481779 S    
C7    H2    1.070714 S    
C23   C25   1.440294 S    
S1    O9    1.500865 D    
C14   Br4   1.936470 S    
Zn1   O5    1.945317 S    
C11   C15   1.419058 A    
C28   N2    1.292411 D    
C1    C26   1.436090 S    
O1    Zn1   1.983671 S    
Zn2   O6    1.983671 S    
O2    Zn2   1.945315 S    
O8    C4    1.313383 A    
O6    C3    1.293195 A    
O4    Zn2   1.888999 S    
C6    C22   1.402783 A    
C22   H1    1.077228 S    
C18   C20   1.410274 A    
O2    C1    1.305389 A    
Zn2   N2    2.049926 S    
C26   Br3   1.941766 S    
O20   H13   0.990998 S    
O4    C2    1.314428 A    
S4    O20   1.677946 S    
O14   H11   0.990814 S    
C27   C28   1.509508 S    
S3    O15   1.503619 D    
C10   C11   1.406687 A    
S4    O19   1.503759 D    
C12   C16   1.397698 A    
C17   C18   1.409032 A    
C12   C13   1.402662 A    
