data_mof_unit_27929.cif
_audit_creation_date              2012-12-11T14:29:48-0500
_audit_creation_method            fapswitch 2.2
_symmetry_space_group_name_H-M    P1
_symmetry_Int_Tables_number       1
_space_group_crystal_system       triclinic
_cell_length_a                    6.938548
_cell_length_b                    14.639891
_cell_length_c                    16.37762
_cell_angle_alpha                 90.294271
_cell_angle_beta                  90.140577
_cell_angle_gamma                 89.986413
_cell_volume                      1663.60487488

loop_
_atom_site_label
_atom_site_type_symbol
_atom_type_description
_atom_site_fract_x
_atom_site_fract_y
_atom_site_fract_z
_atom_type_partial_charge
O1    O     O_R   0.494400 0.416610 0.413880 -0.548803
O2    O     O_R   0.823920 0.406790 0.585520 -0.542034
O3    O     O_R   0.994250 0.583390 0.586120 -0.543324
C1    C     C_R   0.654854 0.385114 0.613571 0.740161
O4    O     O_R   0.824110 0.405730 0.414490 -0.545699
O5    O     O_R   0.994440 0.582310 0.413870 -0.529831
C2    C     C_R   0.654783 0.383734 0.386292 0.731002
O6    O     O_R   0.494210 0.417690 0.586130 -0.548443
O7    O     O_3   0.660810 0.557940 0.500000 -0.364910
V1    V     V_3+5 0.935650 0.489250 0.500000 1.424115
O8    O     O_R   0.324160 0.593210 0.414480 -0.538078
C3    C     C_R   0.156053 0.611378 0.383658 0.812514
O9    O     O_R   0.323970 0.594270 0.585510 -0.527695
C4    C     C_R   0.154702 0.619154 0.611824 0.735081
V2    V     V_3+5 0.435660 0.510750 0.500000 1.441811
O10   O     O_3   0.160630 0.442060 0.500000 -0.383557
H1    H     H_    0.790421 0.908010 0.533954 0.130511
C5    C     C_R   0.322136 0.581925 0.769145 -0.144836
C6    C     C_R   0.405747 0.560564 0.844013 -0.124778
C7    C     C_R   0.396838 0.622280 0.908421 -0.121349
C8    C     C_R   0.303119 0.705555 0.898582 -0.134301
C9    C     C_R   0.218826 0.729926 0.822851 0.073123
C10   C     C_R   0.229849 0.667224 0.756155 0.069305
C11   C     C_R   0.118074 0.813466 0.814283 -0.180420
C12   C     C_R   0.027007 0.834450 0.739087 0.071518
C13   C     C_R   0.047814 0.775264 0.669678 0.032816
C14   C     C_R   0.146060 0.689212 0.679117 -0.186885
C15   C     C_R   0.918777 0.916189 0.731319 -0.142668
C16   C     C_R   0.826050 0.938328 0.659404 -0.127204
C17   C     C_R   0.851755 0.884512 0.591057 -0.164114
C18   C     C_R   0.969052 0.806601 0.593667 -0.071325
H2    H     H_    0.329699 0.529814 0.722371 0.111399
H3    H     H_    0.476238 0.495254 0.852270 0.115380
H4    H     H_    0.460383 0.605007 0.966775 0.110561
H5    H     H_    0.295149 0.749604 0.951642 0.107332
H6    H     H_    0.903824 0.965273 0.780162 0.124550
H7    H     H_    0.741824 0.000465 0.655517 0.127609
C19   C     C_2   0.987816 0.701222 0.276093 -0.090254
C20   C     C_2   0.151658 0.677288 0.315213 -0.238429
H8    H     H_    0.852672 0.670403 0.294793 0.141788
H9    H     H_    0.288763 0.706549 0.297929 0.118933
C21   C     C_2   0.974975 0.769698 0.208948 -0.135805
C22   C     C_2   0.127087 0.813179 0.176035 -0.308375
H10   H     H_    0.831429 0.784504 0.185963 0.135770
H11   H     H_    0.271941 0.798934 0.197108 0.130541
C23   C     C_2   0.779058 0.207326 0.781103 -0.139277
C24   C     C_2   0.613830 0.179446 0.816466 -0.315317
H12   H     H_    0.915050 0.178944 0.801995 0.136421
H13   H     H_    0.475834 0.206102 0.796945 0.128594
C25   C     C_2   0.791426 0.275695 0.714048 -0.132178
C26   C     C_2   0.638505 0.317751 0.680094 -0.311926
H14   H     H_    0.935009 0.291548 0.691986 0.134912
H15   H     H_    0.493731 0.303230 0.700744 0.127153
C27   C     C_2   0.778824 0.209137 0.214037 -0.126951
C28   C     C_2   0.613910 0.181651 0.177489 -0.309618
H16   H     H_    0.914862 0.180828 0.193156 0.137574
H17   H     H_    0.476207 0.209218 0.196406 0.127189
C29   C     C_2   0.791106 0.277417 0.282020 -0.134967
C30   C     C_2   0.637953 0.315696 0.319397 -0.307405
H18   H     H_    0.935113 0.296174 0.302108 0.133104
H19   H     H_    0.492807 0.297673 0.301057 0.128806
O11   O     O_R   0.770210 0.079270 0.910680 -0.542836
O12   O     O_R   0.440150 0.091160 0.082270 -0.545220
O13   O     O_R   0.269970 0.914530 0.082860 -0.544082
C31   C     C_R   0.608870 0.113229 0.110510 0.746953
O14   O     O_R   0.440480 0.090100 0.911240 -0.544542
O15   O     O_R   0.270310 0.913460 0.910610 -0.536788
C32   C     C_R   0.608978 0.111686 0.883067 0.742342
O16   O     O_R   0.769870 0.080340 0.082930 -0.538068
O17   O     O_3   0.603660 0.938980 0.996790 -0.370953
V3    V     V_3+5 0.328750 0.007610 0.996740 1.405782
O18   O     O_R   0.940600 0.902510 0.911180 -0.542711
C33   C     C_R   0.109320 0.879996 0.883504 0.688704
O19   O     O_R   0.940270 0.903570 0.082200 -0.539924
C34   C     C_R   0.109753 0.881346 0.109928 0.740792
V4    V     V_3+5 0.828770 0.986010 0.996670 1.414301
O20   O     O_3   0.103730 0.054750 0.996710 -0.373866
C35   C     C_2   0.028026 0.772388 0.512945 0.752718
O21   O     O_2   0.199222 0.766114 0.496906 -0.552383
O22   O     O_R   0.891080 0.756745 0.451699 -0.648091
H20   H     H_    0.753421 0.759593 0.472075 0.269058

loop_
_geom_bond_atom_site_label_1
_geom_bond_atom_site_label_2
_ccdc_geom_bond_type
O14   C32   A    
O12   C31   A    
C6    C7    A    
C1    O6    A    
C24   H13   S    
C12   C15   A    
C13   C14   A    
O19   V4    S    
C15   C16   A    
C19   C21   S    
O5    C3    A    
C17   C18   A    
C35   O22   S    
C11   C33   S    
C29   H18   S    
V2    O10   S    
O16   V4    S    
C5    C6    A    
O13   V3    S    
C27   C28   D    
O8    V2    S    
C25   H14   S    
O17   V3    S    
O15   C33   A    
C10   C14   A    
C4    C14   S    
O7    V1    S    
O18   V4    S    
C7    H4    S    
C13   C18   A    
O9    C4    A    
H1    C17   S    
O11   V4    S    
C21   H10   S    
C2    C30   S    
C28   C31   S    
C23   H12   S    
C22   C34   S    
C27   H16   S    
C30   H19   S    
O19   C34   A    
C1    C26   S    
C5    C10   A    
V4    O20   S    
C20   H9    S    
C6    H3    S    
O4    C2    A    
C35   O21   D    
O18   C33   A    
C12   C13   A    
C26   H15   S    
O2    C1    A    
C16   C17   A    
O14   V3    S    
C25   C26   D    
C11   C12   A    
C22   H11   S    
O3    C4    A    
O1    V2    S    
O12   V3    S    
O6    V2    S    
C28   H17   S    
O17   V4    S    
C9    C11   A    
C5    H2    S    
C21   C22   D    
O2    V1    S    
C24   C32   S    
V3    O20   S    
C18   C35   S    
C27   C29   S    
C23   C24   D    
O1    C2    A    
O22   H20   S    
O5    V1    S    
O8    C3    A    
C8    H5    S    
C23   C25   S    
O11   C32   A    
C3    C20   S    
O9    V2    S    
C29   C30   D    
O4    V1    S    
O3    V1    S    
V1    O10   S    
C19   H8    S    
C19   C20   D    
C31   O16   A    
O13   C34   A    
O15   V3    S    
O7    V2    S    
C7    C8    A    
C15   H6    S    
C16   H7    S    
C9    C10   A    
C8    C9    A    
