data_mof_unit_59119.cif
_audit_creation_date              2012-12-11T17:36:13-0500
_audit_creation_method            fapswitch 2.2
_symmetry_space_group_name_H-M    P1
_symmetry_Int_Tables_number       1
_space_group_crystal_system       triclinic
_cell_length_a                    25.998383
_cell_length_b                    6.908297
_cell_length_c                    21.570685
_cell_angle_alpha                 89.997858
_cell_angle_beta                  95.989554
_cell_angle_gamma                 89.990559
_cell_volume                      3853.04367421

loop_
_atom_site_label
_atom_site_type_symbol
_atom_type_description
_atom_site_fract_x
_atom_site_fract_y
_atom_site_fract_z
_atom_type_partial_charge
O1    O     O_R   0.208650 0.594520 0.175450 -0.537717
O2    O     O_R   0.791350 0.405480 0.824550 -0.537717
O3    O     O_R   0.291350 0.094520 0.324550 -0.537688
O4    O     O_R   0.708650 0.905480 0.675450 -0.537689
O5    O     O_R   0.192980 0.260780 0.300160 -0.553494
O6    O     O_R   0.807020 0.739220 0.699840 -0.553494
O7    O     O_R   0.307020 0.760780 0.199840 -0.553507
O8    O     O_R   0.692980 0.239220 0.800160 -0.553506
C1    C     C_R   0.179392 0.432942 0.319134 0.717948
C2    C     C_R   0.820608 0.567058 0.680866 0.717949
C3    C     C_R   0.320610 0.932930 0.180868 0.717935
C4    C     C_R   0.679390 0.067070 0.819132 0.717935
O9    O     O_R   0.202550 0.264660 0.174420 -0.529318
O10   O     O_R   0.797450 0.735340 0.825580 -0.529319
O11   O     O_R   0.297450 0.764660 0.325580 -0.529363
O12   O     O_R   0.702550 0.235340 0.674420 -0.529363
O13   O     O_R   0.300990 0.096480 0.197920 -0.516982
O14   O     O_R   0.699010 0.903520 0.802080 -0.516983
O15   O     O_R   0.199010 0.596480 0.302080 -0.517031
O16   O     O_R   0.800990 0.403520 0.697920 -0.517031
C5    C     C_R   0.190691 0.433466 0.151295 0.725570
C6    C     C_R   0.809308 0.566534 0.848705 0.725569
C7    C     C_R   0.309313 0.933427 0.348705 0.725461
C8    C     C_R   0.690687 0.066573 0.651295 0.725462
O17   O     O_3   0.282290 0.427760 0.257860 -0.368534
O18   O     O_3   0.717710 0.572240 0.742140 -0.368535
O19   O     O_3   0.217710 0.927760 0.242140 -0.368540
O20   O     O_3   0.782290 0.072240 0.757860 -0.368540
V1    V     V_3+5 0.244010 0.152080 0.248540 1.431129
V2    V     V_3+5 0.755990 0.847920 0.751460 1.431128
V3    V     V_3+5 0.255990 0.652080 0.251460 1.431071
V4    V     V_3+5 0.744010 0.347920 0.748540 1.431070
C9    C     C_R   0.656916 0.061122 0.591783 -0.112568
C10   C     C_R   0.343084 0.938878 0.408217 -0.112568
C11   C     C_R   0.843076 0.560837 0.908213 -0.112410
C12   C     C_R   0.156924 0.439163 0.091787 -0.112406
C13   C     C_R   0.646200 0.125141 0.480769 0.400687
C14   C     C_R   0.353801 0.874855 0.519231 0.400687
C15   C     C_R   0.853622 0.621898 0.019404 0.400723
C16   C     C_R   0.146379 0.378117 0.980594 0.400721
C17   C     C_R   0.677346 0.115140 0.537222 -0.192964
C18   C     C_R   0.322654 0.884856 0.462778 -0.192964
C19   C     C_R   0.822525 0.612836 0.962895 -0.193134
C20   C     C_R   0.177476 0.387180 0.037104 -0.193138
C21   C     C_R   0.604000 0.017329 0.589894 -0.215808
C22   C     C_R   0.396000 0.982673 0.410106 -0.215808
C23   C     C_R   0.896054 0.518129 0.910035 -0.215855
C24   C     C_R   0.103945 0.481858 0.089967 -0.215854
C25   C     C_R   0.570480 0.029276 0.533176 0.045082
C26   C     C_R   0.429520 0.970724 0.466824 0.045082
C27   C     C_R   0.929513 0.529058 0.966820 0.045077
C28   C     C_R   0.070486 0.470933 0.033181 0.045079
C29   C     C_R   0.592733 0.083780 0.478185 0.041829
C30   C     C_R   0.407267 0.916218 0.521814 0.041829
C31   C     C_R   0.907144 0.581506 0.021934 0.041675
C32   C     C_R   0.092856 0.418494 0.978066 0.041671
C33   C     C_R   0.515740 0.991524 0.529282 0.084355
C34   C     C_R   0.484259 0.008477 0.470718 0.084355
C35   C     C_R   0.984296 0.492140 0.970674 0.084313
C36   C     C_R   0.015703 0.507848 0.029327 0.084313
C37   C     C_R   0.508597 0.062000 0.417911 -0.200651
C38   C     C_R   0.491402 0.937999 0.582089 -0.200651
C39   C     C_R   0.991254 0.559348 0.082255 -0.200670
C40   C     C_R   0.008746 0.440641 0.917745 -0.200668
C41   C     C_R   0.561292 0.098172 0.421639 -0.127514
C42   C     C_R   0.438708 0.901826 0.578361 -0.127513
C43   C     C_R   0.938519 0.594748 0.078560 -0.127549
C44   C     C_R   0.061481 0.405248 0.921439 -0.127550
H1    H     H_    0.577107 0.139038 0.379078 0.193077
H2    H     H_    0.422893 0.860959 0.620921 0.193077
H3    H     H_    0.922616 0.634029 0.121216 0.193101
H4    H     H_    0.077384 0.365971 0.878783 0.193100
H5    H     H_    0.409672 0.020824 0.366297 0.105893
H6    H     H_    0.590327 0.979181 0.633703 0.105893
H7    H     H_    0.090193 0.518555 0.133858 0.105749
H8    H     H_    0.909805 0.481418 0.866145 0.105753
H9    H     H_    0.282141 0.848748 0.461431 0.152579
H10   H     H_    0.717859 0.151247 0.538569 0.152578
H11   H     H_    0.218050 0.352048 0.038383 0.152298
H12   H     H_    0.781952 0.647982 0.961614 0.152301
H13   H     H_    0.487975 0.078115 0.372308 0.127480
H14   H     H_    0.512025 0.921884 0.627691 0.127480
H15   H     H_    0.011814 0.574395 0.127933 0.127495
H16   H     H_    0.988185 0.425594 0.872067 0.127493
C45   C     C_R   0.443715 0.829850 0.104188 -0.122954
C46   C     C_R   0.556284 0.170149 0.895812 -0.122953
C47   C     C_R   0.056283 0.329931 0.395794 -0.122995
C48   C     C_R   0.943717 0.670069 0.604206 -0.122995
H17   H     H_    0.475840 0.729381 0.110170 0.132149
H18   H     H_    0.524160 0.270619 0.889830 0.132149
H19   H     H_    0.024161 0.229490 0.389805 0.132130
H20   H     H_    0.975838 0.770510 0.610194 0.132130
C49   C     C_R   0.404067 0.816396 0.143640 -0.254465
C50   C     C_R   0.595932 0.183603 0.856360 -0.254465
C51   C     C_R   0.095934 0.316473 0.356345 -0.254497
C52   C     C_R   0.904066 0.683527 0.643654 -0.254497
H21   H     H_    0.406652 0.706017 0.179477 0.133930
H22   H     H_    0.593348 0.293983 0.820523 0.133930
H23   H     H_    0.093355 0.206115 0.320505 0.133925
H24   H     H_    0.906645 0.793885 0.679495 0.133925
C53   C     C_R   0.362029 0.946103 0.137734 -0.084597
C54   C     C_R   0.637971 0.053897 0.862266 -0.084597
C55   C     C_R   0.137970 0.446137 0.362263 -0.084557
C56   C     C_R   0.862030 0.553863 0.637737 -0.084557
C57   C     C_R   0.360413 0.089452 0.090420 0.278457
C58   C     C_R   0.639587 0.910548 0.909580 0.278457
C59   C     C_R   0.139584 0.589434 0.409589 0.278498
C60   C     C_R   0.860415 0.410566 0.590411 0.278498
C61   C     C_R   0.400008 0.099669 0.050702 -0.176088
C62   C     C_R   0.599992 0.900331 0.949297 -0.176088
C63   C     C_R   0.099984 0.599665 0.449299 -0.176120
C64   C     C_R   0.900016 0.400335 0.550701 -0.176120
H25   H     H_    0.398042 0.208856 0.014428 0.131107
H26   H     H_    0.601957 0.791144 0.985572 0.131106
H27   H     H_    0.101950 0.708800 0.485586 0.131078
H28   H     H_    0.898050 0.291200 0.514414 0.131078
C65   C     C_R   0.441972 0.972405 0.057690 0.081795
C66   C     C_R   0.558028 0.027594 0.942310 0.081795
C67   C     C_R   0.058022 0.472447 0.442299 0.081805
C68   C     C_R   0.941978 0.527553 0.557700 0.081805
C69   C     C_1   0.483016 0.990963 0.017107 -0.025040
C70   C     C_1   0.516984 0.009036 0.982892 -0.025040
C71   C     C_1   0.016982 0.490977 0.482889 -0.025077
C72   C     C_1   0.983018 0.509023 0.517111 -0.025077
Cl1   Cl    Cl    0.676323 0.194646 0.414599 -0.610313
Cl2   Cl    Cl    0.323678 0.805346 0.585401 -0.610312
Cl3   Cl    Cl    0.823354 0.688794 0.085734 -0.610109
Cl4   Cl    Cl    0.176648 0.311244 0.914262 -0.610104
N1    N     N_2   0.317950 0.219076 0.080562 -0.532245
H29   H     H_    0.301610 0.218575 0.034892 0.268342
C73   C     C_3   0.329594 0.413612 0.102481 -0.468429
H30   H     H_    0.293814 0.502199 0.097542 0.187365
H31   H     H_    0.345154 0.411774 0.152431 0.208471
H32   H     H_    0.358275 0.482059 0.074605 0.182856
N2    N     N_2   0.682050 0.780925 0.919439 -0.532246
H33   H     H_    0.698390 0.781426 0.965109 0.268343
C74   C     C_3   0.670407 0.586389 0.897519 -0.468431
H34   H     H_    0.706187 0.497802 0.902460 0.187365
H35   H     H_    0.641725 0.517941 0.925394 0.182857
H36   H     H_    0.654848 0.588227 0.847569 0.208473
N3    N     N_2   0.182070 0.718885 0.419500 -0.532365
H37   H     H_    0.198376 0.718263 0.465184 0.268393
C75   C     C_3   0.170486 0.913505 0.397604 -0.468534
H38   H     H_    0.206287 0.001931 0.402613 0.187414
H39   H     H_    0.154969 0.911820 0.347640 0.208569
H40   H     H_    0.141789 0.982017 0.425450 0.182869
N4    N     N_2   0.817930 0.281115 0.580500 -0.532365
H41   H     H_    0.801624 0.281737 0.534816 0.268392
C76   C     C_3   0.829514 0.086495 0.602395 -0.468534
H42   H     H_    0.793713 0.998069 0.597388 0.187414
H43   H     H_    0.858210 0.017983 0.574549 0.182869
H44   H     H_    0.845031 0.088179 0.652360 0.208568

loop_
_geom_bond_atom_site_label_1
_geom_bond_atom_site_label_2
_ccdc_geom_bond_type
O17   V3    S    
C75   H40   S    
C48   C52   A    
O1    C5    A    
C47   H19   S    
O19   V1    S    
C9    C21   A    
O3    C7    A    
N4    H41   S    
C10   C18   A    
C56   C60   A    
C73   H32   S    
C11   C23   A    
C62   C66   A    
C61   C65   A    
N2    H33   S    
C5    C12   S    
O7    C3    A    
C6    C11   S    
C74   H35   S    
O5    C1    A    
C26   C30   A    
C36   C39   A    
C40   C44   A    
O9    V1    S    
N4    C76   S    
C23   H8    S    
C14   C18   A    
C76   H43   S    
C58   C62   A    
O4    C8    A    
C51   H23   S    
C44   H4    S    
C43   H3    S    
C50   H22   S    
C75   H38   S    
C16   Cl4   S    
C75   H39   S    
O1    V3    S    
O13   V1    S    
O2    V4    S    
C66   C70   S    
O3    V1    S    
C65   C69   S    
C40   H16   S    
C46   C50   A    
C45   C49   A    
C1    O15   A    
C15   C31   A    
C48   H20   S    
C2    O16   A    
C16   C32   A    
C47   C51   A    
O2    C6    A    
C54   C58   A    
C10   C22   A    
C21   C25   A    
C48   C68   A    
C11   C19   A    
C62   H26   S    
C16   C20   A    
O5    V1    S    
C1    C55   S    
C60   N4    S    
C13   C29   A    
C34   C37   A    
O11   C7    A    
C38   H14   S    
O15   V3    S    
C35   C36   A    
O12   C8    A    
O17   V1    S    
C24   H7    S    
C47   C67   A    
O10   V2    S    
C14   Cl2   S    
C51   C55   A    
C13   Cl1   S    
C53   C57   A    
C74   H36   S    
C39   C43   A    
C15   Cl3   S    
C38   C42   A    
O19   V3    S    
O8    V4    S    
C71   C72   T    
O7    V3    S    
C46   C66   A    
C46   H18   S    
C76   H44   S    
C49   C53   A    
C17   H10   S    
C64   C68   A    
C45   H17   S    
O18   V4    S    
C57   N1    S    
C33   C38   A    
C19   H12   S    
C32   C44   A    
C60   C64   A    
C39   H15   S    
C21   H6    S    
C26   C34   A    
C4    C54   S    
C23   C27   A    
C63   H27   S    
C31   C43   A    
C14   C30   A    
O20   V4    S    
O8    C4    A    
C7    C10   S    
C35   C40   A    
O9    C5    A    
C3    C53   S    
C45   C65   A    
C69   C70   T    
O14   V2    S    
C63   C67   A    
C58   N2    S    
O6    V2    S    
O18   V2    S    
C67   C71   S    
C52   C56   A    
C12   C20   A    
C59   N3    S    
C73   H30   S    
C49   H21   S    
C64   H28   S    
C29   C41   A    
N1    H29   S    
O16   V4    S    
N2    C74   S    
C57   C61   A    
C3    O13   A    
C59   C63   A    
C20   H11   S    
C73   H31   S    
O6    C2    A    
C25   C33   A    
C15   C19   A    
O11   V3    S    
C30   C42   A    
C61   H25   S    
O12   V4    S    
C74   H34   S    
C22   C26   A    
C8    C9    S    
C9    C17   A    
O10   C6    A    
N3    C75   S    
O20   V2    S    
C37   H13   S    
N3    H37   S    
C33   C34   A    
C42   H2    S    
C41   H1    S    
C52   H24   S    
C2    C56   S    
C12   C24   A    
C27   C31   A    
C13   C17   A    
C25   C29   A    
C68   C72   S    
C37   C41   A    
C24   C28   A    
C27   C35   A    
C50   C54   A    
C18   H9    S    
C28   C36   A    
C4    O14   A    
C55   C59   A    
C76   H42   S    
C22   H5    S    
O4    V2    S    
C28   C32   A    
N1    C73   S    
