data_mof_unit_29611.cif
_audit_creation_date              2012-12-10T17:51:30-0500
_audit_creation_method            fapswitch 2.2
_symmetry_space_group_name_H-M    P1
_symmetry_Int_Tables_number       1
_space_group_crystal_system       triclinic
_cell_length_a                    9.995128
_cell_length_b                    10.612381
_cell_length_c                    16.684931
_cell_angle_alpha                 93.322216
_cell_angle_beta                  83.51668
_cell_angle_gamma                 88.617597
_cell_volume                      1754.69290886

loop_
_atom_site_label
_atom_site_type_symbol
_atom_type_description
_atom_site_fract_x
_atom_site_fract_y
_atom_site_fract_z
_atom_type_partial_charge
C1    C     C_R   0.497773 0.741563 0.499088 0.895302
C2    C     C_R   0.536072 0.529992 0.262877 -0.200260
C3    C     C_R   0.239785 0.903495 0.503921 -0.147208
C4    C     C_R   0.479251 0.500416 0.652625 0.846855
C5    C     C_R   0.121111 0.970633 0.533745 -0.130924
C6    C     C_R   0.127183 0.086554 0.576504 -0.034418
C7    C     C_R   0.250586 0.140569 0.582366 -0.162054
C8    C     C_R   0.370314 0.076362 0.548340 0.052507
C9    C     C_R   0.366965 0.950082 0.519277 0.103804
C10   C     C_R   0.491072 0.878521 0.508375 -0.188626
C11   C     C_R   0.610848 0.936650 0.524064 -0.321208
C12   C     C_R   0.445300 0.404598 0.783014 -0.189453
C13   C     C_R   0.612443 0.064588 0.542780 0.413966
C14   C     C_R   0.494073 0.136296 0.541416 -0.255463
C15   C     C_R   0.829308 0.659429 0.610332 -0.292847
C16   C     C_R   0.498429 0.264577 0.515079 0.891575
C17   C     C_R   0.877423 0.733310 0.671371 0.462573
C18   C     C_R   0.013506 0.734757 0.674883 -0.257375
C19   C     C_R   0.104421 0.664824 0.617695 0.372782
C20   C     C_R   0.057625 0.579662 0.556888 0.085438
C21   C     C_R   0.913617 0.578696 0.555358 0.068849
C22   C     C_R   0.941130 0.426156 0.446458 0.023169
C23   C     C_R   0.471925 0.669528 0.164171 -0.111754
C24   C     C_R   0.083441 0.425770 0.446639 -0.089084
C25   C     C_R   0.520634 0.501684 0.347141 0.866798
C26   C     C_R   0.460068 0.512330 0.739115 0.008376
C27   C     C_R   0.447880 0.633037 0.777673 -0.161404
C28   C     C_R   0.424959 0.646305 0.861238 -0.171567
C29   C     C_R   0.414389 0.538565 0.905970 0.026981
C30   C     C_R   0.422996 0.417711 0.866756 -0.038001
C31   C     C_R   0.464327 0.636381 0.243165 -0.198043
C32   C     C_R   0.625322 0.460260 0.203485 0.354217
C33   C     C_R   0.634774 0.496011 0.123193 0.480928
C34   C     C_R   0.550032 0.595666 0.103940 -0.023975
C35   C     C_2   0.415066 0.550930 0.993197 0.354661
C36   C     C_2   0.521284 0.607401 0.021244 -0.245097
H1    H     H_    0.457157 0.716372 0.743102 0.119530
H2    H     H_    0.049669 0.795851 0.721610 0.186112
H3    H     H_    0.146175 0.364516 0.402913 0.168097
H4    H     H_    0.597844 0.648381 0.979933 0.190659
H5    H     H_    0.417725 0.333944 0.900979 0.202457
H6    H     H_    0.409030 0.747289 0.149035 0.190179
H7    H     H_    0.452920 0.311224 0.752578 0.149885
H8    H     H_    0.419453 0.739910 0.891247 0.156841
H9    H     H_    0.703756 0.276638 0.947494 0.388344
H10   H     H_    0.870085 0.085247 0.460547 0.335831
H11   H     H_    0.699042 0.797588 0.716807 0.329873
H12   H     H_    0.704270 0.882529 0.523536 0.199732
H13   H     H_    0.251784 0.751255 0.663898 0.313298
H14   H     H_    0.664575 0.326660 0.274445 0.332576
H15   H     H_    0.129798 0.478755 0.978495 0.378659
H16   H     H_    0.228112 0.817823 0.467883 0.174510
H17   H     H_    0.024792 0.931466 0.524319 0.172397
H18   H     H_    0.037349 0.138096 0.602957 0.243300
H19   H     H_    0.252452 0.232533 0.613966 0.162485
H20   H     H_    0.898134 0.365526 0.402347 0.166600
H21   H     H_    0.724737 0.669178 0.607752 0.210599
H22   H     H_    0.399600 0.692510 0.289049 0.168416
N1    N     N_R   0.857140 0.501200 0.500750 -0.090546
N2    N     N_R   0.142740 0.501280 0.500770 -0.106077
O1    O     O_R   0.385310 0.683220 0.500000 -0.568148
O2    O     O_2   0.850796 0.336399 0.079664 -0.158037
O3    O     O_3   0.646585 0.306224 0.997759 -0.528407
O4    O     O_2   0.724340 0.243771 0.632301 -0.255529
O5    O     O_2   0.820981 0.029437 0.625616 -0.324154
O6    O     O_3   0.866894 0.160732 0.498583 -0.582325
O7    O     O_3   0.793841 0.807764 0.727585 -0.689290
O8    O     O_3   0.237493 0.686028 0.620875 -0.708069
O9    O     O_3   0.698209 0.354610 0.220548 -0.683134
O10   O     O_2   0.355527 0.371919 0.098064 -0.222591
O11   O     O_2   0.216424 0.566399 0.117096 -0.284056
O12   O     O_R   0.614640 0.683250 0.500010 -0.651674
O13   O     O_3   0.178313 0.406840 0.998789 -0.480286
O14   O     O_R   0.371780 0.500010 0.615800 -0.559188
O15   O     O_R   0.601110 0.500030 0.615800 -0.601710
O16   O     O_R   0.385360 0.316750 0.499990 -0.626370
O17   O     O_R   0.614690 0.316780 0.500000 -0.537729
O18   O     O_R   0.398890 0.499970 0.384200 -0.597805
O19   O     O_R   0.628220 0.499990 0.384200 -0.613395
O20   O     O_2   0.804511 0.496767 0.986177 -0.325132
S1    S     S_3+6 0.741071 0.408436 0.045665 0.094117
S2    S     S_3+6 0.758264 0.126527 0.578184 -0.001607
S3    S     S_3+6 0.290047 0.473303 0.055231 0.071347
Zn1   Zn    Zn3+2 0.346870 0.499980 0.499990 0.989941
Zn2   Zn    Zn3+2 0.653130 0.500020 0.500010 1.009454

loop_
_geom_bond_atom_site_label_1
_geom_bond_atom_site_label_2
_ccdc_geom_bond_type
H13   O8    S    
N2    Zn1   S    
C35   C36   D    
C7    H19   S    
O16   Zn1   S    
O12   Zn2   S    
C7    C8    A    
C26   C27   A    
C23   H6    S    
O3    S1    S    
C31   H22   S    
C5    H17   S    
C28   C29   A    
H14   O9    S    
H10   O6    S    
C12   H7    S    
C5    C6    A    
C24   H3    S    
C2    C32   A    
C16   O17   A    
C4    O15   A    
O15   Zn2   S    
C19   C20   A    
C8    C9    A    
C30   H5    S    
C14   C16   S    
C20   N2    A    
C9    C10   A    
C4    O14   A    
O17   Zn2   S    
C16   O16   A    
C13   C14   A    
C15   H21   S    
C11   H12   S    
C6    H18   S    
H11   O7    S    
C33   C34   A    
O11   S3    D    
C17   O7    S    
C1    O12   A    
C25   O18   A    
C36   H4    S    
C22   N1    A    
C35   S3    S    
C18   C19   A    
C22   H20   S    
C13   S2    S    
H9    O3    S    
C12   C26   A    
C2    C31   A    
C23   C31   A    
N1    Zn2   S    
C29   C30   A    
C3    C9    A    
O6    S2    S    
C24   N2    A    
C23   C34   A    
C17   C18   A    
C19   O8    S    
O10   S3    D    
O4    S2    D    
C32   O9    S    
O2    S1    D    
C22   C24   A    
O19   Zn2   S    
C15   C17   A    
C8    C14   A    
C12   C30   A    
C25   O19   A    
C1    C10   S    
H15   O13   S    
O14   Zn1   S    
O20   S1    D    
C3    C5    A    
O1    Zn1   S    
C1    O1    A    
C4    C26   S    
C3    H16   S    
C21   N1    A    
C6    C7    A    
C29   C35   S    
C32   C33   A    
C18   H2    S    
C11   C13   A    
O5    S2    D    
C27   H1    S    
C28   H8    S    
C2    C25   S    
C34   C36   S    
C10   C11   A    
O18   Zn1   S    
C15   C21   A    
C20   C21   A    
C27   C28   A    
C33   S1    S    
O13   S3    S    
