data_mof_unit_63878.cif
_audit_creation_date              2012-12-10T19:27:49-0500
_audit_creation_method            fapswitch 2.2
_symmetry_space_group_name_H-M    P1
_symmetry_Int_Tables_number       1
_space_group_crystal_system       triclinic
_cell_length_a                    17.744223
_cell_length_b                    16.458591
_cell_length_c                    10.821391
_cell_angle_alpha                 90.243484
_cell_angle_beta                  92.619876
_cell_angle_gamma                 89.985642
_cell_volume                      3157.00037413

loop_
_atom_site_label
_atom_site_type_symbol
_atom_type_description
_atom_site_fract_x
_atom_site_fract_y
_atom_site_fract_z
_atom_type_partial_charge
C1    C     C_R   0.355349 0.500013 0.499990 0.793761
C2    C     C_3   0.575284 0.517314 0.944121 0.457094
C3    C     C_R   0.845349 0.573416 0.453338 0.252461
C4    C     C_R   0.845966 0.426066 0.467861 0.250623
C5    C     C_R   0.766096 0.572984 0.444402 0.229395
C6    C     C_R   0.766922 0.425432 0.456114 0.237309
C7    C     C_R   0.726268 0.499495 0.462328 -0.303191
C8    C     C_R   0.884834 0.500228 0.470888 -0.154905
C9    C     C_1   0.965830 0.500564 0.480798 0.182605
C10   C     C_1   0.033589 0.500405 0.487390 0.130621
C11   C     C_R   0.154617 0.570959 0.526885 0.269864
C12   C     C_R   0.153787 0.428853 0.463427 0.268230
C13   C     C_R   0.233296 0.570763 0.528913 -0.226621
C14   C     C_R   0.232397 0.429040 0.467256 -0.218097
C15   C     C_R   0.272625 0.499941 0.499093 -0.131931
C16   C     C_R   0.493325 0.499704 0.260255 0.781718
C17   C     C_R   0.114505 0.499953 0.493365 -0.034180
C18   C     C_R   0.546390 0.835501 0.558308 -0.245144
C19   C     C_R   0.544655 0.164967 0.562494 -0.244019
C20   C     C_R   0.551320 0.750079 0.564113 0.480373
C21   C     C_R   0.549486 0.250441 0.568442 0.458755
C22   C     C_R   0.444086 0.737699 0.428165 0.034189
C23   C     C_R   0.446109 0.261910 0.424156 0.035249
C24   C     C_R   0.437656 0.823208 0.420242 -0.246426
C25   C     C_R   0.439872 0.176385 0.416072 -0.249604
C26   C     C_R   0.489308 0.873335 0.486286 0.081775
C27   C     C_R   0.489584 0.126692 0.486221 0.084303
C28   C     C_1   0.485478 0.962737 0.481141 0.019796
C29   C     C_1   0.485610 0.037269 0.481131 0.016893
C30   C     C_R   0.643904 0.499881 0.485231 0.961840
C31   C     C_R   0.496842 0.500038 0.741056 0.854786
C32   C     C_3   0.448100 0.574089 0.070254 -0.365122
C33   C     C_3   0.451028 0.421490 0.071279 -0.409813
C34   C     C_3   0.434469 0.563840 0.928557 -0.085074
C35   C     C_3   0.461832 0.415077 0.929616 -0.095234
C36   C     C_3   0.573578 0.497409 0.082890 -0.390547
C37   C     C_3   0.491264 0.498660 0.123827 0.015548
C38   C     C_3   0.494018 0.499710 0.880248 -0.004485
Cu1   Cu    Cu3+1 0.499980 0.580420 0.499990 1.009447
Cu2   Cu    Cu3+1 0.499980 0.419580 0.499990 1.002580
H1    H     H_    0.480979 0.630262 0.092205 0.235030
H2    H     H_    0.472785 0.366374 0.120330 0.209969
H3    H     H_    0.263602 0.625893 0.554501 0.183081
H4    H     H_    0.261927 0.373960 0.443308 0.180117
H5    H     H_    0.587694 0.872329 0.609749 0.184003
H6    H     H_    0.584310 0.128458 0.617444 0.183408
H7    H     H_    0.403895 0.700461 0.375504 0.143023
H8    H     H_    0.407337 0.298902 0.368677 0.135962
H9    H     H_    0.392708 0.849757 0.362613 0.162011
H10   H     H_    0.396518 0.149467 0.355251 0.161213
H11   H     H_    0.392806 0.580748 0.113976 0.149359
H12   H     H_    0.389782 0.424707 0.089111 0.156816
H13   H     H_    0.377239 0.536345 0.915036 0.164281
H14   H     H_    0.404878 0.405520 0.884107 0.161241
H15   H     H_    0.609256 0.540443 0.139644 0.206874
H16   H     H_    0.598346 0.436309 0.101574 0.197361
N1    N     N_R   0.499970 0.701220 0.499970 -0.204380
N2    N     N_R   0.499970 0.298780 0.499970 -0.199965
O1    O     O_R   0.391240 0.567930 0.499990 -0.609939
O2    O     O_R   0.391240 0.432070 0.499990 -0.602816
O3    O     O_R   0.499970 0.567910 0.317690 -0.586896
O4    O     O_R   0.499970 0.432090 0.317690 -0.596516
O5    O     O_R   0.608730 0.567880 0.500000 -0.516548
O6    O     O_R   0.608730 0.432120 0.500000 -0.511966
O7    O     O_R   0.500000 0.567910 0.682300 -0.550807
O8    O     O_R   0.500000 0.432090 0.682300 -0.566172
Br1   Br    Br    0.633962 0.707863 0.661674 -0.315404
Br2   Br    Br    0.628699 0.293540 0.674387 -0.374183
C39   C     C_3   0.423240 0.646725 0.863698 -0.752650
H17   H     H_    0.476025 0.680064 0.850205 0.292394
H18   H     H_    0.393047 0.638488 0.772297 0.230352
H19   H     H_    0.386681 0.686220 0.919087 0.230902
C40   C     C_3   0.504549 0.335567 0.903126 -0.702797
H20   H     H_    0.564175 0.337647 0.936867 0.283059
H21   H     H_    0.477989 0.284240 0.951410 0.211543
H22   H     H_    0.499025 0.317838 0.804940 0.262615
Br3   Br    Br    0.609285 0.629574 0.936217 -0.389232
Br4   Br    Br    0.657737 0.458693 0.870771 -0.370566
Br5   Br    Br    0.900120 0.674076 0.439367 -0.272064
Br6   Br    Br    0.901026 0.324990 0.478513 -0.269953
Br7   Br    Br    0.715555 0.669343 0.381482 -0.326146
Br8   Br    Br    0.718652 0.325099 0.403305 -0.335887
Br9   Br    Br    0.104428 0.669619 0.570257 -0.387164
Br10  Br    Br    0.102843 0.330290 0.414658 -0.387384

loop_
_geom_bond_atom_site_label_1
_geom_bond_atom_site_label_2
_ccdc_geom_bond_type
C23   N2    A    
Cu2   O2    S    
C30   O6    A    
C27   C29   S    
Cu1   O7    S    
C40   H20   S    
C20   Br1   S    
C18   C26   A    
C4    C8    A    
C3    Br5   S    
C22   N1    A    
C19   H6    S    
C33   H12   S    
C28   C29   T    
C6    Br8   S    
C33   H2    S    
C36   C37   S    
C19   C21   A    
C24   C26   A    
C4    Br6   S    
C1    O1    A    
C10   C17   S    
Cu1   N1    S    
Cu2   O4    S    
C12   Br10  S    
C39   H18   S    
C25   H10   S    
C11   C17   A    
C8    C9    S    
C12   C17   A    
C32   H1    S    
C1    C15   S    
C19   C27   A    
C9    C10   T    
C16   C37   S    
C22   H7    S    
C7    C30   S    
Cu2   O8    S    
C30   O5    A    
C35   H14   S    
C40   H21   S    
C16   O4    A    
Cu1   O3    S    
Cu2   N2    S    
C35   C38   S    
C4    C6    A    
C3    C8    A    
C1    O2    A    
Cu1   Cu2   S    
C5    C7    A    
C11   Br9   S    
C33   C37   S    
C32   C34   S    
C39   H19   S    
C32   H11   S    
C36   H16   S    
C5    Br7   S    
C2    C38   S    
Cu1   O1    S    
C32   C37   S    
C34   C39   S    
C12   C14   A    
C13   C15   A    
C21   Br2   S    
C40   H22   S    
C22   C24   A    
C16   O3    A    
C18   H5    S    
C13   H3    S    
C2    Br4   S    
C14   H4    S    
C2    C36   S    
C24   H9    S    
C31   O7    A    
C35   C40   S    
C23   H8    S    
C34   C38   S    
C31   O8    A    
C3    C5    A    
C6    C7    A    
C25   C27   A    
Cu1   O5    S    
C26   C28   S    
Cu2   O6    S    
C31   C38   S    
C21   N2    A    
C2    Br3   S    
C11   C13   A    
C33   C35   S    
C18   C20   A    
C23   C25   A    
C39   H17   S    
C34   H13   S    
C36   H15   S    
C14   C15   A    
C20   N1    A    
