data_mof_unit_21466.cif
_audit_creation_date              2012-10-26T18:34:23-0400
_audit_creation_method            fapswitch 2.2
_symmetry_space_group_name_H-M    P1
_symmetry_Int_Tables_number       1
_space_group_crystal_system       triclinic
_cell_length_a                    10.893104
_cell_length_b                    9.684929
_cell_length_c                    9.078183
_cell_angle_alpha                 90.000226
_cell_angle_beta                  95.178287
_cell_angle_gamma                 89.997579
_cell_volume                      953.829827952

loop_
_atom_site_label
_atom_site_type_symbol
_atom_type_description
_atom_site_fract_x
_atom_site_fract_y
_atom_site_fract_z
_atom_type_partial_charge
C1    C     C_R   0.262540 0.500002 0.500219 0.577631
C2    C     C_R   0.063536 0.625527 0.500753 0.338909
C3    C     C_R   0.871512 0.499997 0.499050 -0.106262
C4    C     C_R   0.128488 0.500003 0.500950 -0.106262
C5    C     C_R   0.420969 0.074134 0.401526 0.147922
C6    C     C_R   0.579030 0.925866 0.598474 0.147922
C7    C     C_R   0.579024 0.074127 0.598481 0.147927
C8    C     C_R   0.420975 0.925873 0.401519 0.147927
C9    C     C_3   0.331288 0.145843 0.288351 -0.299238
C10   C     C_3   0.668712 0.854157 0.711649 -0.299238
C11   C     C_3   0.668644 0.145830 0.711724 -0.299120
C12   C     C_R   0.737460 0.499998 0.499781 0.577631
C13   C     C_3   0.331356 0.854170 0.288276 -0.299120
C14   C     C_R   0.499481 0.500000 0.221049 0.534794
C15   C     C_R   0.500519 0.500000 0.778951 0.534793
C16   C     C_1   0.499810 0.500000 0.065626 -0.036770
C17   C     C_1   0.500190 0.500000 0.934374 -0.036770
C18   C     C_R   0.063574 0.374476 0.501104 0.338921
C19   C     C_R   0.936426 0.625523 0.498896 0.338921
C20   C     C_R   0.936464 0.374473 0.499247 0.338909
Cu1   Cu    Cu3+1 0.500000 0.640660 0.500000 0.998153
Cu2   Cu    Cu3+1 0.500000 0.359340 0.500000 0.998153
F1    F     F_    0.122074 0.250585 0.503887 -0.561156
F2    F     F_    0.877926 0.749415 0.496113 -0.561156
F3    F     F_    0.878002 0.250575 0.496831 -0.561300
F4    F     F_    0.121998 0.749425 0.503169 -0.561300
H1    H     H_    0.328100 0.257451 0.292772 0.200682
H2    H     H_    0.328085 0.742567 0.292791 0.200803
H3    H     H_    0.235533 0.886306 0.302560 0.180603
H4    H     H_    0.353998 0.880458 0.174862 0.093111
H5    H     H_    0.353786 0.119459 0.174906 0.093083
H6    H     H_    0.235474 0.113804 0.302822 0.180622
H7    H     H_    0.671900 0.742548 0.707228 0.200682
H8    H     H_    0.764526 0.886196 0.697178 0.180622
H9    H     H_    0.646214 0.880541 0.825094 0.093083
H10   H     H_    0.671915 0.257433 0.707209 0.200803
H11   H     H_    0.646002 0.119542 0.825138 0.093111
H12   H     H_    0.764467 0.113694 0.697440 0.180603
N1    N     N_R   0.500000 0.852070 0.500000 -0.214894
N2    N     N_R   0.500000 0.147930 0.500000 -0.214894
O1    O     O_R   0.319640 0.618740 0.499990 -0.459741
O2    O     O_R   0.680360 0.381260 0.500010 -0.459741
O3    O     O_R   0.680360 0.618740 0.500010 -0.459738
O4    O     O_R   0.319640 0.381260 0.499990 -0.459738
O5    O     O_R   0.500000 0.618760 0.288390 -0.517451
O6    O     O_R   0.500000 0.381240 0.711610 -0.517451
O7    O     O_R   0.500000 0.618760 0.711610 -0.517488
O8    O     O_R   0.500000 0.381240 0.288390 -0.517488

loop_
_geom_bond_atom_site_label_1
_geom_bond_atom_site_label_2
_ccdc_geom_bond_type
C6    C10   S    
C11   H12   S    
C2    C4    A    
C7    N2    A    
C13   H2    S    
C5    C9    S    
C6    C7    A    
C8    N1    A    
C10   H7    S    
C1    O4    A    
Cu2   O8    S    
Cu1   N1    S    
C15   O7    A    
C1    C4    S    
Cu2   N2    S    
C19   F2    S    
C4    C18   A    
C3    C20   A    
C10   H8    S    
Cu1   Cu2   S    
C3    C19   A    
Cu2   O2    S    
Cu1   O5    S    
Cu1   O1    S    
C13   H3    S    
C11   H10   S    
Cu2   O6    S    
C7    C11   S    
C12   O3    A    
C18   C20   A    
C10   H9    S    
C14   C16   S    
C9    H6    S    
C5    C8    A    
C20   F3    S    
C9    H5    S    
C18   F1    S    
C8    C13   S    
C13   H4    S    
C9    H1    S    
C2    F4    S    
C5    N2    A    
C1    O1    A    
C15   C17   S    
C14   O8    A    
C6    N1    A    
C12   O2    A    
C3    C12   S    
C15   O6    A    
C14   O5    A    
C2    C19   A    
Cu1   O3    S    
C11   H11   S    
Cu2   O4    S    
C16   C17   T    
Cu1   O7    S    
