data_mof_unit_23391.cif
_audit_creation_date              2012-12-10T18:35:02-0500
_audit_creation_method            fapswitch 2.2
_symmetry_space_group_name_H-M    P1
_symmetry_Int_Tables_number       1
_space_group_crystal_system       triclinic
_cell_length_a                    15.137178
_cell_length_b                    13.828319
_cell_length_c                    10.754575
_cell_angle_alpha                 89.859202
_cell_angle_beta                  89.644764
_cell_angle_gamma                 89.722174
_cell_volume                      2251.08983829

loop_
_atom_site_label
_atom_site_type_symbol
_atom_type_description
_atom_site_fract_x
_atom_site_fract_y
_atom_site_fract_z
_atom_type_partial_charge
C1    C     C_R   0.329887 0.500183 0.499516 0.900299
C2    C     C_R   0.670273 0.499785 0.501651 0.787516
C3    C     C_R   0.233506 0.500728 0.500324 -0.141481
C4    C     C_R   0.766901 0.499800 0.506014 -0.152476
C5    C     C_R   0.186367 0.423727 0.448247 0.645746
C6    C     C_R   0.814362 0.414460 0.531832 0.593669
C7    C     C_R   0.094572 0.424882 0.450803 -0.235057
C8    C     C_R   0.906103 0.415987 0.534130 -0.240640
C9    C     C_R   0.048762 0.501978 0.506665 0.040637
C10   C     C_R   0.951790 0.502045 0.510047 0.047448
C11   C     C_R   0.544592 0.106816 0.593916 0.045958
C12   C     C_R   0.456012 0.107576 0.405734 0.033724
C13   C     C_R   0.543615 0.209075 0.590535 0.096669
C14   C     C_R   0.456613 0.209805 0.409320 0.079093
C15   C     C_R   0.500348 0.054127 0.499816 0.036618
C16   C     C_R   0.444332 0.892918 0.580007 -0.277277
C17   C     C_R   0.556190 0.892402 0.419928 -0.280716
C18   C     C_R   0.445145 0.791053 0.578567 0.086211
C19   C     C_R   0.555073 0.790540 0.421459 0.081022
C20   C     C_R   0.500313 0.945084 0.499923 0.113119
C21   C     C_R   0.501690 0.500098 0.262404 0.907113
C22   C     C_R   0.500429 0.499826 0.737566 0.898720
C23   C     C_R   0.658998 0.560713 0.126469 -0.190425
C24   C     C_R   0.659255 0.555639 0.867542 -0.166496
C25   C     C_R   0.735800 0.587287 0.061071 0.180250
C26   C     C_R   0.736363 0.583168 0.929469 0.183337
C27   C     C_R   0.581948 0.529728 0.933142 -0.023023
C28   C     C_R   0.582076 0.531090 0.063941 -0.019784
C29   C     C_R   0.505584 0.500139 0.128658 -0.302638
C30   C     C_R   0.504988 0.499206 0.871119 -0.300930
C31   C     C_R   0.431572 0.466564 0.065290 0.519885
C32   C     C_R   0.431162 0.466424 0.936914 0.512931
C33   C     C_R   0.096018 0.578905 0.558318 -0.155207
C34   C     C_R   0.904436 0.587474 0.486843 -0.175948
C35   C     C_R   0.187830 0.578577 0.554369 -0.250762
C36   C     C_R   0.812708 0.586411 0.485284 -0.281442
Cu1   Cu    Cu3+1 0.500000 0.596430 0.500000 0.943172
Cu2   Cu    Cu3+1 0.500000 0.403570 0.500000 1.030537
H1    H     H_    0.400078 0.930755 0.642850 0.145740
H2    H     H_    0.600549 0.929823 0.357045 0.141954
H3    H     H_    0.401623 0.751733 0.640537 0.124576
H4    H     H_    0.598516 0.750803 0.359543 0.115972
H5    H     H_    0.660554 0.562036 0.227062 0.132509
H6    H     H_    0.661168 0.552560 0.767044 0.139522
H7    H     H_    0.062056 0.638562 0.603233 0.144993
H8    H     H_    0.938274 0.654579 0.466745 0.147085
H9    H     H_    0.223171 0.638273 0.595671 0.171564
H10   H     H_    0.777769 0.653229 0.465794 0.172806
H11   H     H_    0.059292 0.365942 0.407747 0.164859
H12   H     H_    0.941474 0.349757 0.555290 0.167286
H13   H     H_    0.578449 0.249259 0.661013 0.157762
H14   H     H_    0.421726 0.250549 0.338819 0.189833
N1    N     N_R   0.500000 0.258690 0.500000 -0.216548
N2    N     N_R   0.500000 0.741330 0.500000 -0.173077
O1    O     O_R   0.371460 0.581430 0.500010 -0.605287
O2    O     O_R   0.628540 0.581430 0.499990 -0.619016
O3    O     O_R   0.371470 0.418560 0.500010 -0.516184
O4    O     O_R   0.628530 0.418560 0.499990 -0.528591
O5    O     O_R   0.500000 0.581450 0.319650 -0.594512
O6    O     O_R   0.500000 0.581450 0.680350 -0.598310
O7    O     O_R   0.500010 0.418580 0.319650 -0.571717
O8    O     O_R   0.499990 0.418580 0.680350 -0.572362
F1    F     F_    0.358900 0.435708 0.128457 -0.608157
F2    F     F_    0.358033 0.435761 0.876156 -0.624723
C37   C     C_3   0.815129 0.619088 0.135171 -0.448678
C38   C     C_3   0.874981 0.533168 0.165593 -0.776809
H15   H     H_    0.839169 0.480542 0.225407 0.257227
H16   H     H_    0.897207 0.496141 0.079372 0.249737
H17   H     H_    0.934088 0.558740 0.216242 0.252927
H18   H     H_    0.852845 0.675917 0.085161 0.209937
H19   H     H_    0.793130 0.653070 0.223722 0.198826
C39   C     C_3   0.817323 0.605300 0.850940 -0.418762
C40   C     C_3   0.809664 0.704824 0.790317 -0.825931
H20   H     H_    0.751277 0.708073 0.728329 0.257449
H21   H     H_    0.803349 0.761630 0.862721 0.249757
H22   H     H_    0.869790 0.719255 0.733699 0.246393
H23   H     H_    0.879247 0.601832 0.905022 0.217012
H24   H     H_    0.824542 0.549615 0.777123 0.213248
F3    F     F_    0.228761 0.348617 0.392311 -0.638639
F4    F     F_    0.772633 0.329750 0.556221 -0.670755
C41   C     C_3   0.594711 0.057329 0.697772 -0.411802
C42   C     C_3   0.544332 0.064854 0.820839 -0.814552
H25   H     H_    0.535626 0.141738 0.848179 0.255782
H26   H     H_    0.478435 0.030561 0.812751 0.255129
H27   H     H_    0.581898 0.027046 0.894974 0.243772
H28   H     H_    0.607383 0.979840 0.677601 0.221089
H29   H     H_    0.660542 0.091647 0.707719 0.218197
C43   C     C_3   0.406306 0.058969 0.301535 -0.397197
C44   C     C_3   0.456914 0.066943 0.178698 -0.805331
H30   H     H_    0.465312 0.143940 0.151632 0.259686
H31   H     H_    0.522957 0.032274 0.186962 0.246432
H32   H     H_    0.419689 0.029750 0.104279 0.249527
H33   H     H_    0.393939 0.981435 0.321391 0.221233
H34   H     H_    0.340350 0.093713 0.291437 0.227745

loop_
_geom_bond_atom_site_label_1
_geom_bond_atom_site_label_2
_ccdc_geom_bond_type
C38   H16   S    
C4    C36   A    
C33   H7    S    
C40   H20   S    
C24   C27   A    
C35   H9    S    
C41   C42   S    
C11   C41   S    
Cu1   Cu2   S    
C28   C29   A    
C24   C26   A    
C21   O5    A    
C22   O6    A    
C38   H17   S    
C37   H18   S    
C17   C20   A    
C23   H5    S    
C39   H24   S    
C17   C19   A    
Cu2   O4    S    
Cu1   O2    S    
C11   C15   A    
C14   H14   S    
C34   H8    S    
C44   H31   S    
C9    C10   S    
C21   O7    A    
C41   H28   S    
C19   H4    S    
Cu2   O7    S    
C38   H15   S    
C13   H13   S    
C27   C30   A    
C9    C33   A    
C40   H21   S    
C13   N1    A    
C15   C20   S    
C43   H34   S    
C12   C43   S    
C31   F1    S    
C25   C37   S    
C7    H11   S    
C4    C6    A    
C18   H3    S    
C5    C7    A    
C6    C8    A    
C25   C26   A    
C37   H19   S    
C21   C29   S    
C1    C3    S    
C17   H2    S    
C2    C4    S    
C39   H23   S    
C1    O3    A    
C22   O8    A    
Cu2   O3    S    
C6    F4    S    
C31   C32   A    
C12   C15   A    
C3    C35   A    
C16   C20   A    
C10   C34   A    
C41   H29   S    
C23   C28   A    
C44   H32   S    
C32   F2    S    
Cu1   O5    S    
Cu1   N2    S    
C19   N2    A    
C16   C18   A    
C12   C14   A    
C42   H25   S    
C42   H26   S    
C24   H6    S    
C40   H22   S    
C5    F3    S    
C8    H12   S    
C26   C39   S    
C7    C9    A    
C43   H33   S    
C22   C30   S    
C39   C40   S    
C3    C5    A    
C2    O4    A    
C42   H27   S    
C1    O1    A    
C29   C31   A    
C2    O2    A    
C30   C32   A    
C11   C13   A    
Cu2   N1    S    
C33   C35   A    
C36   H10   S    
C34   C36   A    
C23   C25   A    
Cu1   O6    S    
C18   N2    A    
C16   H1    S    
Cu1   O1    S    
C14   N1    A    
C43   C44   S    
C8    C10   A    
C37   C38   S    
C27   C28   A    
C44   H30   S    
Cu2   O8    S    
