data_mof_unit_50159.cif
_audit_creation_date              2012-12-10T18:20:36-0500
_audit_creation_method            fapswitch 2.2
_symmetry_space_group_name_H-M    P1
_symmetry_Int_Tables_number       1
_space_group_crystal_system       triclinic
_cell_length_a                    14.160077
_cell_length_b                    13.617818
_cell_length_c                    14.906672
_cell_angle_alpha                 88.673322
_cell_angle_beta                  87.893567
_cell_angle_gamma                 83.897701
_cell_volume                      2855.68926174

loop_
_atom_site_label
_atom_site_type_symbol
_atom_type_description
_atom_site_fract_x
_atom_site_fract_y
_atom_site_fract_z
_atom_type_partial_charge
C1    C     C_R   0.501229 0.501189 0.326970 0.919999
C2    C     C_R   0.499015 0.497348 0.673035 0.920286
C3    C     C_R   0.501410 0.496593 0.953478 -0.037421
C4    C     C_R   0.501349 0.498481 0.046453 -0.039710
C5    C     C_R   0.463425 0.418344 0.910738 0.046698
C6    C     C_R   0.542536 0.574366 0.089118 0.054556
C7    C     C_R   0.598516 0.635047 0.943942 0.156675
C8    C     C_R   0.398827 0.365411 0.055784 0.160360
C9    C     C_R   0.602253 0.633912 0.038607 0.019380
C10   C     C_R   0.403539 0.357797 0.961337 0.033470
C11   C     C_R   0.800995 0.446015 0.563380 -0.078092
C12   C     C_R   0.199122 0.554597 0.436916 -0.080475
C13   C     C_R   0.795918 0.557165 0.438233 0.269688
C14   C     C_R   0.203650 0.443819 0.562173 0.269951
C15   C     C_R   0.896608 0.555214 0.435143 -0.032561
C16   C     C_R   0.102951 0.447573 0.566272 -0.031177
C17   C     C_R   0.949301 0.501376 0.501142 0.038849
C18   C     C_R   0.050278 0.501689 0.500457 0.039750
C19   C     C_R   0.900961 0.448090 0.568166 0.004050
C20   C     C_R   0.098742 0.554733 0.433393 0.005337
C21   C     C_R   0.945774 0.605906 0.367659 -0.190965
C22   C     C_R   0.053755 0.398458 0.634730 -0.197135
C23   C     C_R   0.516397 0.314657 0.501090 0.922238
C24   C     C_R   0.483628 0.685339 0.498712 0.924200
C25   C     C_R   0.045180 0.605888 0.365176 0.115302
C26   C     C_R   0.954430 0.398965 0.637478 0.114580
C27   C     C_1   0.472111 0.788581 0.493739 -0.117758
C28   C     C_1   0.528109 0.211370 0.503728 -0.106458
C29   C     C_2   0.462060 0.979624 0.485004 0.131357
C30   C     C_2   0.539037 0.020197 0.508431 0.126417
C31   C     C_1   0.536124 0.123840 0.506112 0.015279
C32   C     C_1   0.464416 0.876047 0.489091 0.025509
C33   C     C_R   0.483646 0.409212 0.817978 0.020290
C34   C     C_R   0.523750 0.585073 0.181532 0.025595
C35   C     C_R   0.497703 0.496226 0.769025 -0.127915
C36   C     C_R   0.503494 0.500438 0.231058 -0.138909
C37   C     C_R   0.519255 0.580889 0.811763 0.113564
C38   C     C_R   0.475984 0.417886 0.188980 0.110409
C39   C     C_R   0.539350 0.573153 0.902788 -0.008048
C40   C     C_R   0.459034 0.425213 0.097330 -0.005193
H1    H     H_    0.762578 0.401965 0.610034 0.136447
H2    H     H_    0.238038 0.596838 0.389027 0.142497
H3    H     H_    0.907839 0.644343 0.313869 0.167260
H4    H     H_    0.091450 0.360171 0.688978 0.175224
N1    N     N_R   0.750030 0.500040 0.500070 -0.115097
N2    N     N_R   0.249970 0.499960 0.499930 -0.113185
O1    O     O_R   0.580280 0.500020 0.367860 -0.592646
O2    O     O_R   0.419720 0.499980 0.632140 -0.589918
O3    O     O_R   0.419730 0.500030 0.367840 -0.619148
O4    O     O_R   0.580270 0.499970 0.632160 -0.622079
O5    O     O_R   0.591830 0.359650 0.500030 -0.626106
O6    O     O_R   0.408170 0.640350 0.499970 -0.620349
O7    O     O_R   0.431280 0.359660 0.500010 -0.564015
O8    O     O_R   0.568720 0.640340 0.499990 -0.562838
Zn1   Zn    Zn3+2 0.607200 0.499990 0.500020 0.996976
Zn2   Zn    Zn3+2 0.392800 0.500010 0.499980 1.000311
I1    I     I_    0.666029 0.938523 0.552615 -0.285227
I2    I     I_    0.334852 0.061286 0.441404 -0.282014
C41   C     C_3   0.507030 0.308468 0.775437 -0.435277
C42   C     C_3   0.613737 0.284949 0.754229 -0.390962
C43   C     C_3   0.637322 0.175891 0.731900 -0.819095
H5    H     H_    0.710350 0.162853 0.702312 0.264010
H6    H     H_    0.632229 0.129377 0.793747 0.270677
H7    H     H_    0.587432 0.153076 0.682697 0.273138
H8    H     H_    0.635519 0.330153 0.695894 0.236426
H9    H     H_    0.655107 0.302115 0.812792 0.233730
H10   H     H_    0.486811 0.249215 0.821147 0.241160
H11   H     H_    0.468198 0.304283 0.713002 0.217193
C44   C     C_3   0.493556 0.687087 0.219555 -0.417940
C45   C     C_3   0.385042 0.708886 0.219454 -0.383055
C46   C     C_3   0.351716 0.809697 0.258588 -0.809469
H12   H     H_    0.370929 0.811409 0.329934 0.265914
H13   H     H_    0.384477 0.868945 0.220097 0.277318
H14   H     H_    0.273263 0.823979 0.255007 0.249853
H15   H     H_    0.361829 0.707812 0.149121 0.236818
H16   H     H_    0.350735 0.651552 0.259116 0.235694
H17   H     H_    0.518335 0.691857 0.288825 0.216301
H18   H     H_    0.522593 0.746452 0.178432 0.218237
I3    I     I_    0.491685 0.721548 0.744610 -0.280264
I4    I     I_    0.484749 0.278242 0.259410 -0.279561
I5    I     I_    0.702728 0.706254 0.864214 -0.338103
I6    I     I_    0.277066 0.322323 0.131909 -0.385673
C47   C     C_3   0.683707 0.676829 0.082891 -0.394645
C48   C     C_3   0.774167 0.603619 0.079399 -0.299458
C49   C     C_3   0.861248 0.653231 0.103665 -0.850573
H19   H     H_    0.877036 0.708970 0.051203 0.275562
H20   H     H_    0.848907 0.690334 0.169129 0.268454
H21   H     H_    0.923668 0.596896 0.108372 0.251092
H22   H     H_    0.765101 0.541505 0.127625 0.232216
H23   H     H_    0.787069 0.571938 0.011528 0.241204
H24   H     H_    0.696270 0.748885 0.050886 0.234500
H25   H     H_    0.668369 0.692852 0.154357 0.217853
C50   C     C_3   0.332879 0.299755 0.915924 -0.400806
C51   C     C_3   0.351863 0.187423 0.933661 -0.342068
C52   C     C_3   0.307318 0.129364 0.862868 -0.814233
H26   H     H_    0.229616 0.151715 0.861198 0.269549
H27   H     H_    0.340393 0.142663 0.795550 0.274568
H28   H     H_    0.319130 0.049144 0.879286 0.261309
H29   H     H_    0.429254 0.163307 0.934513 0.226334
H30   H     H_    0.321363 0.167604 0.000337 0.261822
H31   H     H_    0.259348 0.325877 0.939245 0.223421
H32   H     H_    0.332385 0.316043 0.842964 0.230105
I7    I     I_    0.716798 0.658441 0.351119 -0.394271
I8    I     I_    0.281519 0.339899 0.647239 -0.407777
C53   C     C_3   0.090657 0.657774 0.286114 -0.452727
C54   C     C_3   0.136369 0.582825 0.217656 -0.319456
C55   C     C_3   0.158705 0.633101 0.127961 -0.858199
H33   H     H_    0.091788 0.660000 0.094497 0.263958
H34   H     H_    0.199422 0.696862 0.138124 0.261693
H35   H     H_    0.201286 0.579577 0.083496 0.268458
H36   H     H_    0.203143 0.544431 0.243914 0.238385
H37   H     H_    0.087304 0.526243 0.205725 0.246457
H38   H     H_    0.036018 0.708801 0.251993 0.219322
H39   H     H_    0.143576 0.705355 0.309216 0.197346
C56   C     C_3   0.910035 0.348023 0.717520 -0.438300
C57   C     C_3   0.909538 0.237470 0.700918 -0.338011
C58   C     C_3   0.886284 0.181509 0.787482 -0.847299
H40   H     H_    0.943846 0.184140 0.835760 0.264633
H41   H     H_    0.818327 0.214364 0.818952 0.264958
H42   H     H_    0.879901 0.103059 0.772427 0.267045
H43   H     H_    0.856267 0.226944 0.650070 0.224920
H44   H     H_    0.980462 0.205826 0.674400 0.246008
H45   H     H_    0.951745 0.358079 0.777872 0.214634
H46   H     H_    0.837294 0.382358 0.734891 0.196879

loop_
_geom_bond_atom_site_label_1
_geom_bond_atom_site_label_2
_ccdc_geom_bond_type
C2    C35   S    
C24   O6    A    
C38   C40   A    
C50   C51   S    
C44   H17   S    
C52   H26   S    
C24   C27   S    
C6    C9    A    
C52   H28   S    
C25   C53   S    
C14   N2    A    
C54   H37   S    
C49   H19   S    
C47   H25   S    
C37   I3    S    
C11   C19   A    
C57   H44   S    
C8    I6    S    
C53   H38   S    
C35   C37   A    
C29   C32   S    
C58   H41   S    
C30   C31   S    
C8    C10   A    
O7    Zn2   S    
C20   C25   A    
C24   O8    A    
C56   C57   S    
C30   I1    S    
C57   C58   S    
C18   C20   A    
O2    Zn2   S    
C43   H6    S    
C19   C26   A    
C26   C56   S    
C12   H2    S    
C2    O4    A    
C41   H10   S    
C21   H3    S    
C14   I8    S    
C22   H4    S    
C4    C40   A    
C5    C33   A    
C55   H33   S    
C45   C46   S    
C13   I7    S    
O5    Zn1   S    
C43   H5    S    
C42   H9    S    
C41   C42   S    
C33   C41   S    
C54   C55   S    
C55   H34   S    
C44   H18   S    
C51   C52   S    
C48   H23   S    
C23   O7    A    
C54   H36   S    
C49   H20   S    
C56   H45   S    
C57   H43   S    
C53   H39   S    
C48   C49   S    
C4    C6    A    
C58   H42   S    
C50   H31   S    
C46   H13   S    
C1    O1    A    
C10   C50   S    
C2    O2    A    
C6    C34   A    
C42   C43   S    
C43   H7    S    
C29   C30   D    
C41   H11   S    
C23   O5    A    
C47   C48   S    
C51   H30   S    
C12   C20   A    
C17   C18   A    
C23   C28   S    
C34   C44   S    
C9    C47   S    
C12   N2    A    
C7    I5    S    
C42   H8    S    
C13   C15   A    
C45   H16   S    
C55   H35   S    
C14   C16   A    
C11   N1    A    
C48   H22   S    
C17   C19   A    
C3    C4    A    
O1    Zn1   S    
C49   H21   S    
C15   C17   A    
C21   C25   A    
O8    Zn1   S    
C16   C22   A    
C56   H46   S    
C27   C32   T    
C28   C31   T    
C3    C5    A    
C50   H32   S    
C46   H14   S    
C52   H27   S    
O3    Zn2   S    
C47   H24   S    
C53   C54   S    
O4    Zn1   S    
C36   C38   A    
C5    C10   A    
C37   C39   A    
C58   H40   S    
C13   N1    A    
C15   C21   A    
C38   I4    S    
C51   H29   S    
C33   C35   A    
C11   H1    S    
C34   C36   A    
C44   C45   S    
C3    C39   A    
C7    C9    A    
C46   H12   S    
C29   I2    S    
N1    Zn1   S    
C16   C18   A    
C22   C26   A    
N2    Zn2   S    
C45   H15   S    
C7    C39   A    
C8    C40   A    
C1    O3    A    
O6    Zn2   S    
C1    C36   S    
