data_mof_unit_67445.cif
_audit_creation_date              2012-12-10T16:45:59-0500
_audit_creation_method            fapswitch 2.2
_symmetry_space_group_name_H-M    P1
_symmetry_Int_Tables_number       1
_space_group_crystal_system       triclinic
_cell_length_a                    10.944004
_cell_length_b                    8.786019
_cell_length_c                    7.587242
_cell_angle_alpha                 102.11917
_cell_angle_beta                  95.298277
_cell_angle_gamma                 94.47233
_cell_volume                      706.677623246

loop_
_atom_site_label
_atom_site_type_symbol
_atom_type_description
_atom_site_fract_x
_atom_site_fract_y
_atom_site_fract_z
_atom_type_partial_charge
C1    C     C_R   0.496828 0.201391 0.454627 0.794405
C2    C     C_3   0.879529 0.518157 0.504267 -0.114264
C3    C     C_3   0.942438 0.688856 0.493969 -0.167175
C4    C     C_3   0.914045 0.379106 0.353355 0.024003
C5    C     C_2   0.486166 0.034582 0.428447 -0.300168
C6    C     C_2   0.525850 0.965153 0.563677 0.148740
C7    C     C_R   0.260923 0.501204 0.501573 0.813715
C8    C     C_R   0.507020 0.798820 0.544339 0.874267
C9    C     C_R   0.740065 0.507656 0.500873 0.883067
C10   C     C_3   0.078695 0.461505 0.685920 -0.212908
C11   C     C_3   0.936588 0.478534 0.686696 -0.038651
C12   C     C_3   0.089606 0.681034 0.494567 0.240880
C13   C     C_3   0.052192 0.393933 0.333612 -0.245072
C14   C     C_3   0.123800 0.509130 0.506957 -0.206589
Cu1   Cu    Cu3+1 0.514070 0.517380 0.684380 1.155302
Cu2   Cu    Cu3+1 0.485930 0.482620 0.315620 1.167749
H1    H     H_    0.587441 0.635061 0.049790 0.283294
H2    H     H_    0.886980 0.364974 0.694127 0.214373
H3    H     H_    0.062948 0.445853 0.214379 0.293649
H4    H     H_    0.890399 0.269123 0.399400 0.109366
N1    N     N_2   0.464720 0.456420 0.038520 0.077633
N2    N     N_2   0.535280 0.543580 0.961480 -0.117790
O1    O     O_R   0.509140 0.286130 0.619770 -0.535504
O2    O     O_R   0.485380 0.256770 0.308360 -0.551539
O3    O     O_R   0.329570 0.514650 0.655700 -0.584138
O4    O     O_R   0.305810 0.485300 0.344290 -0.496076
O5    O     O_R   0.514620 0.743230 0.691640 -0.511776
O6    O     O_R   0.490860 0.713870 0.380230 -0.590773
O7    O     O_R   0.694190 0.514700 0.655710 -0.539648
O8    O     O_R   0.670430 0.485350 0.344300 -0.525328
C15   C     C_2   0.148020 0.563402 0.859324 0.602687
H5    H     H_    0.137688 0.686288 0.896386 0.143007
O9    O     O_2   0.210654 0.508763 0.967152 -0.461697
Br1   Br    Br    0.823250 0.324260 0.112404 -0.299741
Br2   Br    Br    0.152206 0.741900 0.282977 -0.540375
C16   C     C_2   0.888537 0.752320 0.334214 0.563273
H6    H     H_    0.935961 0.853569 0.300216 0.113180
O10   O     O_2   0.784757 0.710486 0.259217 -0.498274
C17   C     C_2   0.423348 0.951429 0.247734 0.525777
H7    H     H_    0.327792 0.966845 0.211372 0.140423
O11   O     O_2   0.481949 0.882774 0.132067 -0.476675
Br3   Br    Br    0.624337 0.072048 0.786157 -0.246583
Br4   Br    Br    0.378206 0.266901 0.909778 -0.190362
C18   C     C_2   0.102604 0.292332 0.688561 0.460736
H8    H     H_    0.178869 0.242025 0.624097 0.076206
O12   O     O_2   0.044970 0.215786 0.776447 -0.454503
Br5   Br    Br    0.893951 0.609171 0.914124 -0.413454
Br6   Br    Br    0.196212 0.849383 0.667588 -0.526212
C19   C     C_2   0.911607 0.812607 0.652411 0.412611
H9    H     H_    0.978093 0.868008 0.766154 0.190051
O13   O     O_2   0.806092 0.846812 0.660898 -0.498820
C20   C     C_2   0.096963 0.232463 0.281665 0.406140
H10   H     H_    0.069198 0.139772 0.348494 0.058404
O14   O     O_2   0.160030 0.201884 0.156766 -0.428843

loop_
_geom_bond_atom_site_label_1
_geom_bond_atom_site_label_2
_ccdc_geom_bond_type
Cu2   O6    S    
C2    C4    S    
C15   O9    D    
C11   H2    S    
Cu1   O7    S    
Cu2   N1    S    
C7    C14   S    
C13   C20   S    
C6    Br3   S    
Cu1   O5    S    
C15   H5    S    
C7    O3    A    
C9    O7    A    
C12   Br6   S    
C11   Br5   S    
Cu1   O1    S    
C2    C3    S    
C3    C19   S    
C20   O14   D    
C17   O11   D    
N1    Br4   S    
C13   C14   S    
C20   H10   S    
C12   Br2   S    
C7    O4    A    
C9    O8    A    
C1    C5    S    
C2    C11   S    
C3    C16   S    
C16   O10   D    
C16   H6    S    
C12   C14   S    
C1    O1    A    
C5    C17   S    
Cu2   O4    S    
C5    C6    D    
C8    O6    A    
C4    Br1   S    
Cu1   O3    S    
C10   C11   S    
C13   H3    S    
Cu2   O8    S    
Cu1   Cu2   S    
C4    H4    S    
C17   H7    S    
C18   H8    S    
C1    O2    A    
Cu2   O2    S    
C19   H9    S    
C10   C14   S    
C4    C13   S    
C8    O5    A    
C6    C8    S    
C3    C12   S    
N1    N2    D    
C2    C9    S    
C10   C18   S    
C10   C15   S    
Cu1   N2    S    
H1    N2    S    
C18   O12   D    
C19   O13   D    
