data_mof_unit_52738.cif
_audit_creation_date              2012-10-26T20:43:34-0400
_audit_creation_method            fapswitch 2.2
_symmetry_space_group_name_H-M    P1
_symmetry_Int_Tables_number       1
_space_group_crystal_system       triclinic
_cell_length_a                    10.838957
_cell_length_b                    9.635926
_cell_length_c                    23.580425
_cell_angle_alpha                 90.397192
_cell_angle_beta                  93.090118
_cell_angle_gamma                 90.240957
_cell_volume                      2459.153534

loop_
_atom_site_label
_atom_site_type_symbol
_atom_type_description
_atom_site_fract_x
_atom_site_fract_y
_atom_site_fract_z
_atom_type_partial_charge
C1    C     C_R   0.262446 0.499683 0.500781 0.537663
C2    C     C_R   0.533996 0.621697 0.701062 -0.153769
C3    C     C_R   0.456459 0.622072 0.240008 0.146526
C4    C     C_R   0.535180 0.630168 0.760224 0.147614
C5    C     C_R   0.502264 0.511094 0.208955 0.269617
C6    C     C_R   0.495469 0.516485 0.791153 0.270366
C7    C     C_R   0.063532 0.373006 0.503451 -0.143438
C8    C     C_R   0.936677 0.624689 0.499568 -0.131547
C9    C     C_R   0.935656 0.373174 0.502579 -0.135348
C10   C     C_R   0.064119 0.624536 0.501860 -0.127779
C11   C     C_R   0.871563 0.499305 0.500496 0.015115
C12   C     C_R   0.737573 0.500012 0.500145 0.544514
C13   C     C_R   0.128486 0.498933 0.502224 0.016313
C14   C     C_R   0.418862 0.072128 0.464896 0.216177
C15   C     C_R   0.583380 0.929390 0.534305 0.183676
C16   C     C_R   0.581078 0.077206 0.534922 0.225247
C17   C     C_R   0.417085 0.925935 0.465823 0.231080
C18   C     C_R   0.503015 0.499291 0.391122 0.542560
C19   C     C_R   0.496891 0.500030 0.608911 0.550013
C20   C     C_R   0.608590 0.522452 0.882580 0.427239
C21   C     C_R   0.389258 0.509642 0.117474 0.428329
C22   C     C_R   0.387981 0.522337 0.878151 0.399039
C23   C     C_R   0.552671 0.395872 0.237338 -0.075546
C24   C     C_R   0.609549 0.524108 0.122015 0.399069
C25   C     C_R   0.386782 0.521027 0.937446 -0.002282
C26   C     C_R   0.610771 0.525210 0.062714 -0.002002
C27   C     C_R   0.499473 0.522668 0.970057 -0.054987
C28   C     C_R   0.498141 0.521096 0.030081 -0.054887
C29   C     C_R   0.613104 0.525262 0.942730 0.034418
C30   C     C_R   0.384588 0.514888 0.057379 0.034931
C31   C     C_R   0.274853 0.517581 0.964386 -0.059351
C32   C     C_R   0.722668 0.530305 0.035781 -0.059252
C33   C     C_R   0.271956 0.513787 0.023336 0.084567
C34   C     C_R   0.451622 0.396975 0.762687 -0.077378
C35   C     C_R   0.725662 0.529671 0.976798 0.084377
C36   C     C_3   0.625308 0.265692 0.323976 -0.261036
C37   C     C_3   0.749290 0.309145 0.352726 -0.395831
C38   C     C_3   0.387725 0.258369 0.676197 -0.260584
C39   C     C_3   0.261647 0.289822 0.647109 -0.398747
C40   C     C_R   0.558311 0.388612 0.296861 -0.020501
C41   C     C_R   0.446790 0.387761 0.703190 -0.017555
C42   C     C_R   0.506894 0.499042 0.328412 -0.003422
C43   C     C_R   0.492141 0.501348 0.671661 -0.002292
C44   C     C_R   0.458192 0.614985 0.299139 -0.152199
Cu1   Cu    Cu3+1 0.500000 0.640660 0.500000 0.927555
Cu2   Cu    Cu3+1 0.500000 0.359340 0.500000 0.943519
H1    H     H_    0.187688 0.516735 0.939570 0.193504
H2    H     H_    0.111200 0.723196 0.503474 0.117861
H3    H     H_    0.142795 0.418109 0.069067 0.280540
H4    H     H_    0.142505 0.596450 0.072838 0.282465
H5    H     H_    0.858521 0.444539 0.929904 0.281038
H6    H     H_    0.851512 0.622795 0.928428 0.281752
H7    H     H_    0.737220 0.389657 0.385679 0.169946
H8    H     H_    0.794414 0.217691 0.373204 0.138107
H9    H     H_    0.810824 0.350973 0.320698 0.167274
H10   H     H_    0.567284 0.211509 0.354114 0.171285
H11   H     H_    0.644727 0.185968 0.291357 0.135421
H12   H     H_    0.809774 0.533856 0.060616 0.193600
H13   H     H_    0.268817 0.370212 0.614096 0.172656
H14   H     H_    0.222655 0.193964 0.626655 0.134384
H15   H     H_    0.197267 0.326985 0.678955 0.165941
H16   H     H_    0.449472 0.208049 0.646432 0.177324
H17   H     H_    0.372775 0.178353 0.708920 0.130370
H18   H     H_    0.460176 0.828636 0.226619 0.224857
H19   H     H_    0.317639 0.756371 0.222097 0.248647
H20   H     H_    0.520440 0.836280 0.773815 0.221695
H21   H     H_    0.666517 0.775215 0.778336 0.246105
H22   H     H_    0.261702 0.186360 0.448981 0.250633
H23   H     H_    0.589902 0.312590 0.212399 0.129931
H24   H     H_    0.369602 0.198960 0.397388 0.257765
H25   H     H_    0.745757 0.826601 0.544023 0.246604
H26   H     H_    0.643672 0.791034 0.595332 0.267902
H27   H     H_    0.755776 0.127038 0.562210 0.219125
H28   H     H_    0.652932 0.123594 0.613690 0.219092
H29   H     H_    0.351554 0.781155 0.406732 0.263362
H30   H     H_    0.251810 0.827035 0.457870 0.239021
H31   H     H_    0.419130 0.311457 0.787593 0.127994
H32   H     H_    0.420588 0.701237 0.322017 0.120049
H33   H     H_    0.566694 0.710364 0.678287 0.116642
H34   H     H_    0.110892 0.274480 0.505367 0.117706
H35   H     H_    0.890031 0.723261 0.496832 0.118271
H36   H     H_    0.887413 0.274681 0.503331 0.129814
N1    N     N_R   0.497460 0.521920 0.852103 -0.372489
N2    N     N_3   0.678638 0.866004 0.569336 -0.658869
N3    N     N_3   0.665921 0.153723 0.571920 -0.546354
N4    N     N_3   0.320013 0.860247 0.431884 -0.599924
N5    N     N_R   0.500236 0.515680 0.148010 -0.372835
N6    N     N_R   0.500000 0.852070 0.500000 -0.237735
N7    N     N_R   0.500000 0.147930 0.500000 -0.231030
N8    N     N_3   0.152362 0.510058 0.046447 -0.599561
N9    N     N_3   0.845231 0.534624 0.953696 -0.599314
N10   N     N_3   0.409120 0.742674 0.211301 -0.581424
N11   N     N_3   0.575922 0.754724 0.789077 -0.582111
N12   N     N_3   0.329118 0.136469 0.426906 -0.601356
O1    O     O_R   0.319640 0.618740 0.500000 -0.512849
O2    O     O_2   0.284900 0.497190 0.145641 -0.502703
O3    O     O_2   0.280361 0.523919 0.846539 -0.498870
O4    O     O_2   0.716966 0.531732 0.153674 -0.499290
O5    O     O_R   0.680360 0.381260 0.500000 -0.478090
O6    O     O_R   0.680360 0.618740 0.500000 -0.512319
O7    O     O_R   0.319640 0.381260 0.500000 -0.523045
O8    O     O_R   0.499960 0.618810 0.417880 -0.512227
O9    O     O_R   0.500040 0.381190 0.582120 -0.472498
O10   O     O_R   0.500040 0.618810 0.582120 -0.514715
O11   O     O_R   0.499960 0.381190 0.417880 -0.516006
O12   O     O_2   0.713295 0.518499 0.854295 -0.502856

loop_
_geom_bond_atom_site_label_1
_geom_bond_atom_site_label_2
_ccdc_geom_bond_type
C25   C31   A    
H19   N10   S    
Cu2   O5    S    
C21   N5    A    
C26   C32   A    
H30   N4    S    
C27   C29   A    
C17   N6    A    
C23   H23   S    
C32   H12   S    
H3    N8    S    
Cu2   N7    S    
Cu1   Cu2   S    
C24   O4    S    
C36   C37   S    
H24   N12   S    
C24   C26   A    
C38   H17   S    
C18   C42   S    
C34   H31   S    
C38   C39   S    
C23   C40   A    
Cu2   O11   S    
C18   O8    A    
C12   O5    A    
C2    H33   S    
H5    N9    S    
C19   O9    A    
H4    N8    S    
C22   C25   A    
C31   C33   A    
C9    H36   S    
C37   H7    S    
C40   C42   A    
C16   N7    A    
C22   O3    S    
C31   H1    S    
C41   C43   A    
C14   C17   A    
C34   C41   A    
C42   C44   A    
C19   C43   S    
C20   O12   S    
C20   C29   A    
C39   H15   S    
Cu2   O7    S    
C3    C44   A    
C8    H35   S    
C32   C35   A    
C36   C40   S    
Cu1   N6    S    
C38   C41   S    
C4    C6    A    
C36   H11   S    
Cu1   O6    S    
H22   N12   S    
C17   N4    S    
C3    N10   S    
C5    N5    S    
C2    C4    A    
C14   N7    A    
C36   H10   S    
Cu1   O10   S    
C19   O10   A    
H29   N4    S    
C5    C23   A    
C2    C43   A    
C1    O1    A    
C39   H13   S    
C9    C11   A    
H27   N3    S    
H26   N2    S    
H20   N11   S    
C37   H8    S    
C10   H2    S    
C16   N3    S    
C1    C13   S    
H18   N10   S    
Cu1   O1    S    
C1    O7    A    
H25   N2    S    
Cu2   O9    S    
C7    C9    A    
C6    N1    S    
C30   C33   A    
C3    C5    A    
C10   C13   A    
C11   C12   S    
C15   N2    S    
C21   O2    S    
C25   C27   A    
C21   C30   A    
C29   C35   A    
C26   C28   A    
C22   N1    A    
C28   C30   A    
C18   O11   A    
C33   N8    S    
C8    C11   A    
C39   H14   S    
C44   H32   S    
H28   N3    S    
C24   N5    A    
C12   O6    A    
Cu1   O8    S    
C4    N11   S    
C37   H9    S    
C6    C34   A    
C7    C13   A    
C8    C10   A    
C20   N1    A    
C27   C28   A    
H21   N11   S    
C7    H34   S    
H6    N9    S    
C14   N12   S    
C15   C16   A    
C15   N6    A    
C38   H16   S    
C35   N9    S    
