data_mof_unit_32975.cif
_audit_creation_date              2012-12-11T15:13:45-0500
_audit_creation_method            fapswitch 2.2
_symmetry_space_group_name_H-M    P1
_symmetry_Int_Tables_number       1
_space_group_crystal_system       triclinic
_cell_length_a                    6.952629
_cell_length_b                    13.773995
_cell_length_c                    19.990733
_cell_angle_alpha                 104.006799
_cell_angle_beta                  89.825236
_cell_angle_gamma                 90.221595
_cell_volume                      1857.48229214

loop_
_atom_site_label
_atom_site_type_symbol
_atom_type_description
_atom_site_fract_x
_atom_site_fract_y
_atom_site_fract_z
_atom_type_partial_charge
O1    O     O_R   0.506780 0.600060 0.449950 -0.541398
O2    O     O_R   0.179840 0.597110 0.589410 -0.532947
O3    O     O_R   0.004570 0.399940 0.550050 -0.536119
C1    C     C_R   0.346919 0.613807 0.618515 0.704412
O4    O     O_R   0.177380 0.612160 0.452890 -0.539856
O5    O     O_R   0.002100 0.415100 0.412560 -0.545636
C2    C     C_R   0.347137 0.638492 0.436626 0.688680
O6    O     O_R   0.509250 0.584900 0.587440 -0.537072
O7    O     O_3   0.337570 0.435330 0.486930 -0.371673
V1    V     V_3+5 0.064650 0.512000 0.502430 1.499427
O8    O     O_R   0.672090 0.402890 0.410590 -0.532908
C3    C     C_R   0.841127 0.381284 0.383311 0.707347
O9    O     O_R   0.674540 0.387840 0.547110 -0.545561
C4    C     C_R   0.843363 0.361324 0.562920 0.703932
V2    V     V_3+5 0.564040 0.488000 0.497570 1.489550
O10   O     O_3   0.840990 0.564670 0.513070 -0.364955
C5    C     C_R   0.953003 0.112912 0.600212 -0.060301
C6    C     C_R   0.855292 0.279465 0.596819 -0.135083
C7    C     C_R   0.866125 0.307751 0.926271 -0.203433
C8    C     C_R   0.874181 0.382930 0.891400 -0.127456
C9    C     C_R   0.874899 0.360168 0.819603 0.004864
C10   C     C_R   0.855287 0.258792 0.780408 0.002853
C11   C     C_R   0.852850 0.180682 0.816545 0.031893
C12   C     C_R   0.854140 0.231914 0.706618 0.055993
C13   C     C_R   0.895398 0.132791 0.670919 -0.041655
C14   C     C_R   0.862063 0.056425 0.705148 -0.104331
C15   C     C_R   0.843191 0.079004 0.777904 0.290245
C16   C     C_R   0.807015 0.299255 0.666437 -0.208777
C17   C     C_R   0.936347 0.186866 0.563466 0.305248
C18   C     C_R   0.860048 0.207478 0.890385 -0.065469
H1    H     H_    0.730918 0.367768 0.688165 0.154309
H2    H     H_    0.870944 0.327967 0.982147 0.123068
H3    H     H_    0.887799 0.459823 0.920963 0.137961
C19   C     C_3   0.690708 0.259016 0.216249 -0.191280
C20   C     C_3   0.710072 0.226126 0.284461 0.367398
H4    H     H_    0.554067 0.265580 0.189216 0.187408
C21   C     C_3   0.851426 0.311964 0.312932 -0.183706
C22   C     C_3   0.834843 0.346414 0.244786 -0.246741
C23   C     C_3   0.002863 0.275594 0.215617 0.388429
C24   C     C_3   0.023715 0.242578 0.283834 -0.275119
C25   C     C_3   0.878079 0.157647 0.254992 0.272047
C26   C     C_3   0.862085 0.189530 0.186736 -0.096621
H5    H     H_    0.820742 0.424894 0.240409 0.146801
H6    H     H_    0.160468 0.235371 0.310672 0.191374
C27   C     C_3   0.500956 0.764084 0.713911 -0.189032
C28   C     C_3   0.337584 0.837038 0.745634 -0.078204
H7    H     H_    0.625849 0.772019 0.682222 0.207988
C29   C     C_3   0.360546 0.807781 0.814640 -0.158875
C30   C     C_3   0.524608 0.734470 0.783646 -0.134943
C31   C     C_3   0.374561 0.650219 0.760014 -0.076021
C32   C     C_3   0.212094 0.723124 0.792180 -0.049142
C33   C     C_3   0.189494 0.752837 0.723227 0.327344
C34   C     C_3   0.351054 0.679783 0.690658 -0.128586
H8    H     H_    0.663849 0.727788 0.808545 0.179057
C35   C     C_R   0.459581 0.886027 0.396882 -0.119956
H9    H     H_    0.468355 0.013090 0.318718 0.155096
H10   H     H_    0.502935 0.961117 0.423566 0.145835
C36   C     C_R   0.363841 0.718835 0.400985 -0.141215
C37   C     C_R   0.329194 0.690331 0.071766 -0.240990
C38   C     C_R   0.342692 0.614286 0.105812 -0.095510
C39   C     C_R   0.380550 0.635651 0.176183 0.336783
C40   C     C_R   0.380503 0.737156 0.216019 -0.004060
C41   C     C_R   0.380108 0.815989 0.180396 -0.017614
C42   C     C_R   0.384072 0.762858 0.289735 0.074292
C43   C     C_R   0.430708 0.861714 0.325375 0.034755
C44   C     C_R   0.441766 0.936736 0.290099 -0.160097
C45   C     C_R   0.405060 0.916799 0.219728 -0.052710
C46   C     C_R   0.334732 0.694821 0.329635 -0.276929
C47   C     C_R   0.433958 0.814523 0.434867 0.398173
C48   C     C_R   0.356466 0.789923 0.107173 -0.078807
H11   H     H_    0.273997 0.622257 0.306194 0.166318
H12   H     H_    0.308177 0.670828 0.016381 0.133254
H13   H     H_    0.336392 0.537242 0.076250 0.149730
O11   O     O_R   0.203580 0.914920 0.912610 -0.542489
O12   O     O_R   0.535710 0.887810 0.047120 -0.544611
O13   O     O_R   0.710730 0.084950 0.087430 -0.546196
C49   C     C_R   0.366636 0.863059 0.065000 0.696952
O14   O     O_R   0.533010 0.902850 0.910600 -0.529320
O15   O     O_R   0.708010 0.100090 0.949930 -0.533316
C50   C     C_R   0.365256 0.880462 0.883681 0.718069
O16   O     O_R   0.206300 0.899780 0.050100 -0.540843
O17   O     O_3   0.375170 0.064580 0.013100 -0.367281
V3    V     V_3+5 0.648200 0.988020 0.997570 1.535193
O18   O     O_R   0.038030 0.112330 0.952840 -0.548552
C51   C     C_R   0.869597 0.133963 0.932593 0.785561
O19   O     O_R   0.040730 0.097300 0.089360 -0.517327
C52   C     C_R   0.871788 0.119244 0.116567 0.757116
V4    V     V_3+5 0.148780 0.012220 0.002360 1.546631
O20   O     O_3   0.871930 0.935430 0.986900 -0.370920
O21   O     O_3   0.994616 0.164411 0.495040 -0.649321
H14   H     H_    0.952537 0.217100 0.472435 0.266828
O22   O     O_3   0.156596 0.301638 0.178178 -0.630018
H15   H     H_    0.219846 0.359382 0.209882 0.306735
O23   O     O_3   0.896198 0.058455 0.259683 -0.641740
H16   H     H_    0.908574 0.061918 0.309588 0.297316
C53   C     C_1   0.322185 0.939495 0.737055 0.332972
N1    N     N_1   0.311628 0.020400 0.730339 -0.350924
C54   C     C_1   0.399875 0.547901 0.767926 0.335734
N2    N     N_1   0.419816 0.467230 0.774227 -0.361025
C55   C     C_1   0.063711 0.706054 0.840505 0.352487
N3    N     N_1   0.949686 0.693209 0.879800 -0.376499
C56   C     C_1   0.807695 0.959671 0.663060 0.318459
N4    N     N_1   0.763879 0.884978 0.625827 -0.336002
O24   O     O_3   0.013018 0.761923 0.692406 -0.648454
H17   H     H_    0.046383 0.776106 0.647504 0.305466
O25   O     O_3   0.476393 0.842134 0.504424 -0.615949
H18   H     H_    0.437953 0.788428 0.526861 0.286246
O26   O     O_3   0.435787 0.555925 0.201982 -0.661877
H19   H     H_    0.540611 0.579482 0.235579 0.282014
C57   C     C_1   0.387756 0.004170 0.192378 0.353504
N5    N     N_1   0.372869 0.075260 0.171714 -0.289739
C58   C     C_1   0.042181 0.019548 0.565143 0.437972
N6    N     N_1   0.112544 0.944885 0.536879 -0.316826
C59   C     C_1   0.918150 0.442279 0.788896 0.322991
N7    N     N_1   0.951238 0.506832 0.762844 -0.364020
O27   O     O_3   0.813431 0.003807 0.811939 -0.652424
H20   H     H_    0.840802 0.937555 0.780989 0.300718
O28   O     O_3   0.554978 0.199608 0.321037 -0.643779
H21   H     H_    0.611454 0.185641 0.363200 0.269407

loop_
_geom_bond_atom_site_label_1
_geom_bond_atom_site_label_2
_ccdc_geom_bond_type
C1    C34   S    
C5    C17   A    
C25   C26   S    
C4    C6    S    
C7    C8    A    
C19   C26   S    
C1    O6    A    
C59   N7    T    
C27   C28   S    
O27   H20   S    
C14   C15   A    
C21   C22   S    
C42   C46   A    
C20   C21   S    
C21   C24   S    
V4    O20   S    
O5    C3    A    
C22   C23   S    
O14   C50   A    
O25   H18   S    
V2    O10   S    
C28   C33   S    
C38   H13   S    
O26   H19   S    
C19   C20   S    
C3    C21   S    
C39   O26   S    
C57   N5    T    
C58   N6    T    
C40   C42   A    
O1    C2    A    
O28   H21   S    
O8    V2    S    
O14   V3    S    
C29   C32   S    
C33   O24   S    
O1    V2    S    
C11   C15   A    
O7    V1    S    
C2    C36   S    
C19   H4    S    
C39   C40   A    
O17   V4    S    
C37   H12   S    
C15   O27   S    
C44   C45   A    
C27   C34   S    
C37   C38   A    
O11   C50   A    
O9    C4    A    
C48   C49   S    
O23   H16   S    
C7    H2    S    
O13   V3    S    
O24   H17   S    
C35   C43   A    
C23   C26   S    
C28   C29   S    
C27   H7    S    
V3    O20   S    
C41   C45   A    
C31   C54   S    
C31   C34   S    
C32   C33   S    
C11   C18   A    
C12   C16   A    
C6    C16   A    
C12   C13   A    
C23   C24   S    
O4    C2    A    
O19   C52   A    
C13   C14   A    
O17   V3    S    
C22   H5    S    
C38   C39   A    
O2    C1    A    
C40   C41   A    
C45   C57   S    
C25   O23   S    
C41   C48   A    
C49   O16   A    
C47   O25   S    
C53   N1    T    
C31   C32   S    
C6    C17   A    
O18   C51   A    
C18   C51   S    
O12   C49   A    
O13   C52   A    
C35   C47   A    
O3    C4    A    
C8    H3    S    
C36   C46   A    
C24   C25   S    
C30   C31   S    
O6    V2    S    
C35   H10   S    
C10   C12   A    
O2    V1    S    
C5    C58   S    
C23   O22   S    
O15   C51   A    
C33   C34   S    
C32   C55   S    
C29   C30   S    
C19   C22   S    
C17   O21   S    
C16   H1    S    
O18   V4    S    
C9    C59   S    
O5    V1    S    
O8    C3    A    
C36   C47   A    
C5    C13   A    
C42   C43   A    
C29   C50   S    
O9    V2    S    
O7    V2    S    
O4    V1    S    
O3    V1    S    
V1    O10   S    
C14   C56   S    
O15   V3    S    
O12   V3    S    
O21   H14   S    
C46   H11   S    
H9    C44   S    
O22   H15   S    
C27   C30   S    
O19   V4    S    
C43   C44   A    
C56   N4    T    
C20   C25   S    
O16   V4    S    
C37   C48   A    
C24   H6    S    
C28   C53   S    
C8    C9    A    
C54   N2    T    
C10   C11   A    
C20   O28   S    
C55   N3    T    
C26   C52   S    
O11   V4    S    
C9    C10   A    
C7    C18   A    
C30   H8    S    
