data_mof_unit_46010.cif
_audit_creation_date              2012-12-11T14:23:01-0500
_audit_creation_method            fapswitch 2.2
_symmetry_space_group_name_H-M    P1
_symmetry_Int_Tables_number       1
_space_group_crystal_system       triclinic
_cell_length_a                    11.058349
_cell_length_b                    10.927926
_cell_length_c                    18.787843
_cell_angle_alpha                 90.066448
_cell_angle_beta                  89.543186
_cell_angle_gamma                 60.263895
_cell_volume                      1971.34661223

loop_
_atom_site_label
_atom_site_type_symbol
_atom_type_description
_atom_site_fract_x
_atom_site_fract_y
_atom_site_fract_z
_atom_type_partial_charge
C1    C     C_R   0.238071 0.644993 0.610538 0.551472
C2    C     C_3   0.681936 0.545146 0.799779 -0.278584
C3    C     C_3   0.699620 0.674594 0.812498 -0.021558
C4    C     C_3   0.668524 0.650517 0.676106 0.021132
C5    C     C_3   0.811948 0.640502 0.689413 -0.098966
C6    C     C_3   0.669144 0.527225 0.719559 -0.281395
C7    C     C_R   0.688163 0.172175 0.827520 -0.016761
C8    C     C_R   0.803923 0.147414 0.783997 0.019777
C9    C     C_R   0.790306 0.148391 0.708709 0.041753
C10   C     C_R   0.541742 0.242462 0.724653 -0.092891
C11   C     C_R   0.557068 0.229757 0.797080 -0.145041
C12   C     C_R   0.652338 0.621958 0.601129 0.543412
C13   C     C_R   0.931366 0.124243 0.812439 -0.098914
C14   C     C_R   0.043619 0.095190 0.767825 -0.148199
C15   C     C_R   0.032636 0.086089 0.694732 -0.141341
C16   C     C_R   0.909385 0.106792 0.665454 -0.053886
C17   C     C_R   0.657072 0.195069 0.679204 0.054226
C18   C     C_R   0.192317 0.657272 0.836974 0.005926
C19   C     C_R   0.193216 0.544645 0.798935 -0.001753
C20   C     C_R   0.185113 0.550214 0.723470 0.017097
C21   C     C_R   0.219901 0.752563 0.727008 -0.144841
C22   C     C_R   0.217111 0.753095 0.800332 -0.155721
C23   C     C_R   0.625561 0.232786 0.604137 0.578501
C24   C     C_R   0.199395 0.427915 0.834310 -0.118230
C25   C     C_R   0.181437 0.328187 0.797380 -0.110364
C26   C     C_R   0.156199 0.343043 0.724674 -0.102318
C27   C     C_R   0.159236 0.451796 0.687729 -0.115985
C28   C     C_R   0.201989 0.654640 0.687019 0.037123
C29   C     C_R   0.669486 0.678004 0.173393 0.026165
C30   C     C_R   0.733600 0.541563 0.202681 0.032448
C31   C     C_R   0.764385 0.528255 0.275234 0.028464
C32   C     C_R   0.616482 0.781311 0.291934 -0.157999
C33   C     C_R   0.622154 0.796147 0.218633 -0.167132
C34   C     C_R   0.283975 0.623234 0.391884 0.565064
C35   C     C_R   0.786233 0.418231 0.160005 -0.065114
C36   C     C_R   0.893093 0.290873 0.184271 -0.136829
C37   C     C_R   0.942197 0.282016 0.252631 -0.144774
C38   C     C_R   0.879519 0.398721 0.297912 -0.079066
C39   C     C_R   0.681296 0.646954 0.320829 0.007844
C40   C     C_R   0.659152 0.147890 0.179092 -0.003821
C41   C     C_R   0.528807 0.199666 0.212314 0.011949
C42   C     C_R   0.526371 0.176805 0.285385 0.005509
C43   C     C_R   0.775114 0.095562 0.294516 -0.022185
C44   C     C_R   0.781277 0.089926 0.220734 -0.176407
C45   C     C_R   0.647166 0.622704 0.393330 0.539090
C46   C     C_R   0.402697 0.260418 0.173918 -0.069324
C47   C     C_R   0.282063 0.273777 0.204848 -0.125584
C48   C     C_R   0.283797 0.233959 0.275074 -0.151252
C49   C     C_R   0.405506 0.180632 0.314055 -0.093190
C50   C     C_R   0.644281 0.152701 0.327126 0.025414
C51   C     C_R   0.172838 0.647609 0.175232 0.021747
C52   C     C_R   0.270859 0.686932 0.193751 0.011552
C53   C     C_R   0.280257 0.710512 0.266777 -0.031916
C54   C     C_R   0.164794 0.575639 0.294987 -0.122738
C55   C     C_R   0.121780 0.589947 0.225330 -0.173042
C56   C     C_R   0.617453 0.223676 0.396586 0.599053
C57   C     C_R   0.330139 0.737439 0.142142 0.289957
C58   C     C_R   0.342163 0.854164 0.160680 -0.090234
C59   C     C_R   0.323395 0.899007 0.231255 -0.204858
C60   C     C_R   0.308434 0.819095 0.284735 -0.133756
C61   C     C_R   0.242304 0.637985 0.317352 0.017539
C62   C     C_R   0.702582 0.104695 0.897058 0.544525
C63   C     C_R   0.723973 0.687698 0.888442 0.546423
C64   C     C_R   0.121579 0.703247 0.906612 0.619525
C65   C     C_R   0.676645 0.104967 0.104692 0.541375
C66   C     C_R   0.701629 0.693991 0.100124 0.603886
C67   C     C_3   0.569536 0.809319 0.784860 -0.193962
C68   C     C_R   0.089588 0.709281 0.113217 0.603940
C69   C     C_3   0.542267 0.789383 0.706766 0.153407
C70   C     C_3   0.827220 0.659476 0.769839 -0.199347
Cr1   Cr    Cr6+3 0.392940 0.397950 0.502230 1.018261
Cr2   Cr    Cr6+3 0.398400 0.708500 0.501260 1.073395
Cr3   Cr    Cr6+3 0.708640 0.393530 0.496460 1.021894
Cr4   Cr    Cr6+3 0.937880 0.938320 0.007620 1.042538
Cr5   Cr    Cr6+3 0.625560 0.937220 0.994510 1.036727
Cr6   Cr    Cr6+3 0.938080 0.625010 0.001190 1.020381
H1    H     H_    0.587846 0.900317 0.790165 0.200899
H2    H     H_    0.757802 0.423604 0.702595 0.157037
H3    H     H_    0.922635 0.565904 0.788880 0.151266
H4    H     H_    0.892271 0.531108 0.675250 0.096161
H5    H     H_    0.437542 0.289720 0.704094 0.191359
H6    H     H_    0.944523 0.135553 0.868416 0.144050
H7    H     H_    0.466449 0.256240 0.829518 0.157538
H8    H     H_    0.141519 0.074623 0.790081 0.121303
H9    H     H_    0.120902 0.060615 0.660446 0.163296
H10   H     H_    0.909423 0.089828 0.608821 0.167804
H11   H     H_    0.237593 0.830025 0.701282 0.160966
H12   H     H_    0.475975 0.833258 0.817739 0.113496
H13   H     H_    0.223011 0.409839 0.890363 0.145935
H14   H     H_    0.225496 0.835016 0.828429 0.148546
H15   H     H_    0.185920 0.240628 0.826003 0.122105
H16   H     H_    0.136482 0.269075 0.696187 0.146685
H17   H     H_    0.135082 0.460127 0.631815 0.133617
H18   H     H_    0.562145 0.873489 0.325742 0.124323
H19   H     H_    0.754328 0.420971 0.105693 0.185260
H20   H     H_    0.583102 0.900755 0.196958 0.142211
H21   H     H_    0.941134 0.200334 0.149031 0.124122
H22   H     H_    0.028894 0.184060 0.270562 0.099387
H23   H     H_    0.453309 0.770471 0.707940 0.111848
H24   H     H_    0.929300 0.387260 0.348589 0.142701
H25   H     H_    0.397212 0.295114 0.119520 0.167162
H26   H     H_    0.883537 0.034414 0.195989 0.134576
H27   H     H_    0.187535 0.314202 0.174202 0.126727
H28   H     H_    0.191832 0.242207 0.299730 0.101204
H29   H     H_    0.404177 0.139442 0.366197 0.142559
H30   H     H_    0.127324 0.526251 0.332332 0.145959
H31   H     H_    0.043698 0.561827 0.211326 0.132614
H32   H     H_    0.369567 0.908352 0.121102 0.158681
H33   H     H_    0.335326 0.987404 0.245363 0.134262
H34   H     H_    0.308112 0.852976 0.338479 0.172231
H35   H     H_    0.840393 0.752108 0.781170 0.174396
H36   H     H_    0.772855 0.448384 0.820902 0.146366
H37   H     H_    0.587081 0.559104 0.828139 0.129881
H38   H     H_    0.572461 0.522174 0.709666 0.110728
O1    O     O_R   0.507340 0.255690 0.581430 -0.475544
O2    O     O_R   0.524510 0.695820 0.424050 -0.516720
O3    O     O_R   0.736370 0.504260 0.414810 -0.534768
O4    O     O_R   0.691220 0.277270 0.422180 -0.455714
O5    O     O_3   0.499990 0.499990 0.499980 -0.293680
O6    O     O_R   0.089570 0.825450 0.930590 -0.467328
O7    O     O_R   0.818700 0.054260 0.929860 -0.518631
O8    O     O_R   0.606310 0.077010 0.915520 -0.516974
O9    O     O_R   0.646730 0.806540 0.917560 -0.491885
O10   O     O_R   0.837290 0.593240 0.915240 -0.529420
O11   O     O_R   0.065320 0.635310 0.931580 -0.509805
O12   O     O_R   0.280360 0.527380 0.578910 -0.526363
O13   O     O_R   0.068470 0.828620 0.091850 -0.498785
O14   O     O_R   0.799150 0.057200 0.079350 -0.522068
O15   O     O_R   0.585220 0.080180 0.076770 -0.532076
O16   O     O_R   0.627170 0.809480 0.067050 -0.483955
O17   O     O_R   0.816200 0.596410 0.076500 -0.532853
O18   O     O_R   0.045770 0.638240 0.081070 -0.499868
O19   O     O_3   0.833840 0.833520 0.001110 -0.273771
O20   O     O_R   0.260600 0.739610 0.584580 -0.482903
O21   O     O_R   0.532370 0.695050 0.573830 -0.430926
O22   O     O_R   0.744850 0.503430 0.576380 -0.555505
O23   O     O_R   0.699080 0.276500 0.571950 -0.527488
O24   O     O_R   0.498860 0.256520 0.419860 -0.546546
O25   O     O_R   0.272490 0.528150 0.429140 -0.505894
O26   O     O_R   0.252110 0.740440 0.423010 -0.499821
C71   C     C_2   0.907113 0.027417 0.335076 0.231336
H39   H     H_    0.005676 0.990361 0.307373 0.100372
O27   O     O_2   0.908458 0.005764 0.398878 -0.480709
S1    S     S_3+6 0.376277 0.669007 0.053359 -0.013470
O28   O     O_2   0.328891 0.565410 0.035737 -0.317082
O29   O     O_2   0.313894 0.790259 0.002386 -0.300286
O30   O     O_3   0.548862 0.584528 0.041292 -0.565548
H40   H     H_    0.563464 0.565835 0.989416 0.359049
S2    S     S_3+6 0.477076 0.951075 0.656718 -0.028071
O31   O     O_2   0.405771 0.072074 0.707830 -0.360554
O32   O     O_2   0.590016 0.962133 0.617859 -0.255408
O33   O     O_3   0.358455 0.963799 0.597369 -0.525753
H41   H     H_    0.320019 0.059304 0.576922 0.341928
C72   C     C_2   0.844343 0.731833 0.641400 0.271562
H42   H     H_    0.845023 0.718167 0.584156 0.132008
O34   O     O_2   0.872281 0.818949 0.664998 -0.498555

loop_
_geom_bond_atom_site_label_1
_geom_bond_atom_site_label_2
_ccdc_geom_bond_type
C32   H18   S    
C21   H11   S    
C8    C13   A    
Cr3   O5    S    
Cr5   O8    S    
C41   C42   A    
C35   C36   A    
C67   H1    S    
C14   H8    S    
C38   H24   S    
C24   H13   S    
C63   O10   A    
S2    O31   D    
C7    C8    A    
C7    C11   A    
C2    H36   S    
C26   C27   A    
C17   C23   S    
C30   C35   A    
Cr5   O9    S    
C45   O3    A    
C36   C37   A    
C9    C16   A    
C71   O27   D    
C30   C31   A    
Cr6   O17   S    
C6    H2    S    
Cr1   O5    S    
C10   C17   A    
C26   H16   S    
C15   C16   A    
C48   H28   S    
Cr4   O19   S    
C29   C33   A    
C34   O25   A    
C18   C19   A    
C32   C39   A    
C68   O18   A    
C37   H22   S    
C59   H33   S    
C54   C55   A    
C53   C61   A    
C6    H38   S    
O30   H40   S    
C8    C9    A    
C12   O21   A    
C1    C28   S    
C41   C46   A    
Cr1   O12   S    
C36   H21   S    
C4    C12   S    
C72   O34   D    
Cr5   O16   S    
C39   C45   S    
C10   C11   A    
C59   C60   A    
C13   C14   A    
C16   H10   S    
Cr6   O11   S    
C2    C6    S    
S1    O30   S    
C4    C69   S    
C53   C60   A    
Cr1   O24   S    
C46   H25   S    
Cr4   O14   S    
C25   H15   S    
C58   H32   S    
C47   H27   S    
C54   H30   S    
C67   H12   S    
C51   C52   A    
Cr6   O10   S    
C65   O14   A    
C3    C70   S    
Cr3   O3    S    
C1    O12   A    
C4    C6    S    
C52   C57   A    
S2    O33   S    
C44   H26   S    
S1    O28   D    
Cr2   O21   S    
C49   H29   S    
C20   C28   A    
C11   H7    S    
C58   C59   A    
C13   H6    S    
C34   C61   S    
C50   C56   S    
C55   H31   S    
C67   C69   S    
C37   C38   A    
C43   C44   A    
C7    C62   S    
C29   C30   A    
C65   O15   A    
C56   O24   A    
Cr2   O20   S    
Cr4   O13   S    
Cr3   O22   S    
Cr2   O26   S    
C22   H14   S    
Cr1   O1    S    
C24   C25   A    
C5    H4    S    
C68   O13   A    
C72   H42   S    
C42   C50   A    
C69   H23   S    
S1    O29   D    
C48   C49   A    
C54   C61   A    
C21   C28   A    
C3    C63   S    
C40   C65   S    
C43   C71   S    
C1    O20   A    
C33   H20   S    
C62   O8    A    
C52   C53   A    
C66   O17   A    
C9    C17   A    
C46   C47   A    
C40   C41   A    
Cr3   O4    S    
C57   S1    S    
C70   H3    S    
C18   C22   A    
C56   O4    A    
C23   O23   A    
C3    C67   S    
C4    C5    S    
C47   C48   A    
C5    C70   S    
C63   O9    A    
Cr6   O19   S    
Cr5   O19   S    
C43   C50   A    
Cr1   O25   S    
C20   C27   A    
C35   H19   S    
Cr4   O6    S    
Cr2   O2    S    
C10   H5    S    
C64   O6    A    
C31   C38   A    
C15   H9    S    
C69   S2    S    
C32   C33   A    
C19   C20   A    
S2    O32   D    
C19   C24   A    
C25   C26   A    
C71   H39   S    
Cr6   O18   S    
C45   O2    A    
C18   C64   S    
C57   C58   A    
Cr3   O23   S    
C60   H34   S    
Cr2   O5    S    
C34   O26   A    
C2    H37   S    
C31   C39   A    
C2    C3    S    
C51   C55   A    
C51   C68   S    
C27   H17   S    
C70   H35   S    
C42   C49   A    
C23   O1    A    
C29   C66   S    
Cr5   O15   S    
C40   C44   A    
Cr4   O7    S    
O33   H41   S    
C64   O11   A    
C12   O22   A    
C14   C15   A    
C21   C22   A    
C62   O7    A    
C5    C72   S    
C66   O16   A    
