data_mof_unit_62417.cif
_audit_creation_date              2012-12-10T18:35:47-0500
_audit_creation_method            fapswitch 2.2
_symmetry_space_group_name_H-M    P1
_symmetry_Int_Tables_number       1
_space_group_crystal_system       triclinic
_cell_length_a                    25.66164
_cell_length_b                    36.092339
_cell_length_c                    22.126301
_cell_angle_alpha                 89.967547
_cell_angle_beta                  125.365436
_cell_angle_gamma                 90.034632
_cell_volume                      16711.672967

loop_
_atom_site_label
_atom_site_type_symbol
_atom_type_description
_atom_site_fract_x
_atom_site_fract_y
_atom_site_fract_z
_atom_type_partial_charge
C1    C     C_R   0.608309 0.250057 0.000388 0.800330
C2    C     C_3   0.722899 0.478437 0.041181 -0.486065
C3    C     C_1   0.077519 0.249961 0.654607 -0.128419
C4    C     C_1   0.610729 0.249984 0.721383 -0.141061
C5    C     C_1   0.610693 0.750052 0.721387 -0.141362
C6    C     C_1   0.110758 0.749988 0.721387 -0.141197
C7    C     C_1   0.110805 0.250004 0.721376 -0.141191
C8    C     C_3   0.758152 0.021430 0.074247 0.352840
C9    C     C_3   0.758010 0.977863 0.073436 0.377930
C10   C     C_3   0.266424 0.521531 0.078488 0.349565
C11   C     C_3   0.267382 0.477973 0.078164 0.381087
C12   C     C_3   0.804880 0.021492 0.000312 -0.503998
C13   C     C_3   0.222298 0.021500 0.040494 -0.484496
C14   C     C_3   0.804557 0.978590 0.999460 -0.517101
C15   C     C_3   0.300806 0.521598 0.991925 -0.502619
C16   C     C_3   0.300234 0.478692 0.990502 -0.516787
C17   C     C_1   0.749535 0.889306 0.999778 -0.165279
C18   C     C_1   0.749933 0.110665 0.000360 -0.165158
C19   C     C_1   0.250090 0.389319 0.000195 -0.164864
C20   C     C_1   0.250039 0.610685 0.000317 -0.166121
C21   C     C_3   0.749461 0.036510 0.002619 0.212756
C22   C     C_3   0.749125 0.963445 0.001616 0.217886
C23   C     C_3   0.250183 0.536544 0.002984 0.211858
C24   C     C_3   0.222310 0.978434 0.040498 -0.486359
C25   C     C_3   0.250209 0.463480 0.002268 0.217934
C26   C     C_3   0.685408 0.978674 0.933115 -0.377072
C27   C     C_3   0.685650 0.021595 0.933666 -0.374001
C28   C     C_3   0.183586 0.478595 0.939167 -0.378742
C29   C     C_3   0.183786 0.521513 0.939065 -0.372900
C30   C     C_1   0.749255 0.922669 0.000267 -0.061812
C31   C     C_1   0.749781 0.077297 0.001277 -0.087630
C32   C     C_1   0.250174 0.422692 0.000873 -0.059731
C33   C     C_1   0.250120 0.577324 0.001302 -0.090497
C34   C     C_R   0.650366 0.249961 0.800794 0.824381
C35   C     C_1   0.749853 0.577425 0.999263 -0.038471
C36   C     C_R   0.650360 0.750046 0.800786 0.825473
C37   C     C_R   0.150370 0.749962 0.800796 0.825077
C38   C     C_R   0.150375 0.250039 0.800782 0.824799
C39   C     C_R   0.749967 0.150346 0.000067 0.818251
C40   C     C_R   0.749879 0.849646 0.999943 0.818393
C41   C     C_R   0.249941 0.650353 0.000024 0.819769
C42   C     C_R   0.249978 0.349654 0.000020 0.816583
C43   C     C_R   0.749941 0.349536 0.999991 0.821225
C44   C     C_R   0.749931 0.650465 0.999983 0.820932
C45   C     C_R   0.249944 0.849535 0.999990 0.821250
C46   C     C_1   0.749864 0.422576 0.999256 -0.037831
C47   C     C_R   0.249932 0.150464 0.999984 0.824592
C48   C     C_3   0.705852 0.478322 0.917178 0.255748
C49   C     C_3   0.705863 0.521706 0.917185 0.255923
C50   C     C_3   0.206482 0.978319 0.917153 0.255940
C51   C     C_3   0.206493 0.021703 0.917159 0.255622
C52   C     C_3   0.818657 0.478547 0.037695 -0.419623
C53   C     C_3   0.818659 0.521490 0.037720 -0.421033
C54   C     C_3   0.318797 0.978544 0.038432 -0.420008
C55   C     C_3   0.318796 0.021489 0.038458 -0.420890
C56   C     C_1   0.749944 0.610790 0.999713 -0.137433
C57   C     C_1   0.249891 0.077424 0.999270 -0.037606
C58   C     C_1   0.749965 0.389212 0.999722 -0.136105
C59   C     C_1   0.249958 0.110789 0.999712 -0.136837
C60   C     C_1   0.249986 0.889210 0.999721 -0.137171
C61   C     C_3   0.727911 0.063819 0.130068 0.108230
C62   C     C_3   0.754890 0.048591 0.207543 -0.386575
C63   C     C_3   0.770205 0.079793 0.262027 -0.943922
C64   C     C_3   0.729837 0.952477 0.149012 0.109898
C65   C     C_3   0.743449 0.910807 0.158353 -0.341570
C66   C     C_3   0.764765 0.897549 0.234973 -0.972839
C67   C     C_3   0.242584 0.564469 0.139928 0.108406
C68   C     C_1   0.249910 0.922574 0.999266 -0.038041
C69   C     C_3   0.274238 0.550833 0.219475 -0.382772
C70   C     C_3   0.292778 0.583217 0.272666 -0.944995
C71   C     C_3   0.253189 0.452275 0.165565 0.114642
C72   C     C_3   0.274059 0.411633 0.175984 -0.355645
C73   C     C_3   0.301323 0.398249 0.254439 -0.961043
C74   C     C_3   0.572785 0.809378 0.153462 0.066201
C75   C     C_3   0.596388 0.849220 0.176488 -0.312470
C76   C     C_3   0.580856 0.864413 0.228763 -0.978758
C77   C     C_3   0.577617 0.196124 0.162655 0.074503
C78   C     C_3   0.612593 0.217480 0.235884 -0.340209
C79   C     C_3   0.004580 0.277853 0.043859 -0.225176
C80   C     C_3   0.597280 0.201830 0.288044 -0.970749
C81   C     C_3   0.094395 0.236548 0.192961 0.068136
C82   C     C_3   0.118394 0.271448 0.241110 -0.317209
C83   C     C_3   0.107989 0.269027 0.302299 -0.982095
C84   C     C_3   0.075238 0.692982 0.158163 0.073736
C85   C     C_3   0.112850 0.712486 0.233464 -0.339649
C86   C     C_3   0.095948 0.696967 0.284269 -0.970694
C87   C     C_3   0.978019 0.714930 0.991098 -0.276275
C88   C     C_3   0.475768 0.784772 0.986696 -0.263802
C89   C     C_R   0.608195 0.750072 0.000107 0.798674
C90   C     C_3   0.479663 0.214737 0.994282 -0.274956
C91   C     C_3   0.484255 0.761907 0.933652 -0.237493
C92   C     C_3   0.486034 0.234751 0.936819 -0.238003
C93   C     C_3   0.004449 0.282891 0.974203 -0.248129
C94   C     C_3   0.985309 0.736210 0.935472 -0.236395
C95   C     C_3   0.551005 0.750139 0.000157 -0.001324
C96   C     C_3   0.551205 0.250049 0.000626 -0.004111
C97   C     C_3   0.050747 0.250020 0.999670 -0.011413
C98   C     C_3   0.051187 0.750010 0.000573 -0.003868
C99   C     C_3   0.542331 0.772370 0.052432 0.564506
C100  C     C_R   0.108286 0.750028 0.000337 0.799437
C101  C     C_3   0.544615 0.230664 0.057263 0.573791
C102  C     C_3   0.050379 0.244848 0.067816 0.547975
C103  C     C_3   0.043703 0.729381 0.055414 0.574249
C104  C     C_3   0.994954 0.217087 0.025188 -0.288375
C105  C     C_3   0.014438 0.764115 0.064806 -0.282751
C106  C     C_3   0.515427 0.737970 0.066442 -0.299777
C107  C     C_3   0.513676 0.265557 0.063405 -0.282400
C108  C     C_3   0.523603 0.715433 0.012722 -0.224397
C109  C     C_3   0.519840 0.285151 0.005429 -0.227246
C110  C     C_3   0.994833 0.222613 0.955650 -0.186037
C111  C     C_R   0.108163 0.249997 0.000075 0.825012
C112  C     C_3   0.021503 0.784994 0.008636 -0.229676
C113  C     C_3   0.947707 0.255509 0.930236 -0.133765
C114  C     C_3   0.954773 0.771183 0.943503 -0.095228
C115  C     C_3   0.455987 0.727224 0.946154 -0.094490
C116  C     C_3   0.453819 0.269846 0.941599 -0.096396
C117  C     C_R   0.891682 0.250039 0.999849 0.802331
C118  C     C_R   0.891615 0.749997 0.999715 0.809151
C119  C     C_R   0.391664 0.749978 0.999830 0.808318
C120  C     C_R   0.391584 0.249963 0.999656 0.808539
C121  C     C_3   0.948847 0.250175 0.999877 -0.008527
C122  C     C_3   0.749586 0.463348 0.998386 0.199640
C123  C     C_3   0.948647 0.750068 0.999502 -0.009500
C124  C     C_3   0.448700 0.749963 0.999637 -0.009790
C125  C     C_3   0.448605 0.250007 0.999423 -0.009020
C126  C     C_3   0.466153 0.257992 0.543059 -0.390232
C127  C     C_3   0.465863 0.742656 0.543126 -0.390173
C128  C     C_3   0.967398 0.761372 0.543080 -0.389942
C129  C     C_3   0.968343 0.236692 0.543095 -0.389525
C130  C     C_3   0.539623 0.211978 0.542865 -0.390999
C131  C     C_3   0.540338 0.787869 0.542835 -0.390831
C132  C     C_3   0.034982 0.710991 0.542892 -0.391080
C133  C     C_3   0.749586 0.536655 0.998398 0.200212
C134  C     C_3   0.032356 0.289409 0.542835 -0.391426
C135  C     C_3   0.496608 0.212019 0.456860 -0.389651
C136  C     C_3   0.497288 0.787830 0.456835 -0.390133
C137  C     C_3   0.991935 0.711024 0.456888 -0.390338
C138  C     C_3   0.989322 0.289369 0.456831 -0.389778
C139  C     C_1   0.389315 0.250152 0.278569 -0.144221
C140  C     C_1   0.389218 0.749879 0.278592 -0.145344
C141  C     C_1   0.889331 0.750145 0.278580 -0.144412
C142  C     C_1   0.889364 0.249829 0.278582 -0.145115
C143  C     C_3   0.536624 0.250074 0.573049 0.349358
C144  C     C_3   0.249652 0.963345 0.998404 0.199709
C145  C     C_3   0.536497 0.749974 0.573072 0.349677
C146  C     C_3   0.036692 0.750065 0.573062 0.349922
C147  C     C_3   0.036781 0.249912 0.573051 0.349722
C148  C     C_3   0.423163 0.258061 0.457055 -0.388623
C149  C     C_3   0.422843 0.742588 0.457120 -0.389474
C150  C     C_3   0.924409 0.761445 0.457083 -0.389493
C151  C     C_3   0.925350 0.236625 0.457100 -0.389180
C152  C     C_3   0.463537 0.250152 0.426860 0.350949
C153  C     C_3   0.463368 0.749895 0.426889 0.352418
C154  C     C_3   0.963590 0.750132 0.426872 0.351824
C155  C     C_3   0.249647 0.036652 0.998414 0.199419
C156  C     C_3   0.963679 0.249838 0.426868 0.352005
C157  C     C_3   0.515980 0.280335 0.456915 -0.393247
C158  C     C_3   0.515125 0.719310 0.456971 -0.393421
C159  C     C_3   0.019581 0.777890 0.456905 -0.392579
C160  C     C_3   0.021529 0.223568 0.456917 -0.393915
C161  C     C_3   0.558960 0.280302 0.542929 -0.387832
C162  C     C_3   0.558127 0.719344 0.542975 -0.387454
C163  C     C_3   0.062558 0.777876 0.542917 -0.388267
C164  C     C_3   0.064512 0.223589 0.542934 -0.387957
C165  C     C_R   0.849579 0.249902 0.199203 0.818531
C166  C     C_3   0.722894 0.521504 0.041182 -0.485843
C167  C     C_R   0.849572 0.750091 0.199194 0.820748
C168  C     C_R   0.349550 0.749915 0.199206 0.820125
C169  C     C_R   0.349568 0.250092 0.199189 0.828152
C170  C     C_1   0.422745 0.250174 0.345326 -0.129581
C171  C     C_1   0.422588 0.749868 0.345351 -0.131694
C172  C     C_1   0.922781 0.750156 0.345338 -0.130190
C173  C     C_1   0.922848 0.249811 0.345337 -0.130738
C174  C     C_1   0.577385 0.250024 0.654611 -0.128145
C175  C     C_1   0.577300 0.750023 0.654622 -0.128377
C176  C     C_1   0.077439 0.750023 0.654617 -0.128284
H1    H     H_    0.990638 0.190388 0.046882 0.135105
H2    H     H_    0.916845 0.788446 0.897095 0.148938
H3    H     H_    0.156683 0.030832 0.893341 0.106467
H4    H     H_    0.472541 0.771507 0.879448 0.148091
H5    H     H_    0.475817 0.222376 0.885076 0.146934
H6    H     H_    0.009182 0.309595 0.952885 0.149825
H7    H     H_    0.974483 0.725015 0.882625 0.147096
H8    H     H_    0.007005 0.300511 0.079246 0.147638
H9    H     H_    0.959860 0.686271 0.984917 0.141578
H10   H     H_    0.456136 0.813254 0.977529 0.143039
H11   H     H_    0.462848 0.185951 0.990686 0.141852
H12   H     H_    0.766059 0.531285 0.891234 0.336682
H13   H     H_    0.419032 0.708629 0.901888 0.149088
H14   H     H_    0.766009 0.468821 0.891169 0.336898
H15   H     H_    0.267409 0.031275 0.892280 0.336834
H16   H     H_    0.267355 0.968810 0.892214 0.336915
H17   H     H_    0.685156 0.080912 0.111715 0.174468
H18   H     H_    0.763095 0.082717 0.131887 0.130473
H19   H     H_    0.719440 0.029626 0.204790 0.228646
H20   H     H_    0.799362 0.032774 0.228269 0.199417
H21   H     H_    0.806458 0.098786 0.266707 0.265145
H22   H     H_    0.789636 0.067896 0.317543 0.262453
H23   H     H_    0.726290 0.095722 0.243463 0.265707
H24   H     H_    0.415109 0.286004 0.893634 0.148814
H25   H     H_    0.691154 0.958247 0.156099 0.165907
H26   H     H_    0.772467 0.968248 0.193435 0.104686
H27   H     H_    0.699487 0.895576 0.115471 0.245051
H28   H     H_    0.781645 0.904400 0.150755 0.219372
H29   H     H_    0.810891 0.910702 0.278444 0.261871
H30   H     H_    0.771242 0.867015 0.238610 0.278264
H31   H     H_    0.728265 0.904518 0.245092 0.259684
H32   H     H_    0.200427 0.581669 0.123683 0.174751
H33   H     H_    0.275889 0.582972 0.137153 0.128636
H34   H     H_    0.240674 0.532389 0.221725 0.230499
H35   H     H_    0.385145 0.236696 0.436452 0.166420
H36   H     H_    0.318019 0.534850 0.237653 0.199759
H37   H     H_    0.327252 0.601669 0.272244 0.264151
H38   H     H_    0.315605 0.572517 0.329823 0.262672
H39   H     H_    0.249710 0.599433 0.256530 0.266815
H40   H     H_    0.217620 0.455198 0.178671 0.167833
H41   H     H_    0.294390 0.470336 0.205483 0.105047
H42   H     H_    0.232298 0.394129 0.135687 0.249185
H43   H     H_    0.311143 0.408325 0.165338 0.210679
H44   H     H_    0.343466 0.415209 0.295677 0.258793
H45   H     H_    0.316561 0.368893 0.260424 0.274236
H46   H     H_    0.385314 0.764251 0.436509 0.164667
H47   H     H_    0.264505 0.400160 0.265783 0.262922
H48   H     H_    0.596321 0.791454 0.203635 0.148714
H49   H     H_    0.520177 0.809228 0.126794 0.144659
H50   H     H_    0.648993 0.850167 0.204560 0.235476
H51   H     H_    0.573120 0.867046 0.126128 0.223514
H52   H     H_    0.528348 0.863733 0.201674 0.270372
H53   H     H_    0.597578 0.893577 0.243084 0.263704
H54   H     H_    0.605310 0.847789 0.280614 0.264132
H55   H     H_    0.592798 0.166653 0.174773 0.162734
H56   H     H_    0.525119 0.196396 0.136343 0.138425
H57   H     H_    0.883878 0.741881 0.436493 0.165111
H58   H     H_    0.664995 0.215871 0.263283 0.232721
H59   H     H_    0.598347 0.247075 0.225009 0.209632
H60   H     H_    0.544949 0.202587 0.261296 0.273226
H61   H     H_    0.621406 0.218751 0.339374 0.261029
H62   H     H_    0.614573 0.172821 0.303350 0.263938
H63   H     H_    0.121041 0.212292 0.228741 0.160040
H64   H     H_    0.043022 0.231810 0.169745 0.118301
H65   H     H_    0.170217 0.275159 0.266642 0.231168
H66   H     H_    0.092706 0.296079 0.206235 0.214110
H67   H     H_    0.056515 0.264932 0.278088 0.270156
H68   H     H_    0.883524 0.255106 0.436499 0.165196
H69   H     H_    0.124024 0.295176 0.334682 0.265827
H70   H     H_    0.135974 0.245694 0.340354 0.260133
H71   H     H_    0.087764 0.663072 0.167076 0.162205
H72   H     H_    0.022975 0.694670 0.132810 0.139736
H73   H     H_    0.164901 0.708849 0.260350 0.232139
H74   H     H_    0.102172 0.742596 0.225657 0.210999
H75   H     H_    0.043933 0.699987 0.258116 0.273438
H76   H     H_    0.122512 0.712414 0.337471 0.261328
H77   H     H_    0.109318 0.667234 0.296079 0.264009
H78   H     H_    0.448750 0.236571 0.563628 0.165048
H79   H     H_    0.448960 0.764371 0.563689 0.164772
H80   H     H_    0.947492 0.741739 0.563659 0.164797
H81   H     H_    0.024544 0.775683 0.117021 0.130887
H82   H     H_    0.947129 0.255231 0.563661 0.165144
H83   H     H_    0.589770 0.205639 0.563345 0.168085
H84   H     H_    0.590615 0.793776 0.563281 0.167504
H85   H     H_    0.084201 0.702218 0.563356 0.167941
H86   H     H_    0.080923 0.299552 0.563290 0.168017
H87   H     H_    0.523610 0.189716 0.563482 0.165565
H88   H     H_    0.524849 0.810413 0.563448 0.165397
H89   H     H_    0.016393 0.690425 0.563542 0.164956
H90   H     H_    0.012370 0.308916 0.563457 0.164881
H91   H     H_    0.459978 0.189790 0.436307 0.165820
H92   H     H_    0.527294 0.728528 0.120778 0.132120
H93   H     H_    0.461161 0.810340 0.436275 0.165161
H94   H     H_    0.952697 0.690503 0.436368 0.164685
H95   H     H_    0.948709 0.308840 0.436281 0.164570
H96   H     H_    0.526154 0.205681 0.436163 0.168736
H97   H     H_    0.526947 0.793750 0.436110 0.166650
H98   H     H_    0.020527 0.702228 0.436175 0.168577
H99   H     H_    0.017274 0.299517 0.436111 0.168679
H100  H     H_    0.557048 0.308030 0.563554 0.170321
H101  H     H_    0.555602 0.691751 0.563641 0.170380
H102  H     H_    0.064057 0.806260 0.563506 0.170006
H103  H     H_    0.523066 0.278393 0.114349 0.129529
H104  H     H_    0.067986 0.194931 0.563569 0.169707
H105  H     H_    0.848667 0.468470 0.096001 0.185685
H106  H     H_    0.848653 0.531534 0.096041 0.185363
H107  H     H_    0.348394 0.968465 0.096747 0.185599
H108  H     H_    0.348371 0.031531 0.096790 0.185512
H109  H     H_    0.609473 0.275218 0.563455 0.165773
H110  H     H_    0.608745 0.723986 0.563474 0.165707
H111  H     H_    0.112310 0.770351 0.563457 0.166073
H112  H     H_    0.113685 0.232518 0.563451 0.166437
H113  H     H_    0.493533 0.308088 0.436362 0.167206
H114  H     H_    0.543625 0.687058 0.022333 0.148505
H115  H     H_    0.492051 0.691693 0.436463 0.167140
H116  H     H_    0.000578 0.806290 0.436321 0.166879
H117  H     H_    0.004484 0.194895 0.436378 0.166123
H118  H     H_    0.462555 0.285300 0.563734 0.170212
H119  H     H_    0.461661 0.715504 0.563846 0.170064
H120  H     H_    0.967178 0.789434 0.563763 0.170235
H121  H     H_    0.970074 0.208289 0.563799 0.170386
H122  H     H_    0.399027 0.285413 0.436558 0.168827
H123  H     H_    0.398088 0.715392 0.436665 0.169211
H124  H     H_    0.903673 0.789556 0.436595 0.169076
H125  H     H_    0.536997 0.313875 0.009339 0.151082
H126  H     H_    0.906549 0.208181 0.436632 0.169184
H127  H     H_    0.545911 0.275238 0.436266 0.165638
H128  H     H_    0.545150 0.723962 0.436298 0.164183
H129  H     H_    0.048741 0.770324 0.436269 0.165884
H130  H     H_    0.050101 0.232529 0.436247 0.167850
H131  H     H_    0.806082 0.967928 0.120839 -0.022439
H132  H     H_    0.806389 0.030078 0.123182 -0.019677
H133  H     H_    0.317441 0.468614 0.121003 -0.023543
H134  H     H_    0.315962 0.530573 0.123759 -0.019046
H135  H     H_    0.800183 0.032012 0.950057 0.208829
H136  H     H_    0.991593 0.200200 0.919290 0.162479
H137  H     H_    0.799326 0.968625 0.948596 0.208738
H138  H     H_    0.290904 0.532294 0.938986 0.208565
H139  H     H_    0.288866 0.468908 0.936365 0.208646
H140  H     H_    0.851520 0.031569 0.049377 0.175266
H141  H     H_    0.851153 0.968072 0.047880 0.176222
H142  H     H_    0.349238 0.531559 0.037535 0.175180
H143  H     H_    0.348683 0.468071 0.034545 0.176336
H144  H     H_    0.644642 0.031895 0.933363 0.207692
H145  H     H_    0.644344 0.968306 0.932663 0.210700
H146  H     H_    0.146010 0.531952 0.944751 0.206831
H147  H     H_    0.040028 0.813582 0.015192 0.150282
H148  H     H_    0.146349 0.468366 0.946001 0.210779
H149  H     H_    0.678869 0.031994 0.882179 0.166421
H150  H     H_    0.678428 0.968620 0.881341 0.164587
H151  H     H_    0.171769 0.531670 0.884844 0.166314
H152  H     H_    0.170558 0.468305 0.884612 0.163877
H153  H     H_    0.841634 0.468029 0.011275 0.165338
H154  H     H_    0.841664 0.532065 0.011343 0.164704
H155  H     H_    0.342227 0.968027 0.012539 0.165162
H156  H     H_    0.342255 0.032065 0.012614 0.164779
H157  H     H_    0.673366 0.468133 0.015303 0.169495
H158  H     H_    0.904020 0.259906 0.873360 0.139028
H159  H     H_    0.673362 0.531782 0.015302 0.169519
H160  H     H_    0.172701 0.968127 0.014093 0.169757
H161  H     H_    0.172686 0.031774 0.014078 0.170240
H162  H     H_    0.752426 0.468174 0.099363 0.199237
H163  H     H_    0.752417 0.531749 0.099367 0.199141
H164  H     H_    0.251424 0.968172 0.098686 0.199368
H165  H     H_    0.251399 0.031746 0.098682 0.199811
H166  H     H_    0.656149 0.469178 0.893934 0.106323
H167  H     H_    0.656161 0.530835 0.893926 0.106372
H168  H     H_    0.156671 0.969176 0.893357 0.106398
O1    O     O_3   0.749950 0.249950 0.000000 -0.481480
O2    O     O_R   0.637220 0.728540 0.836030 -0.635017
O3    O     O_R   0.137220 0.771460 0.836030 -0.635034
O4    O     O_R   0.137220 0.228540 0.836030 -0.636321
O5    O     O_R   0.654190 0.228460 0.043020 -0.602991
O6    O     O_R   0.654190 0.771540 0.043020 -0.602394
O7    O     O_R   0.154190 0.728460 0.043020 -0.602734
O8    O     O_R   0.154190 0.271540 0.043020 -0.620759
O9    O     O_R   0.845720 0.228460 0.956990 -0.639525
O10   O     O_R   0.845720 0.771540 0.956990 -0.645129
O11   O     O_R   0.345720 0.728460 0.956990 -0.644629
O12   O     O_3   0.749950 0.750050 0.000000 -0.480204
O13   O     O_R   0.345720 0.271540 0.956990 -0.645054
O14   O     O_R   0.611190 0.271450 0.957030 -0.650712
O15   O     O_R   0.611190 0.728550 0.957030 -0.650805
O16   O     O_R   0.111190 0.771450 0.957030 -0.650573
O17   O     O_R   0.111190 0.228550 0.957030 -0.655388
O18   O     O_R   0.888700 0.271440 0.042960 -0.650053
O19   O     O_R   0.888700 0.728560 0.042960 -0.654283
O20   O     O_R   0.388700 0.771440 0.042960 -0.656013
O21   O     O_R   0.388700 0.228560 0.042960 -0.654684
O22   O     O_R   0.801200 0.228440 0.163980 -0.633266
O23   O     O_3   0.249950 0.749950 0.000000 -0.480235
O24   O     O_R   0.801200 0.771560 0.163980 -0.634211
O25   O     O_R   0.301200 0.728440 0.163980 -0.633620
O26   O     O_R   0.301200 0.271560 0.163980 -0.631742
O27   O     O_R   0.698710 0.228470 0.836030 -0.639718
O28   O     O_R   0.698710 0.771530 0.836030 -0.640321
O29   O     O_R   0.198710 0.728470 0.836030 -0.640096
O30   O     O_R   0.198710 0.271530 0.836030 -0.640497
O31   O     O_R   0.740720 0.167960 0.043020 -0.641845
O32   O     O_R   0.740720 0.832040 0.043020 -0.639098
O33   O     O_R   0.240720 0.667960 0.043020 -0.641148
O34   O     O_3   0.249950 0.250050 0.000000 -0.478984
O35   O     O_R   0.240720 0.332040 0.043020 -0.644814
O36   O     O_R   0.697700 0.331940 0.957000 -0.633579
O37   O     O_R   0.697700 0.668060 0.957000 -0.632855
O38   O     O_R   0.197700 0.831940 0.957000 -0.633014
O39   O     O_R   0.197700 0.168060 0.957000 -0.632216
O40   O     O_R   0.759220 0.167970 0.957030 -0.636936
O41   O     O_R   0.759220 0.832030 0.957030 -0.638060
O42   O     O_R   0.259220 0.667970 0.957030 -0.637405
O43   O     O_R   0.259220 0.332030 0.957030 -0.637580
O44   O     O_R   0.802170 0.331930 0.042960 -0.639530
O45   O     O_R   0.862680 0.271430 0.163960 -0.642364
O46   O     O_R   0.802170 0.668070 0.042960 -0.642398
O47   O     O_R   0.302170 0.831930 0.042960 -0.642009
O48   O     O_R   0.302170 0.168070 0.042960 -0.642067
O49   O     O_3   0.720912 0.536952 0.870371 -0.728080
O50   O     O_3   0.720872 0.463119 0.870338 -0.727854
O51   O     O_3   0.222164 0.036948 0.870913 -0.728118
O52   O     O_3   0.222114 0.963115 0.870874 -0.727855
O53   O     O_3   0.707917 0.034592 0.078309 -0.611499
O54   O     O_3   0.707797 0.963685 0.076529 -0.605208
O55   O     O_3   0.220216 0.534171 0.090055 -0.610907
O56   O     O_R   0.862680 0.728570 0.163960 -0.643157
O57   O     O_3   0.223012 0.463188 0.090845 -0.605294
O58   O     O_3   0.589664 0.796604 0.106568 -0.633049
O59   O     O_3   0.595223 0.210224 0.117143 -0.636521
O60   O     O_3   0.107283 0.239078 0.138952 -0.651811
O61   O     O_3   0.093199 0.707480 0.113254 -0.635887
O62   O     O_R   0.362680 0.771430 0.163960 -0.643019
O63   O     O_R   0.362680 0.228570 0.163960 -0.643220
O64   O     O_R   0.637220 0.271460 0.836030 -0.634923
Zn1   Zn    Zn3+2 0.824580 0.280660 0.061400 0.960545
Zn2   Zn    Zn3+2 0.763170 0.780750 0.938580 0.965257
Zn3   Zn    Zn3+2 0.263170 0.719250 0.938580 0.965043
Zn4   Zn    Zn3+2 0.263170 0.280750 0.938580 0.964297
Zn5   Zn    Zn3+2 0.675310 0.280670 0.938580 0.971587
Zn6   Zn    Zn3+2 0.675310 0.719330 0.938580 0.971801
Zn7   Zn    Zn3+2 0.175310 0.780670 0.938580 0.971746
Zn8   Zn    Zn3+2 0.175310 0.219330 0.938580 0.975186
Zn9   Zn    Zn3+2 0.824580 0.719340 0.061400 0.956137
Zn10  Zn    Zn3+2 0.324580 0.780660 0.061400 0.955712
Zn11  Zn    Zn3+2 0.324580 0.219340 0.061400 0.960335
Zn12  Zn    Zn3+2 0.736740 0.219240 0.061440 0.985154
Zn13  Zn    Zn3+2 0.736740 0.780760 0.061440 0.985967
Zn14  Zn    Zn3+2 0.236740 0.719240 0.061440 0.986252
Zn15  Zn    Zn3+2 0.236740 0.280760 0.061440 0.981640
Zn16  Zn    Zn3+2 0.763170 0.219250 0.938580 0.965708

loop_
_geom_bond_atom_site_label_1
_geom_bond_atom_site_label_2
_ccdc_geom_bond_type
C101  C107  S    
C148  H122  S    
C157  C161  S    
C76   H52   S    
C62   H20   S    
C53   H106  S    
C86   H77   S    
C79   C121  S    
C84   H71   S    
C71   O57   S    
C74   H49   S    
C147  C164  S    
C26   H150  S    
C15   H138  S    
C48   H166  S    
C2    H162  S    
C71   H40   S    
C87   C94   S    
C126  C143  S    
C16   C25   S    
C79   H8    S    
C105  C123  S    
C149  C153  S    
C39   O40   A    
C43   C58   S    
C52   C122  S    
C15   H142  S    
C145  C175  S    
C146  C176  S    
C79   C102  S    
C47   O39   A    
C130  H87   S    
O35   Zn15  S    
C2    H157  S    
C17   C30   T    
O23   Zn10  S    
C157  H127  S    
C39   O31   A    
C19   C32   T    
C16   H143  S    
C158  H128  S    
O32   Zn13  S    
C165  O45   A    
C156  C173  S    
C12   H135  S    
C103  O61   S    
C54   H155  S    
C70   H38   S    
C53   C133  S    
C120  C125  S    
O13   Zn4   S    
C132  C137  S    
O20   Zn10  S    
C1    O14   A    
O34   Zn11  S    
C63   H21   S    
O2    Zn6   S    
C75   C76   S    
C152  C170  S    
O1    Zn1   S    
C65   H27   S    
C110  H136  S    
C151  H126  S    
C92   C116  S    
C8    O53   S    
C127  C145  S    
C87   C103  S    
C20   C33   T    
C162  H110  S    
C128  C150  S    
C43   O44   A    
C105  C112  S    
O63   Zn11  S    
C76   H54   S    
C41   O42   A    
O47   Zn10  S    
C94   H7    S    
C70   H39   S    
C150  H57   S    
C13   H161  S    
C167  O56   A    
C127  H119  S    
C86   H75   S    
C128  H120  S    
C49   C133  S    
C152  C157  S    
C102  O60   S    
C24   H160  S    
C72   C73   S    
C27   H149  S    
O46   Zn9   S    
O15   Zn6   S    
C50   H168  S    
C72   H42   S    
C96   C109  S    
C11   H133  S    
C81   H64   S    
C73   H45   S    
C75   H51   S    
C133  C166  S    
C64   C65   S    
C104  C110  S    
C136  C153  S    
C12   C21   S    
C129  H121  S    
C139  C169  S    
C95   C99   S    
C69   C70   S    
C129  C147  S    
C88   C99   S    
C57   C59   T    
C95   C108  S    
C47   C59   S    
C131  H84   S    
C115  H13   S    
O12   Zn6   S    
C52   H153  S    
C106  C124  S    
O34   Zn8   S    
C11   O57   S    
C18   C31   T    
C67   C69   S    
C143  C161  S    
C126  H118  S    
C16   H139  S    
C5    C36   S    
C85   H73   S    
C66   H31   S    
C83   H67   S    
C80   H60   S    
C136  H97   S    
C120  O21   A    
C88   C124  S    
C81   O60   S    
C112  C114  S    
O1    Zn16  S    
O38   Zn7   S    
C85   C86   S    
C55   C155  S    
O33   Zn14  S    
C21   C31   S    
C51   C155  S    
C127  H79   S    
C23   C29   S    
C108  C115  S    
C40   O32   A    
O41   Zn2   S    
C78   C80   S    
C11   C25   S    
C135  C152  S    
C92   C96   S    
C153  C158  S    
C159  H116  S    
C167  O24   A    
O23   Zn7   S    
C132  H89   S    
C26   H145  S    
C108  H114  S    
C74   O58   S    
O8    Zn15  S    
C114  H2    S    
C42   O35   A    
C67   H33   S    
O42   Zn3   S    
O28   Zn2   S    
C19   C42   S    
C24   H164  S    
C46   C58   T    
C117  O9    A    
C64   O54   S    
C51   H3    S    
O14   Zn5   S    
C162  H101  S    
C50   C144  S    
C142  C173  T    
C10   O55   S    
C10   H134  S    
C77   H55   S    
C98   C112  S    
C166  H159  S    
C73   H47   S    
C38   O30   A    
C156  C160  S    
C107  C125  S    
C103  C105  S    
C131  C136  S    
O25   Zn14  S    
C66   H29   S    
O5    Zn12  S    
H15   O51   S    
C43   O36   A    
C80   H61   S    
C104  H1    S    
C88   C91   S    
C78   H58   S    
O18   Zn1   S    
C67   O55   S    
C91   H4    S    
C83   H69   S    
O44   Zn1   S    
C126  H78   S    
O23   Zn14  S    
C60   C68   T    
O12   Zn9   S    
C114  C123  S    
C140  C171  T    
C116  C125  S    
C50   O52   S    
C149  H46   S    
O16   Zn7   S    
C61   H17   S    
C100  O16   A    
C52   C53   S    
C41   O33   A    
C54   H107  S    
C99   C106  S    
C54   C55   S    
O34   Zn15  S    
C22   C30   S    
C35   C56   T    
C46   C122  S    
C148  C152  S    
O1    Zn5   S    
C77   O59   S    
C106  H92   S    
C168  O25   A    
C138  H99   S    
C111  O8    A    
C14   C22   S    
O27   Zn16  S    
C154  C159  S    
C160  H117  S    
C127  C149  S    
C87   C123  S    
C128  C146  S    
C165  O22   A    
C106  C108  S    
O24   Zn13  S    
C128  H80   S    
C68   C144  S    
C61   C62   S    
C10   C11   S    
C37   O3    A    
C91   C95   S    
C113  C121  S    
O40   Zn16  S    
H12   O49   S    
C69   H34   S    
C14   H141  S    
C67   H32   S    
C54   C144  S    
C64   H25   S    
O10   Zn2   S    
C134  H90   S    
C93   C97   S    
C5    C175  T    
C130  C135  S    
C35   C133  S    
O26   Zn15  S    
C87   H9    S    
C77   C78   S    
C25   C28   S    
C3    C147  S    
C134  C147  S    
C26   C27   S    
C117  O18   A    
C55   H156  S    
C160  C164  S    
C28   C29   S    
C99   O58   S    
C129  C151  S    
C3    C7    T    
C97   C111  S    
O17   Zn8   S    
C90   H11   S    
C94   C98   S    
O12   Zn2   S    
C98   C103  S    
C74   H48   S    
C137  H98   S    
C109  C116  S    
C52   H105  S    
O64   Zn5   S    
C126  C148  S    
C136  H93   S    
C2    C166  S    
O1    Zn12  S    
C97   C102  S    
C21   C27   S    
C4    C174  T    
C96   C101  S    
C107  C109  S    
C82   H66   S    
C62   H19   S    
C20   C41   S    
O6    Zn13  S    
C81   C82   S    
C109  H125  S    
C138  H95   S    
C2    C122  S    
C86   H76   S    
C163  H111  S    
C141  C167  S    
C27   H144  S    
C164  H112  S    
C29   H146  S    
C12   H140  S    
C84   C85   S    
C1    O5    A    
O21   Zn11  S    
C148  H35   S    
O22   Zn12  S    
O37   Zn6   S    
C149  H123  S    
C81   H63   S    
C73   H44   S    
C17   C40   S    
C89   C95   S    
C18   C39   S    
C62   C63   S    
C47   O48   A    
C93   H6    S    
C44   C56   S    
C50   C51   S    
C69   H36   S    
C93   C113  S    
C151  C156  S    
C159  H129  S    
C48   C49   S    
C28   H148  S    
C98   C100  S    
C55   H108  S    
O45   Zn1   S    
O7    Zn14  S    
C38   O4    A    
C89   O6    A    
C105  H81   S    
C115  C124  S    
C70   H37   S    
C137  H94   S    
C42   O43   A    
O9    Zn16  S    
C8    H132  S    
C71   H41   S    
C63   H22   S    
C84   H72   S    
O4    Zn8   S    
C132  C146  S    
C84   O61   S    
C65   H28   S    
C24   C144  S    
C116  H24   S    
C135  H96   S    
C90   C125  S    
C91   C115  S    
C137  C154  S    
C118  C123  S    
C44   O46   A    
C44   O37   A    
C45   O47   A    
C71   C72   S    
C82   H65   S    
C82   C83   S    
C22   C26   S    
C76   H53   S    
C34   O64   A    
C143  C174  S    
C34   O27   A    
O23   Zn3   S    
C140  C168  S    
C158  H115  S    
C45   C60   S    
O56   Zn9   S    
C45   O38   A    
C107  H103  S    
C113  H158  S    
C130  H83   S    
C94   C114  S    
C119  C124  S    
C57   C155  S    
C61   O53   S    
O43   Zn4   S    
C79   C93   S    
C92   H5    S    
C48   C122  S    
C66   H30   S    
C9    C22   S    
C145  C162  S    
C36   O2    A    
C15   C16   S    
C36   O28   A    
C139  C170  T    
C80   H62   S    
C14   H137  S    
C49   H167  S    
C101  O59   S    
C117  C121  S    
C151  H68   S    
C90   C92   S    
C13   C155  S    
O19   Zn9   S    
C8    C9    S    
C23   C33   S    
O11   Zn3   S    
O29   Zn3   S    
C9    O54   S    
O30   Zn4   S    
C166  H163  S    
O3    Zn7   S    
C48   O50   S    
C169  O26   A    
C25   C32   S    
C88   H10   S    
C168  O62   A    
C85   H74   S    
C134  H86   S    
C118  O10   A    
C135  H91   S    
C161  H109  S    
O62   Zn10  S    
C4    C34   S    
C74   C75   S    
C157  H113  S    
C37   O29   A    
C129  H82   S    
H16   O52   S    
C13   H165  S    
C78   H59   S    
C104  C121  S    
C118  O19   A    
C141  C172  T    
C150  H124  S    
C13   C24   S    
O12   Zn13  S    
C29   H151  S    
C51   O51   S    
C120  O13   A    
C131  C145  S    
C40   O41   A    
C90   C101  S    
C169  O63   A    
C161  H100  S    
C49   O49   S    
C53   H154  S    
C9    H131  S    
O36   Zn5   S    
C153  C171  S    
C8    C21   S    
C6    C37   S    
C154  C172  S    
C102  C104  S    
C130  C143  S    
C110  C113  S    
C111  O17   A    
C12   C14   S    
C159  C163  S    
C119  O20   A    
C131  H88   S    
C138  C156  S    
C72   H43   S    
C64   H26   S    
C77   H56   S    
C100  O7    A    
O34   Zn4   S    
C75   H50   S    
O31   Zn12  S    
C134  C138  S    
C112  H147  S    
C163  H102  S    
C10   C23   S    
C146  C163  S    
C119  O11   A    
C89   O15   A    
C142  C165  S    
C97   C110  S    
C160  H130  S    
C28   H152  S    
C6    C176  T    
C1    C96   S    
C61   H18   S    
C83   H70   S    
C15   C23   S    
C7    C38   S    
C63   H23   S    
C158  C162  S    
C65   C66   S    
C150  C154  S    
C164  H104  S    
O39   Zn8   S    
H14   O50   S    
C132  H85   S    
O48   Zn11  S    
