data_mof_unit_32983.cif
_audit_creation_date              2012-12-10T17:43:53-0500
_audit_creation_method            fapswitch 2.2
_symmetry_space_group_name_H-M    P1
_symmetry_Int_Tables_number       1
_space_group_crystal_system       triclinic
_cell_length_a                    15.852857
_cell_length_b                    15.117019
_cell_length_c                    13.797248
_cell_angle_alpha                 89.583684
_cell_angle_beta                  87.901034
_cell_angle_gamma                 86.449029
_cell_volume                      3297.87832578

loop_
_atom_site_label
_atom_site_type_symbol
_atom_type_description
_atom_site_fract_x
_atom_site_fract_y
_atom_site_fract_z
_atom_type_partial_charge
C1    C     C_R   0.503263 0.328417 0.500965 0.795689
C2    C     C_R   0.498531 0.671805 0.498263 0.810779
C3    C     C_R   0.494995 0.770096 0.487887 -0.151295
C4    C     C_R   0.501515 0.231091 0.504689 -0.150410
C5    C     C_R   0.561307 0.811059 0.435323 -0.054242
C6    C     C_R   0.427465 0.191216 0.538532 -0.064154
C7    C     C_R   0.558451 0.905449 0.424010 -0.024259
C8    C     C_R   0.420341 0.098528 0.524441 -0.005784
C9    C     C_R   0.487927 0.955766 0.466485 -0.030208
C10   C     C_R   0.488447 0.049147 0.475051 -0.053303
C11   C     C_R   0.414693 0.913518 0.496371 -0.006362
C12   C     C_R   0.560400 0.091368 0.441716 -0.031103
C13   C     C_R   0.620831 0.952987 0.371032 0.196996
C14   C     C_R   0.346703 0.052984 0.550073 0.225010
C15   C     C_R   0.621519 0.045424 0.381293 0.246563
C16   C     C_R   0.340445 0.967312 0.516811 0.210868
C17   C     C_R   0.558586 0.447593 0.790935 -0.053342
C18   C     C_R   0.442339 0.553567 0.209333 -0.063956
C19   C     C_R   0.440713 0.552233 0.796747 0.400062
C20   C     C_R   0.559066 0.447406 0.203407 0.399217
C21   C     C_R   0.440095 0.554142 0.899668 -0.051890
C22   C     C_R   0.561106 0.447955 0.100549 -0.061737
C23   C     C_R   0.339849 0.500420 0.501534 0.856423
C24   C     C_R   0.660023 0.500959 0.498617 0.825941
C25   C     C_R   0.500700 0.500929 0.948376 0.045299
C26   C     C_R   0.501087 0.501967 0.051800 0.044056
C27   C     C_R   0.560475 0.446251 0.893773 -0.051506
C28   C     C_R   0.441254 0.556428 0.106467 -0.045675
C29   C     C_R   0.380687 0.608368 0.955021 -0.207719
C30   C     C_R   0.621124 0.394869 0.045327 -0.191934
C31   C     C_R   0.381257 0.610845 0.056740 0.001455
C32   C     C_R   0.620973 0.392852 0.943775 -0.005627
C33   C     C_3   0.972992 0.426276 0.548639 -0.285523
C34   C     C_3   0.026097 0.573887 0.458406 -0.286225
C35   C     C_3   0.035341 0.428216 0.459448 0.024190
C36   C     C_3   0.964080 0.571938 0.548074 0.023293
C37   C     C_1   0.250133 0.501262 0.505078 -0.140162
C38   C     C_1   0.749589 0.500908 0.496218 -0.151418
C39   C     C_3   0.021446 0.499630 0.596591 0.025854
C40   C     C_3   0.978075 0.500202 0.410864 0.030974
C41   C     C_3   0.082822 0.501013 0.507455 0.083467
C42   C     C_3   0.916649 0.499386 0.499651 0.086745
C43   C     C_1   0.174511 0.501748 0.507145 -0.090889
C44   C     C_1   0.825084 0.500403 0.496779 -0.091189
C45   C     C_R   0.418126 0.820204 0.507516 -0.051324
C46   C     C_R   0.572791 0.177319 0.473964 0.021681
Cu1   Cu    Cu3+1 0.500010 0.499990 0.597420 0.986803
Cu2   Cu    Cu3+1 0.499990 0.500010 0.402580 0.976201
H1    H     H_    0.333398 0.650967 0.920381 0.185172
H2    H     H_    0.668634 0.352538 0.079945 0.198397
H3    H     H_    0.949034 0.366421 0.584375 0.126308
H4    H     H_    0.048205 0.633955 0.421528 0.124715
H5    H     H_    0.604140 0.407176 0.747757 0.155983
H6    H     H_    0.396717 0.593269 0.253042 0.152074
N1    N     N_R   0.499960 0.499930 0.743810 -0.197961
N2    N     N_R   0.500040 0.500070 0.256190 -0.203382
O1    O     O_R   0.500020 0.370250 0.582280 -0.597234
O2    O     O_R   0.499980 0.629750 0.417720 -0.607122
O3    O     O_R   0.500010 0.370270 0.417740 -0.528596
O4    O     O_R   0.499990 0.629730 0.582260 -0.530168
O5    O     O_R   0.379080 0.499980 0.582260 -0.522868
O6    O     O_R   0.620920 0.500020 0.417740 -0.540504
O7    O     O_R   0.379070 0.500000 0.417710 -0.597520
O8    O     O_R   0.620930 0.500000 0.582290 -0.590303
C47   C     C_R   0.079355 0.349557 0.408407 0.088188
C48   C     C_R   0.067778 0.262772 0.441069 -0.161920
C49   C     C_R   0.111647 0.190741 0.395139 -0.071977
C50   C     C_R   0.167074 0.204752 0.316217 -0.106138
C51   C     C_R   0.178573 0.290866 0.282954 -0.150281
C52   C     C_R   0.134905 0.363051 0.328786 -0.129754
H7    H     H_    0.026003 0.250495 0.502664 0.125982
H8    H     H_    0.102990 0.124060 0.421083 0.186528
H9    H     H_    0.201225 0.148919 0.281018 0.155211
H10   H     H_    0.221616 0.301730 0.221925 0.143020
H11   H     H_    0.144893 0.429514 0.302800 0.136339
C53   C     C_R   0.919744 0.649964 0.599970 0.091358
C54   C     C_R   0.928693 0.737043 0.566634 -0.176682
C55   C     C_R   0.885061 0.808346 0.614165 -0.118883
C56   C     C_R   0.832195 0.793303 0.695087 -0.123651
C57   C     C_R   0.822851 0.706887 0.728602 -0.127008
C58   C     C_R   0.866353 0.635443 0.681253 -0.119592
H12   H     H_    0.968020 0.750084 0.503087 0.132206
H13   H     H_    0.891807 0.875266 0.587863 0.146229
H14   H     H_    0.798260 0.848568 0.731580 0.130565
H15   H     H_    0.781652 0.695209 0.791071 0.137329
H16   H     H_    0.857956 0.568744 0.707478 0.132515
C59   C     C_R   0.318471 0.671856 0.108620 0.104963
C60   C     C_R   0.231646 0.659502 0.103807 -0.151354
C61   C     C_R   0.172511 0.716765 0.153320 -0.155032
C62   C     C_R   0.199579 0.786793 0.207485 -0.089645
C63   C     C_R   0.285812 0.800214 0.211493 -0.121009
C64   C     C_R   0.345159 0.743174 0.162070 -0.177326
H17   H     H_    0.209929 0.605252 0.062424 0.119602
H18   H     H_    0.105697 0.706948 0.149578 0.127511
H19   H     H_    0.153748 0.830778 0.246147 0.158846
H20   H     H_    0.306733 0.854550 0.253282 0.171494
H21   H     H_    0.411834 0.754137 0.165856 0.133891
C65   C     C_R   0.683414 0.330760 0.893698 0.099446
C66   C     C_R   0.656832 0.253850 0.850760 -0.141307
C67   C     C_R   0.716516 0.190030 0.813303 -0.104209
C68   C     C_R   0.802864 0.202963 0.817716 -0.086016
C69   C     C_R   0.829652 0.279900 0.859264 -0.135069
C70   C     C_R   0.770202 0.343554 0.897645 -0.155439
H22   H     H_    0.590149 0.242363 0.848677 0.126164
H23   H     H_    0.695789 0.129997 0.782069 0.128007
H24   H     H_    0.849091 0.153155 0.789481 0.122563
H25   H     H_    0.896491 0.289367 0.863229 0.123105
H26   H     H_    0.791633 0.402008 0.931724 0.118408
C71   C     C_R   0.953649 0.495683 0.306703 0.083811
C72   C     C_R   0.983509 0.555930 0.237496 -0.179590
C73   C     C_R   0.961244 0.550277 0.140687 -0.143197
C74   C     C_R   0.909046 0.484640 0.112378 -0.140074
C75   C     C_R   0.879738 0.423925 0.180612 -0.110781
C76   C     C_R   0.902338 0.429003 0.277354 -0.105542
H27   H     H_    0.024041 0.607064 0.257940 0.124109
H28   H     H_    0.984268 0.596960 0.087648 0.136448
H29   H     H_    0.891416 0.480818 0.037593 0.124407
H30   H     H_    0.839580 0.372896 0.158508 0.164891
H31   H     H_    0.879686 0.381196 0.329372 0.147230
C77   C     C_R   0.045462 0.499523 0.701510 0.090846
C78   C     C_R   0.007431 0.443281 0.769479 -0.174564
C79   C     C_R   0.029061 0.444359 0.866825 -0.143567
C80   C     C_R   0.088530 0.501656 0.897270 -0.133800
C81   C     C_R   0.126467 0.557974 0.830362 -0.125789
C82   C     C_R   0.104944 0.556999 0.733011 -0.119087
H32   H     H_    0.960498 0.399169 0.747856 0.124374
H33   H     H_    0.999674 0.400783 0.918731 0.130940
H34   H     H_    0.105234 0.502334 0.972611 0.127639
H35   H     H_    0.172687 0.602267 0.853878 0.152342
H36   H     H_    0.135368 0.600336 0.682347 0.150286
C83   C     C_R   0.339545 0.775452 0.531362 0.129639
C84   C     C_R   0.302805 0.728696 0.457949 -0.115375
C85   C     C_R   0.218920 0.706549 0.468552 -0.108238
C86   C     C_R   0.172280 0.727453 0.554060 -0.102948
C87   C     C_R   0.209467 0.770335 0.629389 -0.052050
C88   C     C_R   0.292700 0.795272 0.617848 -0.011399
H37   H     H_    0.337205 0.714845 0.389985 0.128769
H38   H     H_    0.190075 0.674101 0.409738 0.129598
H39   H     H_    0.107316 0.710527 0.562137 0.123187
H40   H     H_    0.173107 0.786431 0.695518 0.136928
H41   H     H_    0.319506 0.833012 0.674292 0.145695
C89   C     C_R   0.657848 0.191976 0.513013 0.110672
C90   C     C_R   0.701315 0.267940 0.491157 -0.074468
C91   C     C_R   0.785927 0.272132 0.515402 -0.125725
C92   C     C_R   0.827046 0.202472 0.565170 -0.089370
C93   C     C_R   0.783691 0.128031 0.590955 -0.114125
C94   C     C_R   0.699544 0.123155 0.566332 -0.143282
H42   H     H_    0.671318 0.322228 0.452529 0.160615
H43   H     H_    0.820660 0.328218 0.493527 0.132972
H44   H     H_    0.892433 0.206106 0.583752 0.111244
H45   H     H_    0.815305 0.073808 0.629728 0.117155
H46   H     H_    0.667595 0.064095 0.586527 0.118648
C95   C     C_R   0.629963 0.753004 0.389410 0.125659
C96   C     C_R   0.708289 0.738606 0.432973 -0.132337
C97   C     C_R   0.773603 0.687786 0.385050 -0.103490
C98   C     C_R   0.759946 0.648229 0.296170 -0.084764
C99   C     C_R   0.681577 0.660506 0.253679 -0.085309
C100  C     C_R   0.617066 0.713655 0.299331 -0.019445
H47   H     H_    0.719305 0.768633 0.502029 0.143934
H48   H     H_    0.834800 0.678501 0.416695 0.146523
H49   H     H_    0.810055 0.608323 0.259874 0.158577
H50   H     H_    0.671178 0.629862 0.184810 0.124338
H51   H     H_    0.557111 0.724680 0.264557 0.117711
C101  C     C_R   0.364171 0.246060 0.597089 0.136908
C102  C     C_R   0.380407 0.263732 0.694392 -0.053355
C103  C     C_R   0.319980 0.311314 0.752777 -0.103266
C104  C     C_R   0.242022 0.338988 0.715433 -0.075028
C105  C     C_R   0.225413 0.321344 0.618959 -0.091344
C106  C     C_R   0.287595 0.278474 0.558300 -0.115676
H52   H     H_    0.439678 0.240064 0.724961 0.114377
H53   H     H_    0.332881 0.325003 0.827510 0.125766
H54   H     H_    0.194222 0.373248 0.761528 0.153612
H55   H     H_    0.163991 0.340357 0.591639 0.146562
H56   H     H_    0.274243 0.265590 0.483503 0.153890
Br1   Br    Br    0.701856 0.901180 0.275753 -0.466699
Br2   Br    Br    0.254712 0.091530 0.638497 -0.513398
Br3   Br    Br    0.701443 0.112067 0.304963 -0.397591
Br4   Br    Br    0.233232 0.943326 0.463131 -0.558359
Br5   Br    Br    0.356729 0.624541 0.732577 -0.589332
Br6   Br    Br    0.639001 0.368679 0.267450 -0.528435

loop_
_geom_bond_atom_site_label_1
_geom_bond_atom_site_label_2
_ccdc_geom_bond_type
C59   C60   A    
C102  C103  A    
C19   Br5   S    
C36   C42   S    
C73   C74   A    
C20   N2    A    
C92   C93   A    
C62   C63   A    
C87   C88   A    
C46   C89   S    
C29   H1    S    
C54   C55   A    
C67   H23   S    
C68   C69   A    
C34   C40   S    
C33   C42   S    
C98   C99   A    
C19   C21   A    
C75   C76   A    
C94   H46   S    
C61   H18   S    
C1    O3    A    
C74   H29   S    
C2    O4    A    
C35   C47   S    
C90   C91   A    
C65   C66   A    
C95   C100  A    
Cu2   N2    S    
C49   H8    S    
C79   H33   S    
C72   C73   A    
C14   Br2   S    
C36   C53   S    
C69   C70   A    
C63   H20   S    
C55   H13   S    
C99   C100  A    
C48   H7    S    
C84   C85   A    
C65   C70   A    
C24   C38   S    
C106  H56   S    
C73   H28   S    
C69   H25   S    
C9    C10   A    
C17   N1    A    
C58   H16   S    
C18   N2    A    
C40   C42   S    
C48   C49   A    
Cu1   O4    S    
C85   H38   S    
C24   O8    A    
C59   C64   A    
C24   O6    A    
C41   C43   S    
C101  C106  A    
C105  H55   S    
C34   C41   S    
C42   C44   S    
C82   H36   S    
C74   C75   A    
C104  C105  A    
C16   Br4   S    
C64   H21   S    
C28   C31   A    
C87   H40   S    
C97   C98   A    
C31   C59   S    
C49   C50   A    
C17   C27   A    
C80   C81   A    
C68   H24   S    
C18   C28   A    
C53   C54   A    
C103  C104  A    
C4    C6    A    
C83   C88   A    
C63   C64   A    
C5    C7    A    
C18   H6    S    
C55   C56   A    
C50   C51   A    
Cu2   O7    S    
C4    C46   A    
C25   C26   A    
C23   C37   S    
C21   C29   A    
C3    C45   A    
C93   H45   S    
C78   H32   S    
C37   C43   T    
C38   C44   T    
C57   H15   S    
C1    O1    A    
Cu1   O1    S    
C11   C16   A    
Cu2   O6    S    
Cu1   Cu2   S    
C12   C15   A    
C7    C13   A    
C2    O2    A    
C96   C97   A    
C40   C71   S    
C51   H10   S    
C20   Br6   S    
C33   C39   S    
C9    C11   A    
C78   C79   A    
C70   H26   S    
C10   C12   A    
C71   C76   A    
C100  H51   S    
C12   C46   A    
C105  C106  A    
C6    C101  S    
C98   H49   S    
C45   C83   S    
C15   Br3   S    
C85   C86   A    
C14   C16   A    
C56   C57   A    
C11   C45   A    
C33   H3    S    
C83   C84   A    
C17   H5    S    
C86   H39   S    
C77   C78   A    
Cu2   O3    S    
Cu1   N1    S    
C93   C94   A    
C19   N1    A    
C102  H52   S    
C13   Br1   S    
C21   C25   A    
C60   H17   S    
C101  C102  A    
C8    C14   A    
C22   C30   A    
C91   H43   S    
C97   H48   S    
C77   C82   A    
C34   H4    S    
C89   C94   A    
C36   C39   S    
C92   H44   S    
C20   C22   A    
C57   C58   A    
C3    C5    A    
C62   H19   S    
C53   C58   A    
Cu1   O5    S    
C6    C8    A    
Cu1   O8    S    
Cu2   O2    S    
C104  H54   S    
C25   C27   A    
C86   C87   A    
C26   C28   A    
C66   C67   A    
C91   C92   A    
C1    C4    S    
C13   C15   A    
C35   C40   S    
C50   H9    S    
C96   H47   S    
C29   C31   A    
C71   C72   A    
C30   C32   A    
C80   H34   S    
C56   H14   S    
C76   H31   S    
C54   H12   S    
C5    C95   S    
C72   H27   S    
C23   O7    A    
C67   C68   A    
C33   C35   S    
C88   H41   S    
C32   C65   S    
C81   H35   S    
C66   H22   S    
C34   C36   S    
C39   C77   S    
C30   H2    S    
C51   C52   A    
C35   C41   S    
C90   H42   S    
C103  H53   S    
C27   C32   A    
C75   H30   S    
C7    C9    A    
C23   O5    A    
C60   C61   A    
C39   C41   S    
C8    C10   A    
C47   C48   A    
C22   C26   A    
C52   H11   S    
C79   C80   A    
C89   C90   A    
C2    C3    S    
C84   H37   S    
C61   C62   A    
C99   H50   S    
C47   C52   A    
C81   C82   A    
C95   C96   A    
