data_mof_unit_32477.cif
_audit_creation_date              2012-12-10T17:50:16-0500
_audit_creation_method            fapswitch 2.2
_symmetry_space_group_name_H-M    P1
_symmetry_Int_Tables_number       1
_space_group_crystal_system       triclinic
_cell_length_a                    10.808366
_cell_length_b                    14.940497
_cell_length_c                    15.098066
_cell_angle_alpha                 63.856241
_cell_angle_beta                  106.27914
_cell_angle_gamma                 101.634399
_cell_volume                      2092.22919678

loop_
_atom_site_label
_atom_site_type_symbol
_atom_type_description
_atom_site_fract_x
_atom_site_fract_y
_atom_site_fract_z
_atom_type_partial_charge
C1    C     C_R   0.477258 0.119665 0.313003 0.761304
C2    C     C_R   0.515526 0.880693 0.686926 0.777096
C3    C     C_R   0.489847 0.291887 0.180571 -0.263079
C4    C     C_R   0.469784 0.712510 0.821177 -0.263037
C5    C     C_R   0.464483 0.363019 0.079909 0.087914
C6    C     C_R   0.494335 0.641015 0.922468 0.088556
C7    C     C_R   0.401803 0.327796 0.003930 0.180902
C8    C     C_R   0.565579 0.675326 0.997721 0.155568
C9    C     C_R   0.496996 0.467832 0.052959 0.061594
C10   C     C_R   0.456769 0.536452 0.950542 0.070135
C11   C     C_R   0.382646 0.497858 0.879522 -0.231475
C12   C     C_R   0.570443 0.506069 0.124574 -0.222921
C13   C     C_R   0.360403 0.395623 0.904948 -0.227206
C14   C     C_R   0.601612 0.607829 0.097520 -0.246580
C15   C     C_R   0.775971 0.306724 0.605941 0.229626
C16   C     C_R   0.344866 0.751341 0.296343 0.207718
C17   C     C_R   0.712709 0.214001 0.609267 0.581638
C18   C     C_R   0.337255 0.810990 0.345422 0.519927
C19   C     C_R   0.514549 0.286200 0.521832 0.124002
C20   C     C_R   0.495318 0.716726 0.485804 0.200551
C21   C     C_R   0.574979 0.382822 0.516428 -0.092048
C22   C     C_R   0.485166 0.644276 0.443017 -0.114128
C23   C     C_R   0.258882 0.002332 0.497012 0.810374
C24   C     C_R   0.739226 0.997751 0.501296 0.866573
C25   C     C_R   0.700874 0.386273 0.575493 -0.110516
C26   C     C_R   0.392746 0.657302 0.352652 -0.095523
C27   C     C_R   0.511082 0.474058 0.462087 0.066908
C28   C     C_R   0.559414 0.558297 0.486006 0.088427
C29   C     C_R   0.685245 0.556161 0.544593 -0.226049
C30   C     C_R   0.410546 0.487255 0.376499 -0.274206
C31   C     C_R   0.746443 0.468782 0.601958 0.160360
C32   C     C_R   0.353896 0.578166 0.319426 0.205844
C33   C     C_3   0.002081 0.998213 0.409919 0.410487
C34   C     C_3   0.989831 0.000407 0.582133 0.398104
C35   C     C_3   0.937823 0.077634 0.416064 -0.437701
C36   C     C_3   0.050683 0.918456 0.576020 -0.434543
C37   C     C_3   0.873239 0.994334 0.498931 -0.181114
C38   C     C_3   0.119599 0.003470 0.494549 -0.243479
C39   C     C_3   0.933954 0.914681 0.489959 0.459620
C40   C     C_3   0.055207 0.083701 0.500241 0.408326
C41   C     C_R   0.458864 0.189091 0.205565 -0.038589
C42   C     C_R   0.519034 0.812832 0.794763 -0.040970
C43   C     C_R   0.377177 0.224694 0.028329 -0.240375
C44   C     C_R   0.600824 0.777521 0.972352 -0.211507
C45   C     C_R   0.405630 0.155539 0.128542 -0.215040
C46   C     C_R   0.573475 0.845705 0.872067 -0.195189
Cu1   Cu    Cu3+1 0.465750 0.918270 0.475680 0.972651
Cu2   Cu    Cu3+1 0.534250 0.081730 0.524320 0.952540
H1    H     H_    0.881602 0.136739 0.351145 0.162456
H2    H     H_    0.096282 0.853391 0.641024 0.169847
H3    H     H_    0.745794 0.623566 0.536630 0.164120
H4    H     H_    0.378826 0.427387 0.350959 0.139505
H5    H     H_    0.307380 0.369422 0.847073 0.139522
H6    H     H_    0.656758 0.633784 0.155132 0.144107
H7    H     H_    0.414301 0.692512 0.760755 0.155781
H8    H     H_    0.529152 0.314932 0.241711 0.152553
H9    H     H_    0.594353 0.923542 0.856078 0.135564
H10   H     H_    0.382016 0.076475 0.145800 0.178157
H11   H     H_    0.333072 0.197912 0.969851 0.148146
H12   H     H_    0.649635 0.804786 0.030200 0.130469
H13   H     H_    0.339654 0.544631 0.803214 0.142928
H14   H     H_    0.608132 0.459625 0.202496 0.146540
N1    N     N_R   0.585750 0.204560 0.560800 -0.264541
N2    N     N_R   0.414250 0.795440 0.439200 -0.257543
O1    O     O_R   0.454850 0.022100 0.338110 -0.539824
O2    O     O_R   0.545150 0.977900 0.661890 -0.585949
O3    O     O_R   0.512700 0.160150 0.379180 -0.604012
O4    O     O_R   0.487300 0.839850 0.620820 -0.598683
O5    O     O_R   0.287930 0.931000 0.479440 -0.554717
O6    O     O_R   0.712070 0.069000 0.520560 -0.539755
O7    O     O_R   0.345780 0.069050 0.520520 -0.577720
O8    O     O_R   0.654220 0.930950 0.479480 -0.583609
C47   C     C_3   0.582091 0.698507 0.589208 -0.229532
C48   C     C_3   0.522470 0.613193 0.671903 -0.878514
H15   H     H_    0.418950 0.622981 0.658626 0.246970
H16   H     H_    0.527475 0.540192 0.671060 0.259401
H17   H     H_    0.576095 0.611066 0.747017 0.252881
H18   H     H_    0.681160 0.687276 0.599448 0.160376
H19   H     H_    0.615651 0.765039 0.602564 0.240730
C49   C     C_3   0.376583 0.264626 0.529343 -0.268674
C50   C     C_3   0.368517 0.198521 0.639823 -0.750578
H20   H     H_    0.386194 0.120136 0.662221 0.262148
H21   H     H_    0.440836 0.228208 0.691376 0.211007
H22   H     H_    0.272777 0.199855 0.651476 0.230884
H23   H     H_    0.329083 0.331965 0.509385 0.180616
H24   H     H_    0.325142 0.233975 0.473602 0.256253
O9    O     O_3   0.267437 0.894444 0.292720 -0.587068
C51   C     C_3   0.139411 0.869058 0.246324 0.076167
H25   H     H_    0.072032 0.879851 0.282425 0.203272
H26   H     H_    0.117121 0.789485 0.256381 0.124336
C52   C     C_3   0.108643 0.936159 0.133102 -0.313619
H27   H     H_    0.122036 0.016093 0.120183 0.205905
H28   H     H_    0.175206 0.925702 0.095358 0.258289
C53   C     C_3   0.970303 0.910987 0.083884 -0.952194
H29   H     H_    0.900421 0.921755 0.119285 0.255870
H30   H     H_    0.956646 0.832168 0.092135 0.262912
H31   H     H_    0.950627 0.960843 0.002176 0.260227
O10   O     O_3   0.776294 0.130456 0.675685 -0.552585
C54   C     C_3   0.732239 0.090767 0.767092 0.068036
H32   H     H_    0.763943 0.014341 0.810878 0.161409
H33   H     H_    0.624714 0.085014 0.752886 0.149586
C55   C     C_3   0.788561 0.149721 0.833656 -0.394657
H34   H     H_    0.895424 0.148973 0.857459 0.244622
H35   H     H_    0.764915 0.228470 0.792292 0.230549
C56   C     C_3   0.729607 0.105422 0.926762 -0.966437
H36   H     H_    0.623568 0.111852 0.903593 0.254776
H37   H     H_    0.773269 0.147310 0.974830 0.271823
H38   H     H_    0.746597 0.025326 0.971364 0.256053
O11   O     O_3   0.909104 0.312346 0.643009 -0.612633
C57   C     C_3   0.972193 0.390766 0.570102 0.044713
H39   H     H_    0.939722 0.464890 0.546328 0.147579
H40   H     H_    0.950756 0.378480 0.500151 0.127550
C58   C     C_3   0.117512 0.397849 0.615694 -0.348981
H41   H     H_    0.133188 0.413062 0.683945 0.213995
H42   H     H_    0.156448 0.325452 0.640014 0.212624
C59   C     C_3   0.191512 0.481614 0.541022 -0.944424
H43   H     H_    0.173891 0.471317 0.469910 0.254413
H44   H     H_    0.296856 0.481008 0.575054 0.269026
H45   H     H_    0.161101 0.555539 0.523054 0.250101
O12   O     O_3   0.319229 0.792267 0.191874 -0.596163
C60   C     C_3   0.438148 0.826974 0.160173 0.113874
H46   H     H_    0.487125 0.762874 0.171319 0.137447
H47   H     H_    0.505188 0.868953 0.202994 0.100265
C61   C     C_3   0.414350 0.898832 0.048404 -0.369381
H48   H     H_    0.373721 0.966187 0.038143 0.206620
H49   H     H_    0.508225 0.923942 0.024423 0.170338
C62   C     C_3   0.322344 0.850407 0.981261 -0.749975
H50   H     H_    0.360652 0.783017 0.990132 0.248790
H51   H     H_    0.311678 0.904109 0.900841 0.223351
H52   H     H_    0.225990 0.828318 0.001038 0.269740
O13   O     O_3   0.007800 0.999293 0.317568 -0.635163
C63   C     C_3   0.078172 0.088194 0.262254 0.069218
H53   H     H_    0.159718 0.067067 0.246661 0.184924
H54   H     H_    0.124202 0.137233 0.302906 0.116453
C64   C     C_3   0.989112 0.147825 0.162688 -0.372574
H55   H     H_    0.945700 0.099359 0.121339 0.237326
H56   H     H_    0.909552 0.171367 0.178641 0.221634
C65   C     C_3   0.062268 0.240452 0.096213 -0.914016
H57   H     H_    0.107491 0.289956 0.136249 0.257357
H58   H     H_    0.994124 0.282825 0.025600 0.260171
H59   H     H_    0.138400 0.218067 0.075757 0.268425
O14   O     O_3   0.971988 0.995610 0.673293 -0.591627
C66   C     C_3   0.076102 0.050580 0.712538 0.133625
H60   H     H_    0.063783 0.131693 0.668142 0.195502
H61   H     H_    0.170796 0.032413 0.711638 0.129070
C67   C     C_3   0.074922 0.025305 0.821472 -0.314384
H62   H     H_    0.979102 0.035703 0.825572 0.244731
H63   H     H_    0.092117 0.945698 0.868851 0.214030
C68   C     C_3   0.176246 0.092891 0.862169 -1.000800
H64   H     H_    0.274571 0.084130 0.859474 0.258746
H65   H     H_    0.173087 0.072829 0.941424 0.258040
H66   H     H_    0.155785 0.172470 0.817023 0.268456
O15   O     O_3   0.859936 0.827466 0.484208 -0.616233
C69   C     C_3   0.928795 0.774030 0.459108 0.068773
H67   H     H_    0.944106 0.700052 0.523489 0.139079
H68   H     H_    0.027441 0.808967 0.447137 0.148506
C70   C     C_3   0.848028 0.760348 0.363864 -0.324086
H69   H     H_    0.743802 0.744265 0.366465 0.226066
H70   H     H_    0.857206 0.831275 0.296541 0.223924
C71   C     C_3   0.889754 0.675161 0.352027 -0.987446
H71   H     H_    0.996710 0.676363 0.370270 0.244412
H72   H     H_    0.851926 0.682139 0.273106 0.256786
H73   H     H_    0.849789 0.602153 0.403263 0.260389
O16   O     O_3   0.124197 0.171977 0.504082 -0.646291
C72   C     C_3   0.046299 0.252443 0.455457 0.019673
H74   H     H_    0.091263 0.304090 0.491538 0.173788
H75   H     H_    0.945234 0.229822 0.467205 0.171795
C73   C     C_3   0.051601 0.310526 0.343521 -0.379308
H76   H     H_    0.149953 0.348880 0.337871 0.198044
H77   H     H_    0.034360 0.260329 0.304556 0.228663
C74   C     C_3   0.950691 0.386624 0.288374 -0.935798
H78   H     H_    0.851794 0.347982 0.291950 0.258909
H79   H     H_    0.956608 0.427670 0.207709 0.265835
H80   H     H_    0.967941 0.441422 0.322756 0.246857
C75   C     C_3   0.855887 0.467082 0.692360 -0.390697
C76   C     C_3   0.810537 0.487532 0.768300 -0.851128
H81   H     H_    0.793000 0.567193 0.737808 0.262013
H82   H     H_    0.721097 0.438924 0.787496 0.262491
H83   H     H_    0.886971 0.471389 0.838800 0.242010
H84   H     H_    0.895247 0.393579 0.736484 0.253357
H85   H     H_    0.936386 0.523935 0.666118 0.185669
C77   C     C_3   0.239939 0.581135 0.232407 -0.383665
C78   C     C_3   0.280943 0.574344 0.146883 -0.793698
H86   H     H_    0.363775 0.629920 0.125343 0.266163
H87   H     H_    0.309470 0.498406 0.170450 0.240675
H88   H     H_    0.199071 0.589364 0.079995 0.237932
H89   H     H_    0.168955 0.517202 0.261036 0.190790
H90   H     H_    0.184983 0.647202 0.201812 0.241687

loop_
_geom_bond_atom_site_label_1
_geom_bond_atom_site_label_2
_ccdc_geom_bond_type
C25   C31   A    
C64   C65   S    
C38   C40   S    
C74   H78   S    
C26   C32   A    
C72   H74   S    
C66   C67   S    
C34   C37   S    
C47   C48   S    
C15   O11   S    
O9    C51   S    
C50   H20   S    
C24   O6    A    
C64   H55   S    
C31   C75   S    
C74   H79   S    
C70   H69   S    
C48   H16   S    
C39   O15   S    
C34   C40   S    
C32   C77   S    
C28   C29   A    
C35   C37   S    
C44   H12   S    
C40   O16   S    
C2    O4    A    
C16   O12   S    
C29   H3    S    
C15   C25   A    
C66   H60   S    
C12   H14   S    
C59   H43   S    
C55   C56   S    
C66   H61   S    
C42   C46   A    
C23   O5    A    
C77   C78   S    
Cu1   O5    S    
C60   C61   S    
C30   H4    S    
C1    O3    A    
C57   H39   S    
C73   H76   S    
C68   H64   S    
C76   H83   S    
C34   O14   S    
Cu1   Cu2   S    
C19   N1    A    
C63   H53   S    
C48   H17   S    
C35   H1    S    
C1    O1    A    
C47   H18   S    
C7    C43   A    
C17   O10   S    
C67   H63   S    
C43   H11   S    
C75   H85   S    
C58   C59   S    
C33   O13   S    
C73   H77   S    
C21   C27   A    
C70   H70   S    
C22   C28   A    
C27   C30   A    
O16   C72   S    
C53   H29   S    
C50   H21   S    
C44   C46   A    
C13   H5    S    
C73   C74   S    
C16   C26   A    
C37   C39   S    
C74   H80   S    
C45   H10   S    
C60   H46   S    
C48   H15   S    
C67   H62   S    
C71   H73   S    
C23   O7    A    
C19   C49   S    
C69   C70   S    
C4    C6    A    
C10   C11   A    
C78   H88   S    
Cu2   O6    S    
C52   H27   S    
C5    C7    A    
Cu2   N1    S    
C6    C8    A    
C53   H31   S    
C2    O2    A    
C46   H9    S    
C58   H42   S    
C71   H72   S    
C20   N2    A    
C55   H35   S    
C78   H86   S    
C62   H51   S    
C5    C9    A    
C49   H23   S    
C52   H28   S    
C67   C68   S    
C56   H37   S    
C3    H8    S    
C54   H32   S    
C51   C52   S    
C24   C37   S    
C47   H19   S    
C16   C18   A    
C33   C39   S    
C56   H38   S    
C53   H30   S    
C43   C45   A    
C57   C58   S    
C69   H67   S    
C65   H58   S    
C61   C62   S    
C1    C41   S    
C76   H81   S    
C54   H33   S    
C12   C14   A    
C72   C73   S    
C4    H7    S    
C68   H66   S    
Cu2   O7    S    
O13   C63   S    
C3    C5    A    
Cu1   O4    S    
Cu1   N2    S    
C50   H22   S    
C36   H2    S    
O12   C60   S    
C24   O8    A    
C61   H49   S    
C58   H41   S    
C9    C10   A    
C64   H56   S    
C21   C25   A    
C3    C41   A    
C8    C14   A    
C14   H6    S    
C69   H68   S    
C36   C39   S    
C8    C44   A    
C76   H82   S    
C20   C22   A    
C49   C50   S    
C11   H13   S    
C65   H59   S    
C6    C10   A    
C15   C17   A    
C75   H84   S    
C70   C71   S    
C23   C38   S    
C56   H36   S    
C49   H24   S    
C18   O9    S    
C59   H45   S    
C71   H71   S    
C68   H65   S    
C51   H26   S    
C62   H52   S    
C29   C31   A    
C75   C76   S    
O11   C57   S    
C17   N1    A    
C52   C53   S    
C30   C32   A    
C11   C13   A    
C18   N2    A    
C4    C42   A    
C2    C42   S    
C63   C64   S    
C63   H54   S    
C36   C38   S    
C33   C35   S    
C59   H44   S    
C20   C47   S    
C35   C40   S    
C34   C36   S    
C77   H89   S    
Cu2   O3    S    
C55   H34   S    
C9    C12   A    
C57   H40   S    
Cu1   O8    S    
C60   H47   S    
C65   H57   S    
C7    C13   A    
C54   C55   S    
C51   H25   S    
C78   H87   S    
C72   H75   S    
O10   C54   S    
C22   C26   A    
C27   C28   A    
C41   C45   A    
O14   C66   S    
C33   C38   S    
Cu2   O2    S    
O15   C69   S    
C77   H90   S    
Cu1   O1    S    
C62   H50   S    
C61   H48   S    
C19   C21   A    
