data_mof_unit_46791.cif
_audit_creation_date              2012-12-10T21:07:49-0500
_audit_creation_method            fapswitch 2.2
_symmetry_space_group_name_H-M    P1
_symmetry_Int_Tables_number       1
_space_group_crystal_system       triclinic
_cell_length_a                    8.573675
_cell_length_b                    17.399053
_cell_length_c                    16.81186
_cell_angle_alpha                 89.1674
_cell_angle_beta                  99.419253
_cell_angle_gamma                 91.069537
_cell_volume                      2473.47767887

loop_
_atom_site_label
_atom_site_type_symbol
_atom_type_description
_atom_site_fract_x
_atom_site_fract_y
_atom_site_fract_z
_atom_type_partial_charge
C1    C     C_R   0.512764 0.352810 0.502021 0.934005
C2    C     C_R   0.425534 0.439946 0.249253 0.602536
C3    C     C_R   0.571066 0.551072 0.841551 0.008792
C4    C     C_R   0.438194 0.432593 0.166326 -0.019075
C5    C     C_R   0.478894 0.493515 0.873700 -0.010615
C6    C     C_R   0.498199 0.494536 0.124466 -0.004817
C7    C     C_1   0.480694 0.492085 0.962070 -0.005101
C8    C     C_1   0.488610 0.493084 0.035694 0.011219
C9    C     C_R   0.200470 0.500121 0.478792 0.958724
C10   C     C_R   0.799533 0.500206 0.521265 0.944720
C11   C     C_2   0.035058 0.500869 0.467567 -0.389754
C12   C     C_R   0.497437 0.647590 0.499123 0.931801
C13   C     C_2   0.964974 0.500199 0.532779 -0.407169
C14   C     C_R   0.520536 0.850466 0.576062 0.127170
C15   C     C_R   0.647572 0.155223 0.449538 0.154002
C16   C     C_R   0.474265 0.772705 0.566711 0.142951
C17   C     C_R   0.605460 0.233163 0.442490 0.092972
C18   C     C_R   0.509072 0.732175 0.499405 -0.205903
C19   C     C_R   0.560833 0.271124 0.509418 -0.228938
C20   C     C_R   0.570746 0.771958 0.436971 0.103304
C21   C     C_R   0.574859 0.232109 0.585393 0.124607
C22   C     C_R   0.622976 0.848465 0.448552 0.142483
C23   C     C_1   0.630659 0.966638 0.523144 0.058700
C24   C     C_R   0.615173 0.154476 0.591335 0.126525
C25   C     C_R   0.598222 0.886467 0.518029 -0.021128
C26   C     C_R   0.643890 0.116216 0.522710 -0.026544
C27   C     C_3   0.333573 0.929357 0.629355 -0.812365
C28   C     C_3   0.858781 0.100395 0.390190 -0.759667
C29   C     C_3   0.223580 0.715029 0.591967 -0.777597
C30   C     C_3   0.761849 0.313212 0.364346 -0.715374
C31   C     C_3   0.431008 0.741895 0.305063 -0.783497
C32   C     C_3   0.683864 0.303745 0.704434 -0.705340
C33   C     C_3   0.867550 0.886941 0.405079 -0.805437
C34   C     C_1   0.644664 0.034704 0.523956 0.012719
C35   C     C_3   0.773493 0.091348 0.705981 -0.777257
C36   C     C_3   0.270083 0.360270 0.918766 -0.794357
C37   C     C_3   0.796600 0.609024 0.121051 -0.816146
C38   C     C_3   0.831426 0.582444 0.730422 0.128491
C39   C     C_3   0.943378 0.613715 0.803690 -0.389732
C40   C     C_3   0.115965 0.604028 0.794457 -0.955673
C41   C     C_3   0.193263 0.365425 0.252413 0.081679
C42   C     C_3   0.083576 0.434667 0.233039 -0.393903
C43   C     C_3   0.922679 0.408882 0.187562 -0.984734
C44   C     C_3   0.560802 0.679754 0.891827 -0.727627
C45   C     C_R   0.390207 0.440773 0.817916 0.125008
C46   C     C_3   0.531975 0.313498 0.121090 -0.798738
C47   C     C_R   0.567323 0.557522 0.170375 0.118033
C48   C     C_R   0.404432 0.446828 0.735453 -0.211392
C49   C     C_R   0.571245 0.557324 0.254982 -0.221998
C50   C     C_R   0.584626 0.551509 0.758689 0.575342
H1    H     H_    0.971210 0.502073 0.406148 0.172177
H2    H     H_    0.926897 0.155409 0.392140 0.227789
H3    H     H_    0.880825 0.067289 0.337291 0.229748
H4    H     H_    0.901344 0.066241 0.445522 0.250198
H5    H     H_    0.408029 0.752888 0.681608 0.225961
H6    H     H_    0.203846 0.653122 0.604418 0.255497
H7    H     H_    0.192475 0.725370 0.525866 0.226360
H8    H     H_    0.143251 0.749045 0.622748 0.218070
H9    H     H_    0.557554 0.249761 0.316640 0.224543
H10   H     H_    0.738410 0.367241 0.328922 0.250282
H11   H     H_    0.837000 0.276080 0.333773 0.200040
H12   H     H_    0.028412 0.499348 0.594392 0.170481
H13   H     H_    0.826460 0.328506 0.425085 0.232706
H14   H     H_    0.676113 0.747665 0.337029 0.217437
H15   H     H_    0.441170 0.710513 0.249294 0.223451
H16   H     H_    0.406230 0.803106 0.288902 0.222556
H17   H     H_    0.330307 0.716388 0.330960 0.253767
H18   H     H_    0.476133 0.238619 0.689961 0.227855
H19   H     H_    0.647967 0.338247 0.753171 0.221214
H20   H     H_    0.748700 0.342097 0.667158 0.241042
H21   H     H_    0.763985 0.258277 0.732810 0.228268
H22   H     H_    0.649342 0.877765 0.330484 0.229818
H23   H     H_    0.336080 0.408480 0.692486 0.178224
H24   H     H_    0.915579 0.921799 0.358540 0.237858
H25   H     H_    0.908777 0.826946 0.402875 0.227367
H26   H     H_    0.913934 0.911471 0.465143 0.249628
H27   H     H_    0.535031 0.070971 0.664176 0.240460
H28   H     H_    0.767368 0.074551 0.769350 0.235564
H29   H     H_    0.861130 0.139173 0.706216 0.237713
H30   H     H_    0.814318 0.041236 0.675310 0.238624
H31   H     H_    0.240669 0.343533 0.794602 0.215567
H32   H     H_    0.185956 0.310879 0.918382 0.223659
H33   H     H_    0.223347 0.407459 0.951215 0.247034
H34   H     H_    0.631298 0.603493 0.290562 0.187619
H35   H     H_    0.388389 0.341161 0.948597 0.252891
H36   H     H_    0.622626 0.672614 0.159089 0.220419
H37   H     H_    0.875202 0.603914 0.180369 0.239220
H38   H     H_    0.837353 0.658884 0.087447 0.237481
H39   H     H_    0.805242 0.556410 0.085544 0.249550
H40   H     H_    0.871958 0.605507 0.675152 0.174481
H41   H     H_    0.841182 0.518522 0.729233 0.115748
H42   H     H_    0.920839 0.675664 0.811348 0.249091
H43   H     H_    0.923065 0.581607 0.858663 0.223046
H44   H     H_    0.138271 0.543121 0.782022 0.278419
H45   H     H_    0.514989 0.867545 0.698048 0.218412
H46   H     H_    0.193876 0.621107 0.850999 0.270798
H47   H     H_    0.145332 0.640835 0.744362 0.266674
H48   H     H_    0.141241 0.327891 0.295635 0.153475
H49   H     H_    0.191849 0.328925 0.199016 0.161564
H50   H     H_    0.067162 0.462124 0.290028 0.234089
H51   H     H_    0.134356 0.478292 0.195287 0.204912
H52   H     H_    0.931890 0.395755 0.124052 0.265642
H53   H     H_    0.835812 0.455046 0.188250 0.285358
H54   H     H_    0.878587 0.356794 0.216036 0.260584
H55   H     H_    0.700958 0.592360 0.948210 0.236310
H56   H     H_    0.238064 0.884845 0.622460 0.250927
H57   H     H_    0.636202 0.724525 0.926316 0.225936
H58   H     H_    0.455273 0.668803 0.921115 0.231850
H59   H     H_    0.523076 0.701618 0.829335 0.250843
H60   H     H_    0.316812 0.365140 0.076246 0.228783
H61   H     H_    0.488532 0.257394 0.094789 0.231771
H62   H     H_    0.602218 0.302626 0.181625 0.251907
H63   H     H_    0.608544 0.341491 0.081448 0.245854
H64   H     H_    0.319945 0.966695 0.574558 0.246219
H65   H     H_    0.321883 0.965544 0.681838 0.230010
H66   H     H_    0.640994 0.132909 0.326518 0.215447
N1    N     N_R   0.500040 0.500030 0.707230 -0.150745
N2    N     N_2   0.618460 0.114639 0.666347 -0.305862
N3    N     N_2   0.276788 0.384896 0.837418 -0.298769
N4    N     N_2   0.635162 0.620549 0.132477 -0.290145
N5    N     N_2   0.649874 0.610109 0.891394 -0.298101
N6    N     N_2   0.398790 0.361315 0.127754 -0.306555
N7    N     N_R   0.499960 0.499970 0.292770 -0.144654
N8    N     N_2   0.487030 0.893858 0.642391 -0.302728
N9    N     N_2   0.691386 0.114882 0.383318 -0.287522
N10   N     N_2   0.386898 0.735808 0.622415 -0.257215
N11   N     N_2   0.612940 0.274372 0.369355 -0.251846
N12   N     N_2   0.576418 0.735609 0.362164 -0.286649
N13   N     N_2   0.544829 0.270085 0.655890 -0.273088
N14   N     N_2   0.696613 0.888731 0.389666 -0.288475
O1    O     O_R   0.500000 0.389130 0.566570 -0.606075
O2    O     O_3   0.349485 0.384582 0.290253 -0.603974
O3    O     O_R   0.500000 0.610870 0.433430 -0.599849
O4    O     O_R   0.499990 0.389100 0.433480 -0.529390
O5    O     O_R   0.500010 0.610900 0.566520 -0.554701
O6    O     O_R   0.271750 0.500010 0.550980 -0.620821
O7    O     O_R   0.728250 0.499990 0.449020 -0.611709
O8    O     O_R   0.271740 0.499980 0.417890 -0.615611
O9    O     O_R   0.728260 0.500020 0.582110 -0.649555
O10   O     O_3   0.675028 0.608226 0.728749 -0.621745
Zn1   Zn    Zn3+2 0.500010 0.500020 0.588860 0.951193
Zn2   Zn    Zn3+2 0.499990 0.499980 0.411140 0.972399

loop_
_geom_bond_atom_site_label_1
_geom_bond_atom_site_label_2
_ccdc_geom_bond_type
C33   N14   S    
H45   N8    S    
C31   H16   S    
O7    Zn2   S    
C46   H62   S    
C50   N1    A    
C11   C13   D    
C41   C42   S    
C35   H30   S    
C37   H38   S    
N1    Zn1   S    
C7    C8    T    
C47   C49   A    
C2    N7    A    
C31   H17   S    
O3    Zn2   S    
C49   H34   S    
C19   C21   A    
C24   C26   A    
C20   N12   S    
C38   C39   S    
C50   O10   S    
C45   C48   A    
C36   H33   S    
H9    N11   S    
C49   N7    A    
C44   N5    S    
C15   C17   A    
C36   N3    S    
C43   H54   S    
C39   H43   S    
C26   C34   S    
C13   H12   S    
C36   H32   S    
H14   N12   S    
C12   O5    A    
C30   H10   S    
C2    O2    S    
C41   H49   S    
C10   O7    A    
O1    Zn1   S    
C44   H59   S    
C45   N3    S    
C29   N10   S    
C22   N14   S    
C31   N12   S    
C40   H46   S    
C30   H13   S    
C32   N13   S    
C3    C50   A    
C33   H25   S    
C32   H21   S    
C44   H58   S    
C1    C19   S    
C14   N8    S    
C6    C47   A    
C29   H7    S    
H55   N5    S    
C4    C6    A    
H27   N2    S    
O8    Zn2   S    
C40   H47   S    
C5    C7    S    
C28   H4    S    
C17   N11   S    
C15   C26   A    
C32   H20   S    
C27   H56   S    
C1    O1    A    
C5    C45   A    
C38   H41   S    
C22   C25   A    
C2    C4    A    
C9    O6    A    
O6    Zn1   S    
C42   H50   S    
O4    Zn2   S    
C9    O8    A    
C33   H26   S    
H5    N10   S    
C28   H3    S    
C23   C34   T    
C4    N6    S    
C9    C11   S    
C21   N13   S    
C48   N1    A    
C47   N4    S    
C20   C22   A    
C12   O3    A    
C14   C16   A    
C21   C24   A    
C42   C43   S    
C1    O4    A    
C42   H51   S    
C39   H42   S    
C39   C40   S    
C28   N9    S    
C44   H57   S    
C31   H15   S    
C38   H40   S    
C30   N11   S    
C46   H63   S    
C48   H23   S    
C37   H37   S    
C40   H44   S    
C3    C5    A    
C10   C13   S    
C41   O2    S    
C6    C8    S    
C27   N8    S    
H22   N14   S    
C32   H19   S    
C28   H2    S    
C29   H6    S    
C36   H35   S    
H31   N3    S    
C35   H28   S    
C24   N2    S    
C37   H39   S    
H66   N9    S    
C43   H52   S    
H60   N6    S    
O9    Zn1   S    
C37   N4    S    
N7    Zn2   S    
C35   H29   S    
C17   C19   A    
C18   C20   A    
C23   C25   S    
C14   C25   A    
H18   N13   S    
C43   H53   S    
C11   H1    S    
C10   O9    A    
C27   H64   S    
C33   H24   S    
O5    Zn1   S    
C29   H8    S    
C16   C18   A    
C15   N9    S    
C30   H11   S    
C12   C18   S    
C38   O10   S    
C41   H48   S    
C46   N6    S    
C35   N2    S    
H36   N4    S    
C46   H61   S    
C16   N10   S    
C3    N5    S    
C27   H65   S    
