data_mof_unit_50566.cif
_audit_creation_date              2012-12-10T19:45:59-0500
_audit_creation_method            fapswitch 2.2
_symmetry_space_group_name_H-M    P1
_symmetry_Int_Tables_number       1
_space_group_crystal_system       triclinic
_cell_length_a                    10.7777
_cell_length_b                    14.814395
_cell_length_c                    14.297537
_cell_angle_alpha                 90.534169
_cell_angle_beta                  104.247605
_cell_angle_gamma                 93.733
_cell_volume                      2207.14819314

loop_
_atom_site_label
_atom_site_type_symbol
_atom_type_description
_atom_site_fract_x
_atom_site_fract_y
_atom_site_fract_z
_atom_type_partial_charge
C1    C     C_R   0.504927 0.326780 0.500486 0.872745
C2    C     C_R   0.417281 0.443141 0.784047 0.215208
C3    C     C_R   0.602453 0.533984 0.122264 -0.294034
C4    C     C_R   0.424890 0.443345 0.883987 -0.330582
C5    C     C_R   0.489413 0.514420 0.050976 0.035707
C6    C     C_R   0.491045 0.514323 0.945123 0.077946
C7    C     C_R   0.258904 0.499255 0.459399 0.939043
C8    C     C_R   0.740707 0.498859 0.540803 0.953704
C9    C     C_2   0.121243 0.488863 0.436467 -0.330943
C10   C     C_2   0.878057 0.502754 0.565717 -0.332319
C11   C     C_2   0.065499 0.506989 0.506705 -0.190129
C12   C     C_R   0.484948 0.671805 0.497759 0.871733
C13   C     C_2   0.934741 0.476309 0.499064 -0.185752
C14   C     C_R   0.385235 0.100429 0.553048 0.149187
C15   C     C_R   0.336451 0.891188 0.398630 0.159849
C16   C     C_R   0.460134 0.182080 0.574845 0.064621
C17   C     C_R   0.367339 0.798988 0.402325 0.088735
C18   C     C_R   0.497304 0.227509 0.498470 -0.086296
C19   C     C_R   0.441294 0.765110 0.491506 -0.162261
C20   C     C_R   0.509737 0.176334 0.417127 0.169266
C21   C     C_R   0.468135 0.821549 0.575945 0.130242
C22   C     C_R   0.467626 0.085016 0.410056 -0.289437
C23   C     C_R   0.401930 0.047326 0.475076 0.065768
C24   C     C_R   0.459097 0.913130 0.565310 -0.241351
C25   C     C_3   0.295797 0.069832 0.616209 -0.432119
C26   C     C_3   0.161504 0.038803 0.556794 -0.845074
C27   C     C_3   0.244643 0.928299 0.310578 -0.415488
C28   C     C_3   0.104268 0.902558 0.309041 -0.874130
C29   C     C_3   0.527612 0.205379 0.680194 -0.426193
C30   C     C_3   0.673527 0.207892 0.697020 -0.796440
C31   C     C_3   0.320635 0.738196 0.311923 -0.362108
C32   C     C_3   0.417227 0.743250 0.249282 -0.841517
C33   C     C_3   0.578460 0.212563 0.342719 -0.342040
C34   C     C_R   0.392900 0.948574 0.479243 0.046321
C35   C     C_3   0.718903 0.242318 0.388895 -0.871770
C36   C     C_3   0.496904 0.789076 0.678955 -0.353973
C37   C     C_3   0.376035 0.742962 0.700417 -0.830143
C38   C     C_3   0.245576 0.509016 0.016472 -0.339425
C39   C     C_3   0.190350 0.593670 0.047292 -0.812114
C40   C     C_3   0.601706 0.674469 0.950591 -0.323599
C41   C     C_3   0.495085 0.719558 0.983381 -0.928611
C42   C     C_3   0.702070 0.606543 0.281741 -0.353574
C43   C     C_3   0.838125 0.578839 0.288853 -0.841762
C44   C     C_3   0.315405 0.378227 0.722089 -0.385532
C45   C     C_R   0.377092 0.494273 0.082961 -0.001999
C46   C     C_3   0.180964 0.403384 0.724932 -0.835037
C47   C     C_R   0.559356 0.580967 0.903435 -0.004804
C48   C     C_R   0.389744 0.470927 0.181775 0.494316
C49   C     C_R   0.582636 0.561047 0.811634 0.470911
C50   C     C_R   0.600859 0.540752 0.220468 0.202300
H1    H     H_    0.881414 0.437543 0.435320 0.187010
H2    H     H_    0.162251 0.970944 0.523804 0.266248
H3    H     H_    0.094408 0.033424 0.604601 0.246687
H4    H     H_    0.335003 0.015138 0.664729 0.205349
H5    H     H_    0.284295 0.127286 0.663267 0.205219
H6    H     H_    0.089143 0.831183 0.328868 0.253472
H7    H     H_    0.072401 0.946775 0.360286 0.259343
H8    H     H_    0.042943 0.912435 0.235671 0.256665
H9    H     H_    0.254439 0.003034 0.308335 0.222243
H10   H     H_    0.266324 0.904729 0.242943 0.209006
H11   H     H_    0.702479 0.142545 0.673312 0.247069
H12   H     H_    0.118396 0.543942 0.571932 0.183397
H13   H     H_    0.708884 0.263719 0.656921 0.261407
H14   H     H_    0.719267 0.219363 0.775115 0.253922
H15   H     H_    0.501196 0.270256 0.704755 0.235653
H16   H     H_    0.501328 0.153852 0.729161 0.193423
H17   H     H_    0.517229 0.744554 0.294029 0.263417
H18   H     H_    0.399555 0.683560 0.199346 0.242455
H19   H     H_    0.407610 0.805277 0.205961 0.237005
H20   H     H_    0.299399 0.667527 0.330590 0.222612
H21   H     H_    0.226659 0.755550 0.266998 0.208558
H22   H     H_    0.766370 0.266702 0.332264 0.253265
H23   H     H_    0.689959 0.552343 0.101032 0.192089
H24   H     H_    0.727232 0.298032 0.442879 0.248062
H25   H     H_    0.769781 0.184363 0.424964 0.258635
H26   H     H_    0.577609 0.159487 0.287010 0.190913
H27   H     H_    0.528464 0.268293 0.301839 0.258659
H28   H     H_    0.306974 0.794334 0.704969 0.248093
H29   H     H_    0.327631 0.691773 0.643847 0.264704
H30   H     H_    0.401661 0.708527 0.770067 0.241719
H31   H     H_    0.577548 0.745453 0.694356 0.272153
H32   H     H_    0.529209 0.846369 0.732072 0.181652
H33   H     H_    0.187495 0.592155 0.124187 0.282849
H34   H     H_    0.370438 0.391273 0.912820 0.186560
H35   H     H_    0.249369 0.655019 0.036418 0.239811
H36   H     H_    0.091172 0.598769 0.002490 0.291685
H37   H     H_    0.249927 0.519849 0.940883 0.208163
H38   H     H_    0.176554 0.449918 0.013439 0.276576
H39   H     H_    0.400937 0.706156 0.930757 0.264811
H40   H     H_    0.487636 0.695088 0.054850 0.269744
H41   H     H_    0.517930 0.793857 0.990942 0.254658
H42   H     H_    0.686633 0.672076 0.012335 0.229222
H43   H     H_    0.630945 0.720180 0.897390 0.232717
H44   H     H_    0.137233 0.289208 0.120532 0.383742
H45   H     H_    0.931554 0.536456 0.632776 0.177084
H46   H     H_    0.843573 0.665915 0.714746 0.362213
H47   H     H_    0.905016 0.612347 0.353222 0.257961
H48   H     H_    0.841753 0.504406 0.293096 0.266599
H49   H     H_    0.871014 0.600673 0.224317 0.251943
H50   H     H_    0.693595 0.673534 0.247156 0.173754
H51   H     H_    0.686612 0.619593 0.353493 0.254929
H52   H     H_    0.172574 0.477251 0.716897 0.256773
H53   H     H_    0.108218 0.366604 0.665948 0.263686
H54   H     H_    0.160243 0.384287 0.794763 0.255387
H55   H     H_    0.321589 0.374908 0.646812 0.262433
H56   H     H_    0.068007 0.457301 0.368284 0.205298
H57   H     H_    0.327350 0.308825 0.750079 0.172061
H58   H     H_    0.488126 0.042079 0.354634 0.147037
H59   H     H_    0.503405 0.957867 0.626472 0.141479
H60   H     H_    0.126140 0.087847 0.499645 0.263324
N1    N     N_R   0.500000 0.499980 0.252470 -0.181721
N2    N     N_R   0.500000 0.500020 0.747530 -0.160631
O1    O     O_R   0.500010 0.369070 0.579480 -0.645966
O2    O     O_2   0.150102 0.449569 0.207391 -0.353376
O3    O     O_3   0.218232 0.319849 0.112367 -0.605084
O4    O     O_2   0.824757 0.632026 0.892512 -0.368063
O5    O     O_2   0.800274 0.497379 0.790359 -0.297453
O6    O     O_3   0.750810 0.651629 0.708615 -0.592212
O7    O     O_R   0.499990 0.630930 0.420520 -0.641656
O8    O     O_R   0.500010 0.369060 0.420520 -0.564170
O9    O     O_R   0.499990 0.630940 0.579480 -0.578789
O10   O     O_R   0.317810 0.500010 0.549800 -0.646390
O11   O     O_R   0.682190 0.499990 0.450200 -0.636957
O12   O     O_R   0.317810 0.500000 0.390840 -0.549067
O13   O     O_R   0.682190 0.500000 0.609160 -0.504253
O14   O     O_2   0.299503 0.344312 0.294450 -0.293762
S1    S     S_3+6 0.263166 0.396538 0.204073 -0.002468
S2    S     S_3+6 0.743423 0.585506 0.802147 -0.003817
Zn1   Zn    Zn3+2 0.500000 0.500010 0.606140 0.992038
Zn2   Zn    Zn3+2 0.500000 0.499990 0.393860 0.984148

loop_
_geom_bond_atom_site_label_1
_geom_bond_atom_site_label_2
_ccdc_geom_bond_type
C40   C47   S    
C41   H39   S    
C42   H51   S    
C35   H24   S    
O14   S1    D    
C30   H14   S    
C43   H48   S    
C7    O12   A    
C11   H12   S    
C28   H6    S    
C47   C49   A    
C21   C36   S    
C28   H7    S    
C37   H29   S    
C2    N2    A    
C1    C18   S    
O1    Zn1   S    
O8    Zn2   S    
H46   O6    S    
C36   C37   S    
C19   C21   A    
C43   H49   S    
C26   H2    S    
C27   H10   S    
C38   C39   S    
C45   C48   A    
O7    Zn2   S    
O3    S1    S    
C15   C17   A    
C38   C45   S    
N1    Zn2   S    
C17   C19   A    
C13   H1    S    
O6    S2    S    
C31   H20   S    
C12   O9    A    
C2    C44   S    
N2    Zn1   S    
C40   H43   S    
C15   C34   A    
C32   H18   S    
C31   H21   S    
C41   H40   S    
C30   H13   S    
C1    O1    A    
C3    C50   A    
C44   C46   S    
C37   H30   S    
C6    C47   A    
C43   H47   S    
C25   H4    S    
C4    C6    A    
C36   H32   S    
C9    H56   S    
C44   H55   S    
C46   H54   S    
C24   C34   A    
C38   H38   S    
C1    O8    A    
C14   C23   A    
C2    C4    A    
C29   C30   S    
C42   H50   S    
C12   O7    A    
C46   H52   S    
C33   H26   S    
C15   C27   S    
C31   C32   S    
C4    H34   S    
C36   H31   S    
C23   C34   S    
C35   H25   S    
O12   Zn2   S    
C40   H42   S    
C9    C11   D    
C42   C50   S    
C32   H17   S    
C29   H15   S    
C20   C33   S    
C16   C18   A    
C40   C41   S    
C41   H41   S    
C20   C22   A    
C35   H22   S    
C49   N2    A    
O11   Zn2   S    
C17   C31   S    
C14   C16   A    
C21   C24   A    
C42   C43   S    
C39   H35   S    
C7    O10   A    
C26   H3    S    
C46   H53   S    
C44   H57   S    
C7    C9    S    
C49   S2    S    
C26   H60   S    
O10   Zn1   S    
C24   H59   S    
C25   H5    S    
O9    Zn1   S    
C3    C5    A    
C10   C13   D    
H44   O3    S    
C8    O11   A    
C32   H19   S    
C28   H8    S    
C37   H28   S    
C38   H37   S    
C25   C26   S    
C39   H33   S    
C27   H9    S    
C48   S1    S    
O2    S1    D    
C11   C13   S    
C33   H27   S    
C5    C6    S    
C5    C45   A    
C10   H45   S    
C22   H58   S    
C12   C19   S    
C50   N1    A    
C33   C35   S    
C18   C20   A    
C14   C25   S    
C3    H23   S    
O5    S2    D    
C29   H16   S    
O13   Zn1   S    
C8    O13   A    
C48   N1    A    
C16   C29   S    
C8    C10   S    
O4    S2    D    
C30   H11   S    
C27   C28   S    
C22   C23   A    
C39   H36   S    
