data_mof_unit_46231.cif
_audit_creation_date              2012-12-10T20:46:49-0500
_audit_creation_method            fapswitch 2.2
_symmetry_space_group_name_H-M    P1
_symmetry_Int_Tables_number       1
_space_group_crystal_system       triclinic
_cell_length_a                    12.7154
_cell_length_b                    8.933481
_cell_length_c                    8.111237
_cell_angle_alpha                 90.000017
_cell_angle_beta                  97.36853
_cell_angle_gamma                 89.999881
_cell_volume                      913.769029265

loop_
_atom_site_label
_atom_site_type_symbol
_atom_type_description
_atom_site_fract_x
_atom_site_fract_y
_atom_site_fract_z
_atom_type_partial_charge
C1    C     C_R   0.500000 0.218003 0.500000 0.957094
C2    C     C_R   0.500000 0.782004 0.500000 0.902841
C3    C     C_R   0.297041 0.513286 0.466807 0.866974
C4    C     C_R   0.702959 0.513287 0.533192 0.866974
C5    C     C_R   0.814584 0.556786 0.556339 -0.227807
C6    C     C_R   0.185415 0.556786 0.443660 -0.227807
C7    C     C_R   0.013076 0.575198 0.278252 -0.135406
C8    C     C_R   0.986924 0.575197 0.721748 -0.135406
C9    C     C_R   0.119794 0.536181 0.289632 -0.034970
C10   C     C_R   0.880206 0.536181 0.710368 -0.034971
C11   C     C_R   0.141205 0.617667 0.580245 -0.105986
C12   C     C_R   0.858794 0.617667 0.419755 -0.105986
C13   C     C_R   0.031991 0.606060 0.577132 0.129798
C14   C     C_R   0.968008 0.606061 0.422867 0.129797
C15   C     C_1   0.500000 0.065178 0.500000 -0.161047
C16   C     C_1   0.500000 0.934793 0.500000 -0.158588
H1    H     H_    0.963291 0.562430 0.160498 0.186788
H2    H     H_    0.036708 0.562429 0.839501 0.186788
N1    N     N_1   0.500020 0.500000 0.073640 -0.012184
N2    N     N_1   0.499980 0.500000 0.926360 -0.012184
O1    O     O_R   0.499990 0.285340 0.636850 -0.606458
O2    O     O_R   0.500010 0.714660 0.363150 -0.616830
O3    O     O_R   0.500010 0.285340 0.363150 -0.606459
O4    O     O_R   0.499990 0.714660 0.636850 -0.616829
O5    O     O_R   0.346350 0.500000 0.614250 -0.649126
O6    O     O_R   0.653650 0.500000 0.385750 -0.649126
O7    O     O_R   0.346360 0.500000 0.340500 -0.571750
O8    O     O_R   0.653640 0.500000 0.659500 -0.571749
Zn1   Zn    Zn3+2 0.499990 0.500000 0.682780 1.026187
Zn2   Zn    Zn3+2 0.500010 0.500000 0.317220 1.026187
C17   C     C_2   0.795412 0.710874 0.289585 0.456726
H3    H     H_    0.711986 0.732102 0.293639 0.098760
O9    O     O_2   0.837425 0.775382 0.182457 -0.514730
C18   C     C_2   0.204587 0.710873 0.710415 0.456726
H4    H     H_    0.288012 0.732101 0.706362 0.098761
O10   O     O_2   0.162573 0.775382 0.817542 -0.514729
C19   C     C_2   0.843380 0.467863 0.858826 0.931011
O11   O     O_2   0.880617 0.348119 0.910760 -0.577802
O12   O     O_R   0.769594 0.542122 0.942986 -0.747699
H5    H     H_    0.750018 0.482321 0.040844 0.334354
C20   C     C_2   0.156620 0.467863 0.141174 0.931011
O13   O     O_2   0.119384 0.348118 0.089242 -0.577801
O14   O     O_R   0.230405 0.542123 0.057013 -0.747700
H6    H     H_    0.249982 0.482321 0.959156 0.334354

loop_
_geom_bond_atom_site_label_1
_geom_bond_atom_site_label_2
_ccdc_geom_bond_type
C2    O2    A    
C4    O6    A    
O14   H6    S    
C17   O9    D    
C1    O1    A    
C19   O11   D    
C1    C15   S    
C7    C14   A    
C11   C13   A    
C20   O13   D    
C9    C20   S    
N1    N2    T    
C3    C6    S    
C6    C9    A    
C3    O7    A    
C5    C10   A    
C19   O12   S    
C13   C14   A    
O7    Zn2   S    
O5    Zn1   S    
C20   O14   S    
C8    C13   A    
C10   C19   S    
O8    Zn1   S    
C4    O8    A    
C12   C14   A    
C1    O3    A    
C18   O10   D    
N2    Zn1   S    
C6    C11   A    
C12   C17   S    
C2    O4    A    
C15   C16   T    
O3    Zn2   S    
C3    O5    A    
C2    C16   S    
C5    C12   A    
C8    C10   A    
C18   H4    S    
O12   H5    S    
C7    C9    A    
O4    Zn1   S    
O2    Zn2   S    
N1    Zn2   S    
O1    Zn1   S    
C11   C18   S    
C8    H2    S    
C17   H3    S    
C4    C5    S    
C7    H1    S    
O6    Zn2   S    
