data_mof_unit_54288.cif
_audit_creation_date              2012-12-11T15:15:42-0500
_audit_creation_method            fapswitch 2.2
_symmetry_space_group_name_H-M    P1
_symmetry_Int_Tables_number       1
_space_group_crystal_system       triclinic
_cell_length_a                    20.856867
_cell_length_b                    22.639355
_cell_length_c                    6.939842
_cell_angle_alpha                 90.000861
_cell_angle_beta                  86.615101
_cell_angle_gamma                 90.000537
_cell_volume                      3271.17955239

loop_
_atom_site_label
_atom_site_type_symbol
_atom_type_description
_atom_site_fract_x
_atom_site_fract_y
_atom_site_fract_z
_atom_type_partial_charge
O1    O     O_R   0.387100 0.552640 0.378490 -0.524447
O2    O     O_R   0.612900 0.052640 0.621510 -0.524464
O3    O     O_R   0.249610 0.559600 0.072250 -0.514183
O4    O     O_R   0.750390 0.059600 0.927750 -0.514173
O5    O     O_R   0.249120 0.447360 0.902040 -0.554028
O6    O     O_R   0.750880 0.947360 0.097960 -0.554038
C1    C     C_R   0.224862 0.571314 0.243686 0.789146
C2    C     C_R   0.775144 0.071310 0.756313 0.789141
O7    O     O_R   0.386610 0.559560 0.048860 -0.521726
O8    O     O_R   0.613390 0.059560 0.951140 -0.521684
O9    O     O_R   0.387100 0.447320 0.878470 -0.543007
O10   O     O_R   0.612900 0.947320 0.121530 -0.542990
C3    C     C_R   0.406826 0.575950 0.214311 0.805865
C4    C     C_R   0.593179 0.075954 0.785691 0.805831
O11   O     O_R   0.249120 0.552680 0.402050 -0.535823
O12   O     O_R   0.750880 0.052680 0.597950 -0.535857
O13   O     O_3   0.318110 0.463180 0.223790 -0.391894
O14   O     O_3   0.681890 0.963180 0.776210 -0.391897
V1    V     V_3+5 0.318110 0.506830 0.948930 1.578226
V2    V     V_3+5 0.681890 0.006830 0.051070 1.578271
O15   O     O_R   0.386610 0.440400 0.548840 -0.532017
O16   O     O_R   0.613390 0.940400 0.451160 -0.532025
C5    C     C_R   0.407439 0.425238 0.713318 0.757892
C6    C     C_R   0.592572 0.925231 0.286678 0.757915
O17   O     O_R   0.249610 0.440440 0.572240 -0.556728
O18   O     O_R   0.750390 0.940440 0.427760 -0.556740
C7    C     C_R   0.227973 0.425572 0.744322 0.681684
C8    C     C_R   0.772036 0.925581 0.255674 0.681674
V3    V     V_3+5 0.318110 0.493170 0.448930 1.538355
V4    V     V_3+5 0.681890 0.993170 0.551070 1.538311
O19   O     O_3   0.318110 0.536820 0.723940 -0.342401
O20   O     O_3   0.681890 0.036820 0.276060 -0.342407
C9    C     C_R   0.177432 0.379428 0.757816 -0.045019
C10   C     C_R   0.822611 0.879469 0.242164 -0.044986
C11   C     C_R   0.163487 0.347063 0.592071 -0.143348
C12   C     C_R   0.836636 0.847170 0.407943 -0.143358
C13   C     C_R   0.116408 0.303286 0.601208 -0.036847
C14   C     C_R   0.883747 0.803419 0.398799 -0.036897
C15   C     C_R   0.080889 0.291790 0.774975 0.165920
C16   C     C_R   0.919219 0.791888 0.224991 0.165923
C17   C     C_R   0.095913 0.322522 0.942212 -0.083438
C18   C     C_R   0.904126 0.822558 0.057715 -0.083371
C19   C     C_R   0.143619 0.366196 0.933840 -0.150282
C20   C     C_R   0.856387 0.866203 0.066091 -0.150220
C21   C     C_R   0.897951 0.190951 0.863099 -0.140356
C22   C     C_R   0.102187 0.691075 0.136874 -0.140256
C23   C     C_R   0.847403 0.150869 0.892546 0.341146
C24   C     C_R   0.152680 0.650926 0.107414 0.341176
C25   C     C_R   0.870788 0.112484 0.569262 -0.183609
C26   C     C_R   0.129269 0.612589 0.430752 -0.183464
C27   C     C_R   0.922414 0.151789 0.542892 0.368706
C28   C     C_R   0.077694 0.651960 0.457131 0.368661
C29   C     C_R   0.935084 0.192616 0.688641 -0.023249
C30   C     C_R   0.065067 0.692789 0.311353 -0.023290
C31   C     C_2   0.030786 0.245342 0.787053 -0.225570
C32   C     C_2   0.969341 0.745463 0.212951 -0.225655
C33   C     C_2   0.984804 0.238997 0.659178 0.319897
C34   C     C_2   0.015370 0.739185 0.340745 0.319907
C35   C     C_R   0.831251 0.112337 0.740691 -0.158492
C36   C     C_R   0.168793 0.612386 0.259295 -0.158471
H1    H     H_    0.189549 0.354933 0.454846 0.132486
H2    H     H_    0.810614 0.855075 0.545214 0.132420
H3    H     H_    0.153714 0.389730 0.064514 0.125684
H4    H     H_    0.846236 0.889689 0.935386 0.125634
C37   C     C_R   0.572339 0.363859 0.601787 -0.081317
C38   C     C_R   0.427669 0.863866 0.398277 -0.081377
C39   C     C_R   0.461975 0.384012 0.704228 -0.124244
C40   C     C_R   0.538031 0.884009 0.295786 -0.124240
C41   C     C_R   0.478227 0.097579 0.815214 -0.199364
C42   C     C_R   0.521767 0.597592 0.184565 -0.199388
C43   C     C_R   0.424645 0.131774 0.782383 0.352868
C44   C     C_R   0.575352 0.631790 0.217340 0.352855
C45   C     C_R   0.431511 0.191168 0.726070 0.225272
C46   C     C_R   0.568492 0.691170 0.273829 0.225252
C47   C     C_R   0.492967 0.218896 0.725896 -0.049529
C48   C     C_R   0.507032 0.718893 0.274196 -0.049552
C49   C     C_R   0.548408 0.182202 0.745993 -0.071222
C50   C     C_R   0.451590 0.682196 0.254182 -0.071184
C51   C     C_R   0.501908 0.281534 0.702155 0.084495
C52   C     C_R   0.498095 0.781528 0.297981 0.084522
C53   C     C_R   0.563902 0.303448 0.644490 -0.053275
C54   C     C_R   0.436107 0.803443 0.355737 -0.053286
C55   C     C_R   0.617210 0.265786 0.645380 0.275601
C56   C     C_R   0.382796 0.765767 0.355096 0.275583
C57   C     C_R   0.609724 0.208988 0.722807 0.199411
C58   C     C_R   0.390269 0.708976 0.277595 0.199445
C59   C     C_R   0.452517 0.323622 0.744316 -0.174622
C60   C     C_R   0.547484 0.823615 0.255751 -0.174682
C61   C     C_R   0.521911 0.403604 0.628683 0.238487
C62   C     C_R   0.478097 0.903612 0.371284 0.238505
C63   C     C_R   0.540192 0.120303 0.786677 -0.112228
C64   C     C_R   0.459807 0.620302 0.213335 -0.112234
H5    H     H_    0.471507 0.051271 0.850871 0.180407
H6    H     H_    0.528484 0.551291 0.148766 0.180390
Br1   Br    Br    0.976440 0.145739 0.310062 -0.489882
Br2   Br    Br    0.023679 0.645992 0.690010 -0.490186
Br3   Br    Br    0.538098 0.485402 0.569940 -0.484424
Br4   Br    Br    0.461908 0.985426 0.429831 -0.484415
Br5   Br    Br    0.702669 0.293082 0.563431 -0.325528
Br6   Br    Br    0.297337 0.793017 0.437586 -0.325416
H7    H     H_    0.618466 0.381540 0.551849 0.210303
H8    H     H_    0.381539 0.881558 0.448118 0.210294
H9    H     H_    0.406979 0.310580 0.813208 0.162567
H10   H     H_    0.593017 0.810570 0.186840 0.162563
Br7   Br    Br    0.359637 0.226266 0.603672 -0.468800
Br8   Br    Br    0.640384 0.726243 0.396224 -0.468683
Br9   Br    Br    0.342462 0.093282 0.803453 -0.292118
Br10  Br    Br    0.657540 0.593319 0.195936 -0.292141
Br11  Br    Br    0.681566 0.179612 0.848879 -0.430390
Br12  Br    Br    0.318394 0.679624 0.151672 -0.430546
Br13  Br    Br    0.803704 0.153760 0.144499 -0.395933
Br14  Br    Br    0.196363 0.653732 0.855391 -0.396022
H11   H     H_    0.862023 0.081339 0.455346 0.177316
H12   H     H_    0.137999 0.581437 0.544681 0.177350
Br15  Br    Br    0.972171 0.295982 0.458261 -0.443298
Br16  Br    Br    0.028047 0.796242 0.541416 -0.442884
H13   H     H_    0.070196 0.313122 0.078943 0.161498
H14   H     H_    0.929812 0.813131 0.920955 0.161380
H15   H     H_    0.907839 0.221826 0.976958 0.202473
H16   H     H_    0.092321 0.721947 0.022977 0.202521
H17   H     H_    0.030552 0.215856 0.910716 0.171110
H18   H     H_    0.969537 0.715920 0.089416 0.171139
H19   H     H_    0.108263 0.277975 0.472535 0.155852
H20   H     H_    0.891956 0.778155 0.527512 0.155781

loop_
_geom_bond_atom_site_label_1
_geom_bond_atom_site_label_2
_ccdc_geom_bond_type
C25   H11   S    
C31   H17   S    
O11   V3    S    
C43   Br9   S    
O13   V3    S    
C38   H8    S    
C37   H7    S    
O4    C2    A    
V1    O19   S    
C51   C59   A    
C19   H3    S    
C33   Br15  S    
C7    C9    S    
C37   C61   A    
O9    V1    S    
C46   C48   A    
C42   H6    S    
C56   C58   A    
C57   Br11  S    
C2    C35   S    
V2    O20   S    
C9    C11   A    
C38   C54   A    
O12   V4    S    
C39   C61   A    
C5    C39   S    
C41   C43   A    
O7    C3    A    
C60   H10   S    
O5    C7    A    
C37   C53   A    
O7    V1    S    
C15   C31   S    
C44   Br10  S    
O8    V2    S    
C25   C27   A    
C26   C28   A    
O3    V1    S    
O14   V4    S    
C10   C12   A    
C21   H15   S    
C16   C18   A    
C49   C57   A    
C2    O12   A    
C14   C16   A    
C55   Br5   S    
C34   Br16  S    
C17   C19   A    
O10   V2    S    
C18   C20   A    
C12   H2    S    
O18   C8    A    
C53   C55   A    
C28   C30   A    
C24   C36   A    
C21   C23   A    
O17   V3    S    
C13   C15   A    
C22   C24   A    
C9    C19   A    
C10   C20   A    
C44   C46   A    
O8    C4    A    
C43   C45   A    
C29   C33   S    
C18   H14   S    
C1    O11   A    
C50   C64   A    
C23   C35   A    
C38   C62   A    
C20   H4    S    
C61   Br3   S    
C26   H12   S    
C56   Br6   S    
C24   Br14  S    
C46   Br8   S    
C40   C62   A    
C22   C30   A    
O1    V3    S    
C22   H16   S    
C11   H1    S    
C16   C32   S    
C47   C49   A    
C59   H9    S    
C52   C54   A    
C55   C57   A    
O18   V4    S    
C54   C56   A    
C31   C33   D    
C3    C64   S    
C40   C60   A    
O16   C6    A    
O1    C3    A    
C45   C47   A    
C12   C14   A    
C13   H19   S    
C1    C36   S    
C11   C13   A    
C51   C53   A    
C30   C34   S    
C41   H5    S    
C49   C63   A    
O16   V4    S    
C58   Br12  S    
C39   C59   A    
C42   C64   A    
C48   C52   A    
C48   C50   A    
O5    V1    S    
O17   C7    A    
O6    V2    S    
O10   C6    A    
O3    C1    A    
C25   C35   A    
C45   Br7   S    
O2    V4    S    
C26   C36   A    
O15   C5    A    
V3    O19   S    
V4    O20   S    
C50   C58   A    
O15   V3    S    
C23   Br13  S    
O9    C5    A    
O13   V1    S    
C32   C34   D    
C28   Br2   S    
O14   V2    S    
C8    C10   S    
O2    C4    A    
C4    C63   S    
C6    C40   S    
C21   C29   A    
O4    V2    S    
O6    C8    A    
C15   C17   A    
C52   C60   A    
C27   Br1   S    
C17   H13   S    
C42   C44   A    
C27   C29   A    
C41   C63   A    
C47   C51   A    
C62   Br4   S    
C14   H20   S    
C32   H18   S    
