data_mof_unit_65671.cif
_audit_creation_date              2012-12-10T19:31:19-0500
_audit_creation_method            fapswitch 2.2
_symmetry_space_group_name_H-M    P1
_symmetry_Int_Tables_number       1
_space_group_crystal_system       triclinic
_cell_length_a                    36.037358
_cell_length_b                    43.224885
_cell_length_c                    28.098247
_cell_angle_alpha                 89.999281
_cell_angle_beta                  129.851976
_cell_angle_gamma                 90.000611
_cell_volume                      33601.5250317

loop_
_atom_site_label
_atom_site_type_symbol
_atom_type_description
_atom_site_fract_x
_atom_site_fract_y
_atom_site_fract_z
_atom_type_partial_charge
C1    C     C_R   0.599737 0.250035 0.999969 0.501215
C2    C     C_R   0.470587 0.016125 0.943873 -0.112227
C3    C     C_R   0.799925 0.754910 0.667795 0.123310
C4    C     C_R   0.338085 0.778384 0.667648 0.122096
C5    C     C_R   0.700067 0.254946 0.332201 0.123366
C6    C     C_R   0.662107 0.778405 0.332360 0.122050
C7    C     C_R   0.299936 0.254951 0.667797 0.123338
C8    C     C_R   0.817874 0.250669 0.633877 0.031978
C9    C     C_R   0.183960 0.750734 0.366040 0.031686
C10   C     C_R   0.182132 0.250667 0.366123 0.031991
C11   C     C_R   0.816048 0.750743 0.633970 0.031688
C12   C     C_R   0.317882 0.750660 0.633891 0.031965
C13   C     C_R   0.470588 0.983875 0.943873 -0.112020
C14   C     C_R   0.683951 0.250747 0.366027 0.031676
C15   C     C_R   0.682128 0.750667 0.366120 0.031996
C16   C     C_R   0.316053 0.250744 0.633973 0.031676
C17   C     C_R   0.830168 0.222328 0.666149 0.263956
C18   C     C_R   0.134083 0.746128 0.333826 0.266714
C19   C     C_R   0.169829 0.222326 0.333851 0.263957
C20   C     C_R   0.865893 0.745974 0.666184 0.266733
C21   C     C_R   0.329953 0.722342 0.666165 0.263983
C22   C     C_R   0.634113 0.245942 0.333814 0.266738
C23   C     C_R   0.669874 0.722331 0.333849 0.263967
C24   C     C_R   0.529413 0.016125 0.056127 -0.112245
C25   C     C_R   0.365889 0.245934 0.666188 0.266733
C26   C     C_R   0.863408 0.222102 0.731047 0.120864
C27   C     C_R   0.101300 0.746853 0.268934 0.120350
C28   C     C_R   0.136587 0.222100 0.268953 0.120832
C29   C     C_R   0.898680 0.746696 0.731076 0.120256
C30   C     C_R   0.363195 0.722113 0.731063 0.120785
C31   C     C_R   0.601325 0.246664 0.268922 0.120268
C32   C     C_R   0.636633 0.722104 0.268951 0.120774
C33   C     C_R   0.398676 0.246656 0.731080 0.120236
C34   C     C_R   0.882075 0.249963 0.764089 -0.037594
C35   C     C_R   0.029412 0.483875 0.056127 -0.111987
C36   C     C_R   0.118002 0.750079 0.235851 -0.035904
C37   C     C_R   0.117927 0.249962 0.235911 -0.037600
C38   C     C_R   0.882000 0.750081 0.764156 -0.035786
C39   C     C_R   0.382080 0.749962 0.764099 -0.037478
C40   C     C_R   0.618000 0.250082 0.235843 -0.035732
C41   C     C_R   0.617925 0.749962 0.235909 -0.037554
C42   C     C_R   0.382001 0.250081 0.764157 -0.035755
C43   C     C_R   0.792879 0.232625 0.532559 0.136720
C44   C     C_R   0.211694 0.771159 0.467359 0.137450
C45   C     C_R   0.207121 0.232627 0.467441 0.136726
C46   C     C_R   0.970587 0.516125 0.943873 -0.112232
C47   C     C_R   0.788454 0.771059 0.532650 0.137435
C48   C     C_R   0.292738 0.732467 0.532573 0.136694
C49   C     C_R   0.711517 0.271038 0.467347 0.137449
C50   C     C_R   0.707147 0.732597 0.467438 0.136698
C51   C     C_R   0.288494 0.271030 0.532653 0.137440
C52   C     C_R   0.759710 0.231454 0.467777 0.245243
C53   C     C_R   0.242674 0.770413 0.532133 0.244881
C54   C     C_R   0.240290 0.231456 0.532223 0.245253
C55   C     C_R   0.757470 0.770306 0.467876 0.244889
C56   C     C_R   0.259559 0.731298 0.467790 0.245298
C57   C     C_R   0.970588 0.483875 0.943873 -0.112008
C58   C     C_R   0.742503 0.270284 0.532122 0.244885
C59   C     C_R   0.740317 0.731426 0.532220 0.245279
C60   C     C_R   0.257509 0.270276 0.467878 0.244889
C61   C     C_R   0.719059 0.251193 0.434641 -0.025147
C62   C     C_R   0.284089 0.751344 0.565275 -0.024940
C63   C     C_R   0.280946 0.251190 0.565359 -0.025146
C64   C     C_R   0.715925 0.751355 0.434735 -0.024918
C65   C     C_R   0.219070 0.751176 0.434654 -0.025137
C66   C     C_R   0.784075 0.251358 0.565262 -0.024929
C67   C     C_R   0.780941 0.751189 0.565356 -0.025139
C68   C     C_R   0.029413 0.516125 0.056126 -0.112249
C69   C     C_R   0.215932 0.251354 0.434738 -0.024925
C70   C     C_R   0.522903 0.615371 0.056022 0.227903
C71   C     C_R   0.523483 0.384906 0.982508 0.219737
C72   C     C_R   0.477087 0.615373 0.943970 0.227861
C73   C     C_R   0.476520 0.384906 0.017494 0.219709
C74   C     C_R   0.022806 0.115366 0.056003 0.227931
C75   C     C_R   0.023623 0.884899 0.982712 0.219749
C76   C     C_R   0.977189 0.115367 0.943995 0.227860
C77   C     C_R   0.976375 0.884898 0.017286 0.219733
C78   C     C_R   0.500000 0.334238 0.000000 0.530512
C79   C     C_R   0.500000 0.032534 1.000000 0.030527
C80   C     C_R   0.499999 0.665794 0.999999 0.576982
C81   C     C_R   0.000000 0.834236 1.000000 0.530596
C82   C     C_R   1.000000 0.165793 1.000000 0.576816
C83   C     C_R   0.522276 0.582848 0.055977 0.239857
C84   C     C_R   0.521553 0.417357 0.979893 0.222637
C85   C     C_R   0.477715 0.582850 0.944011 0.239852
C86   C     C_R   0.478448 0.417358 0.020105 0.222590
C87   C     C_R   0.022171 0.082844 0.055954 0.239842
C88   C     C_R   0.021703 0.917351 0.980102 0.222635
C89   C     C_R   0.977823 0.082844 0.944042 0.239828
C90   C     C_R   0.500000 0.967466 0.000000 0.030315
C91   C     C_R   0.978293 0.917350 0.019896 0.222608
C92   C     C_R   0.499995 0.566539 0.999994 -0.062644
C93   C     C_R   0.500000 0.433630 0.999997 -0.058444
C94   C     C_R   0.999996 0.066534 0.999998 -0.062643
C95   C     C_R   0.999997 0.933624 0.999998 -0.058443
C96   C     C_R   0.500000 0.165833 1.000000 0.502686
C97   C     C_R   0.500000 0.834167 0.000000 0.499426
C98   C     C_R   1.000000 0.665833 1.000000 0.502641
C99   C     C_R   0.000000 0.334166 0.000000 0.499471
C100  C     C_R   0.456394 0.884647 0.960089 -0.122816
C101  C     C_R   0.000000 0.532534 1.000000 0.030517
C102  C     C_R   0.543608 0.115352 0.039893 -0.124029
C103  C     C_R   0.543606 0.884647 0.039912 -0.122935
C104  C     C_R   0.456392 0.115352 0.960107 -0.124217
C105  C     C_R   0.956394 0.384647 0.960089 -0.122717
C106  C     C_R   0.043608 0.615352 0.039892 -0.124125
C107  C     C_R   0.043607 0.384647 0.039911 -0.122905
C108  C     C_R   0.956392 0.615352 0.960106 -0.124248
C109  C     C_R   0.456405 0.916900 0.960081 -0.120985
C110  C     C_R   0.543597 0.083099 0.039902 -0.122384
C111  C     C_R   0.543596 0.916900 0.039920 -0.121035
C112  C     C_R   0.400271 0.749981 0.000054 0.505470
C113  C     C_R   0.000000 0.467466 1.000000 0.030323
C114  C     C_R   0.456403 0.083099 0.960097 -0.122476
C115  C     C_R   0.956405 0.416900 0.960081 -0.120930
C116  C     C_R   0.043597 0.583099 0.039902 -0.122431
C117  C     C_R   0.043596 0.416900 0.039919 -0.121022
C118  C     C_R   0.956403 0.583099 0.960097 -0.122485
C119  C     C_R   0.500000 0.933310 0.000000 0.029462
C120  C     C_R   0.500000 0.066689 1.000000 0.029581
C121  C     C_R   0.000000 0.433310 0.000000 0.029445
C122  C     C_R   1.000000 0.566689 0.999999 0.029594
C123  C     C_R   0.499998 0.467703 0.999994 0.070286
C124  C     C_R   0.543841 0.516215 0.035081 -0.105333
C125  C     C_R   0.499996 0.532477 0.999993 0.048348
C126  C     C_R   0.999997 0.967696 0.999998 0.070261
C127  C     C_R   0.999996 0.032471 0.999998 0.048321
C128  C     C_R   0.500000 0.868230 0.000000 0.033908
C129  C     C_R   0.500000 0.131769 1.000000 0.033756
C130  C     C_R   0.000000 0.368230 0.000000 0.033899
C131  C     C_R   1.000000 0.631769 1.000000 0.033756
C132  C     C_3   0.767553 0.188603 0.620529 -0.117208
C133  C     C_3   0.118683 0.711233 0.379614 -0.123246
C134  C     C_3   0.232433 0.188593 0.379465 -0.117212
C135  C     C_R   0.456162 0.483972 0.964966 -0.097031
C136  C     C_3   0.881042 0.710894 0.620388 -0.123193
C137  C     C_3   0.267066 0.688842 0.620545 -0.117166
C138  C     C_3   0.619014 0.210825 0.379610 -0.123175
C139  C     C_3   0.732533 0.688644 0.379463 -0.117211
C140  C     C_3   0.380980 0.210808 0.620395 -0.123139
C141  C     C_3   0.747425 0.183197 0.428464 -0.102534
C142  C     C_3   0.204124 0.774077 0.571435 -0.101611
C143  C     C_3   0.252560 0.183200 0.571538 -0.102577
C144  C     C_3   0.796034 0.773695 0.428562 -0.101608
C145  C     C_3   0.246870 0.683001 0.428470 -0.102583
C146  C     C_R   0.456152 0.516213 0.964904 -0.105332
C147  C     C_3   0.703933 0.273612 0.571432 -0.101488
C148  C     C_3   0.752668 0.683163 0.571535 -0.102596
C149  C     C_3   0.296077 0.273594 0.428564 -0.101532
C150  C     C_3   0.524177 0.633525 0.133650 -0.041084
C151  C     C_3   0.595709 0.365933 0.017551 -0.067660
C152  C     C_3   0.475798 0.633534 0.866333 -0.040924
C153  C     C_3   0.404298 0.365933 0.982466 -0.067351
C154  C     C_3   0.023890 0.133525 0.133476 -0.041156
C155  C     C_3   0.095936 0.865909 0.018113 -0.067631
C156  C     C_3   0.976110 0.133524 0.866524 -0.040923
C157  C     C_R   0.543833 0.483973 0.035021 -0.097026
C158  C     C_3   0.904065 0.865903 0.981890 -0.067441
C159  C     C_3   0.512599 0.554744 0.116430 -0.120778
C160  C     C_3   0.508615 0.437410 0.895897 -0.091396
C161  C     C_3   0.487387 0.554752 0.883551 -0.120757
C162  C     C_3   0.491389 0.437413 0.104100 -0.091230
C163  C     C_3   0.012293 0.054747 0.116219 -0.120833
C164  C     C_3   0.009077 0.937403 0.896310 -0.091316
C165  C     C_3   0.987702 0.054750 0.883779 -0.120790
C166  C     C_3   0.990917 0.937400 0.103687 -0.091206
C167  C     C_3   0.762073 0.669812 0.024176 -0.109655
C168  C     C_R   0.043844 0.016208 0.035243 -0.105332
C169  C     C_3   0.236724 0.330193 0.973230 -0.111031
C170  C     C_3   0.232941 0.670723 0.965835 -0.109595
C171  C     C_3   0.770929 0.328540 0.042092 -0.111061
C172  C     C_3   0.263284 0.170004 0.026606 -0.109664
C173  C     C_3   0.737931 0.830386 0.975651 -0.110989
C174  C     C_3   0.729058 0.171660 0.958055 -0.109603
C175  C     C_3   0.267048 0.829475 0.034321 -0.111034
C176  C     C_3   0.818494 0.793833 0.136976 -0.103561
C177  C     C_3   0.182117 0.205336 0.864179 -0.104742
C178  C     C_3   0.184354 0.798014 0.868749 -0.103649
C179  C     C_R   0.956157 0.983965 0.964812 -0.097033
C180  C     C_3   0.813268 0.199018 0.126550 -0.105278
C181  C     C_3   0.317829 0.294862 0.135636 -0.103572
C182  C     C_3   0.681449 0.706367 0.862835 -0.104662
C183  C     C_3   0.686786 0.301182 0.873638 -0.103731
C184  C     C_3   0.315701 0.702185 0.131437 -0.104976
C185  C     C_R   0.956148 0.016207 0.964753 -0.105344
C186  C     C_R   0.043835 0.983966 0.035185 -0.097027
C187  C     C_R   0.499997 0.631652 0.999997 -0.043564
C188  C     C_R   0.400263 0.250034 0.000030 0.501052
C189  C     C_R   0.500001 0.368436 0.000000 -0.047925
C190  C     C_R   0.999998 0.131648 0.999999 -0.043662
C191  C     C_R   0.999999 0.868430 0.999999 -0.047857
C192  C     C_3   0.740599 0.721237 0.005669 0.266007
C193  C     C_3   0.258908 0.278902 0.993287 0.266161
C194  C     C_3   0.257603 0.721473 0.990730 0.265943
C195  C     C_3   0.743853 0.278449 0.012244 0.266131
C196  C     C_3   0.241037 0.221284 0.006546 0.265983
C197  C     C_3   0.759343 0.778950 0.994161 0.266167
C198  C     C_3   0.756200 0.221738 0.987919 0.265871
C199  C     C_R   0.599729 0.749981 0.999946 0.505386
C200  C     C_3   0.242451 0.778714 0.009434 0.266168
C201  C     C_3   0.289751 0.238065 0.055199 -0.172137
C202  C     C_3   0.710372 0.762539 0.945003 -0.173287
C203  C     C_3   0.709214 0.240778 0.942739 -0.172151
C204  C     C_3   0.290352 0.760806 0.056438 -0.173147
C205  C     C_3   0.789564 0.737649 0.054825 -0.172141
C206  C     C_3   0.210188 0.262122 0.944635 -0.173236
C207  C     C_3   0.209708 0.739382 0.943727 -0.172158
C208  C     C_3   0.790845 0.259410 0.057425 -0.173010
C209  C     C_1   0.360696 0.250001 0.000201 0.027899
C210  C     C_R   0.099737 0.750035 0.999969 0.501151
C211  C     C_1   0.639265 0.750076 0.999699 0.027390
C212  C     C_1   0.639303 0.250007 0.999797 0.028010
C213  C     C_1   0.360735 0.750071 0.000300 0.027412
C214  C     C_1   0.860695 0.750001 0.000200 0.027892
C215  C     C_1   0.139265 0.250075 0.999700 0.027390
C216  C     C_1   0.139304 0.750005 0.999798 0.027967
C217  C     C_1   0.860734 0.250068 0.000300 0.027418
C218  C     C_3   0.238807 0.232900 0.953105 0.265852
C219  C     C_3   0.761389 0.766932 0.047242 0.266409
C220  C     C_3   0.759432 0.230728 0.043360 0.266082
C221  C     C_R   0.900271 0.249981 0.000054 0.505507
C222  C     C_3   0.239702 0.768373 0.954946 0.266419
C223  C     C_3   0.738549 0.733257 0.952587 0.265819
C224  C     C_3   0.261134 0.267287 0.046729 0.266397
C225  C     C_3   0.260357 0.731814 0.045218 0.265985
C226  C     C_3   0.740626 0.269460 0.956802 0.266378
C227  C     C_3   0.287105 0.249900 0.000745 0.004701
C228  C     C_3   0.712833 0.750290 0.999092 0.004261
C229  C     C_3   0.712882 0.249937 0.999228 0.004697
C230  C     C_3   0.287172 0.750265 0.000920 0.004208
C231  C     C_3   0.787101 0.749895 0.000739 0.004697
C232  C     C_R   0.900263 0.750035 0.000030 0.501022
C233  C     C_3   0.212832 0.250284 0.999089 0.004250
C234  C     C_3   0.212890 0.749919 0.999243 0.004697
C235  C     C_3   0.787179 0.250247 0.000933 0.004169
C236  C     C_1   0.327460 0.249960 0.000420 0.021300
C237  C     C_1   0.672484 0.750177 0.999439 0.020368
C238  C     C_1   0.672535 0.249979 0.999570 0.021414
C239  C     C_1   0.327518 0.750165 0.000564 0.020374
C240  C     C_1   0.827458 0.749959 0.000417 0.021282
C241  C     C_1   0.172484 0.250175 0.999439 0.020370
C242  C     C_1   0.172538 0.749970 0.999576 0.021360
C243  C     C_R   0.099729 0.249981 0.999946 0.505388
C244  C     C_1   0.827520 0.250157 0.000568 0.020381
C245  C     C_R   0.415983 0.250003 0.831890 0.518627
C246  C     C_R   0.584135 0.749900 0.168133 0.524627
C247  C     C_R   0.584016 0.250003 0.168110 0.518544
C248  C     C_R   0.415866 0.749900 0.831869 0.524595
C249  C     C_R   0.915983 0.750004 0.831889 0.518583
C250  C     C_R   0.084136 0.249900 0.168134 0.524636
C251  C     C_R   0.084018 0.750003 0.168113 0.518474
C252  C     C_R   0.915864 0.249900 0.831866 0.524535
C253  C     C_R   0.868795 0.278033 0.732177 -0.164070
C254  C     C_R   0.529412 0.983875 0.056127 -0.112001
C255  C     C_R   0.167420 0.753682 0.267666 -0.162888
C256  C     C_R   0.131216 0.278033 0.267824 -0.164071
C257  C     C_R   0.832609 0.753847 0.732344 -0.162890
C258  C     C_R   0.369022 0.778016 0.732188 -0.164088
C259  C     C_R   0.667385 0.253882 0.267653 -0.162820
C260  C     C_R   0.631165 0.778030 0.267820 -0.164082
C261  C     C_R   0.332617 0.253888 0.732345 -0.162862
C262  C     C_R   0.837853 0.278410 0.667638 0.122063
C263  C     C_R   0.200112 0.754742 0.332214 0.123294
C264  C     C_R   0.162160 0.278408 0.332363 0.122058
F1    F     F_    0.876176 0.194724 0.761687 -0.148447
F2    F     F_    0.174420 0.791618 0.436489 -0.131660
F3    F     F_    0.166085 0.215462 0.436568 -0.132715
F4    F     F_    0.825872 0.791413 0.563519 -0.131669
F5    F     F_    0.333628 0.715153 0.563447 -0.132729
F6    F     F_    0.674069 0.291371 0.436481 -0.131641
F7    F     F_    0.666140 0.715403 0.436563 -0.132739
F8    F     F_    0.325949 0.291359 0.563520 -0.131653
F9    F     F_    0.828445 0.305829 0.638233 -0.144329
F10   F     F_    0.247378 0.760494 0.361566 -0.142694
F11   F     F_    0.171577 0.305828 0.361769 -0.144337
F12   F     F_    0.053322 0.743407 0.238310 -0.155115
F13   F     F_    0.752699 0.760822 0.638445 -0.142718
F14   F     F_    0.328894 0.805772 0.638243 -0.144333
F15   F     F_    0.747285 0.260892 0.361549 -0.142678
F16   F     F_    0.671479 0.805818 0.361764 -0.144348
F17   F     F_    0.252719 0.260902 0.638447 -0.142701
F18   F     F_    0.123810 0.194722 0.238312 -0.148466
F19   F     F_    0.946635 0.743093 0.761703 -0.155227
F20   F     F_    0.375760 0.694752 0.761712 -0.148494
F21   F     F_    0.553375 0.243026 0.238296 -0.155237
F22   F     F_    0.623902 0.694729 0.238311 -0.148553
F23   F     F_    0.446626 0.243013 0.761708 -0.155248
F24   F     F_    0.833910 0.215455 0.563432 -0.132718
H1    H     H_    0.577928 0.528523 0.062169 0.143080
H2    H     H_    0.577783 0.127408 0.071028 0.138374
H3    H     H_    0.613919 0.388778 0.036076 0.142294
H4    H     H_    0.600043 0.352266 0.054429 0.093230
H5    H     H_    0.614151 0.353067 0.003781 0.155798
H6    H     H_    0.515787 0.634912 0.903957 0.092897
H7    H     H_    0.464404 0.654990 0.838430 0.166372
H8    H     H_    0.466367 0.613860 0.835045 0.141619
H9    H     H_    0.385859 0.353070 0.996245 0.156810
H10   H     H_    0.399958 0.352264 0.945588 0.092894
H11   H     H_    0.386088 0.388778 0.963940 0.142191
H12   H     H_    0.983915 0.134909 0.095756 0.092264
H13   H     H_    0.577780 0.872592 0.071062 0.138934
H14   H     H_    0.035240 0.154979 0.161373 0.166255
H15   H     H_    0.033251 0.113849 0.164729 0.141537
H16   H     H_    0.114144 0.888748 0.036725 0.142259
H17   H     H_    0.100123 0.852232 0.054877 0.093006
H18   H     H_    0.114492 0.853047 0.004503 0.156353
H19   H     H_    0.016087 0.134897 0.904243 0.092771
H20   H     H_    0.964775 0.154983 0.838641 0.166352
H21   H     H_    0.966735 0.113853 0.835256 0.141598
H22   H     H_    0.885510 0.853043 0.995504 0.156934
H23   H     H_    0.899879 0.852223 0.945130 0.092777
H24   H     H_    0.422216 0.127407 0.928971 0.138090
H25   H     H_    0.885854 0.888742 0.963270 0.142176
H26   H     H_    0.480251 0.569718 0.095403 0.086953
H27   H     H_    0.530524 0.552044 0.166226 0.138913
H28   H     H_    0.501105 0.531347 0.095402 0.137762
H29   H     H_    0.477456 0.451470 0.882960 0.105361
H30   H     H_    0.495774 0.414846 0.871030 0.157391
H31   H     H_    0.525812 0.450219 0.880320 0.137388
H32   H     H_    0.498896 0.531358 0.904595 0.137740
H33   H     H_    0.519726 0.569732 0.904560 0.087053
H34   H     H_    0.469454 0.552045 0.833754 0.138966
H35   H     H_    0.922220 0.372591 0.928939 0.139259
H36   H     H_    0.522546 0.451475 0.117032 0.105294
H37   H     H_    0.504234 0.414850 0.128972 0.157543
H38   H     H_    0.474193 0.450221 0.119678 0.137468
H39   H     H_    0.979943 0.069731 0.095110 0.086856
H40   H     H_    0.030123 0.052036 0.165982 0.138889
H41   H     H_    0.000810 0.031354 0.095164 0.137740
H42   H     H_    0.977861 0.951461 0.883199 0.105317
H43   H     H_    0.996303 0.914840 0.871440 0.157495
H44   H     H_    0.026399 0.950216 0.880910 0.137409
H45   H     H_    0.999196 0.031360 0.904848 0.137724
H46   H     H_    0.077784 0.627408 0.071028 0.138242
H47   H     H_    0.020046 0.069739 0.904875 0.087042
H48   H     H_    0.969869 0.052032 0.834016 0.138935
H49   H     H_    0.022133 0.951459 0.116799 0.105277
H50   H     H_    0.003692 0.914836 0.128557 0.157618
H51   H     H_    0.973594 0.950211 0.119086 0.137450
H52   H     H_    0.796515 0.673406 0.072076 0.115198
H53   H     H_    0.768399 0.670593 0.990301 0.154914
H54   H     H_    0.748889 0.646262 0.022119 0.140368
H55   H     H_    0.230438 0.329701 0.007156 0.156170
H56   H     H_    0.202321 0.326237 0.925462 0.115940
H57   H     H_    0.077780 0.372592 0.071062 0.138985
H58   H     H_    0.249569 0.353744 0.974533 0.140193
H59   H     H_    0.198763 0.675802 0.918489 0.115321
H60   H     H_    0.226641 0.670442 0.999755 0.154769
H61   H     H_    0.244648 0.647157 0.964934 0.140527
H62   H     H_    0.777229 0.329683 0.008212 0.155934
H63   H     H_    0.804849 0.322307 0.088864 0.116693
H64   H     H_    0.760359 0.352041 0.045348 0.139840
H65   H     H_    0.297675 0.173960 0.074384 0.115247
H66   H     H_    0.269588 0.170525 0.992698 0.154896
H67   H     H_    0.250460 0.146441 0.025274 0.140383
H68   H     H_    0.922216 0.627407 0.928971 0.138045
H69   H     H_    0.731620 0.829633 0.009543 0.156178
H70   H     H_    0.703479 0.826791 0.927761 0.115805
H71   H     H_    0.751136 0.853924 0.977680 0.140304
H72   H     H_    0.695156 0.177895 0.911268 0.115429
H73   H     H_    0.722731 0.170545 0.991911 0.154698
H74   H     H_    0.739606 0.148145 0.954828 0.140624
H75   H     H_    0.273326 0.829784 0.000380 0.156034
H76   H     H_    0.301241 0.824397 0.081654 0.116284
H77   H     H_    0.255319 0.853029 0.035250 0.140012
H78   H     H_    0.829994 0.806045 0.113473 0.158603
H79   H     H_    0.422248 0.929021 0.929401 0.110481
H80   H     H_    0.842050 0.773470 0.163067 0.118557
H81   H     H_    0.823439 0.810106 0.171165 0.143831
H82   H     H_    0.158269 0.225503 0.837463 0.119026
H83   H     H_    0.170778 0.193314 0.888032 0.153434
H84   H     H_    0.177427 0.188800 0.830500 0.145111
H85   H     H_    0.173596 0.809470 0.893734 0.158109
H86   H     H_    0.159548 0.778503 0.840167 0.118876
H87   H     H_    0.180453 0.815317 0.836658 0.143770
H88   H     H_    0.838999 0.217808 0.157031 0.119131
H89   H     H_    0.823500 0.188201 0.100483 0.153139
H90   H     H_    0.577754 0.070977 0.070569 0.109361
H91   H     H_    0.816292 0.180940 0.156883 0.144248
H92   H     H_    0.329147 0.306891 0.111765 0.158449
H93   H     H_    0.341690 0.274699 0.162346 0.118677
H94   H     H_    0.322525 0.311395 0.169324 0.143852
H95   H     H_    0.657907 0.726734 0.836737 0.118968
H96   H     H_    0.669928 0.694163 0.886320 0.153506
H97   H     H_    0.676511 0.690090 0.828655 0.145244
H98   H     H_    0.676582 0.312008 0.899730 0.157681
H99   H     H_    0.661038 0.282397 0.843167 0.119128
H100  H     H_    0.683754 0.319256 0.843294 0.143752
H101  H     H_    0.577752 0.929021 0.070600 0.110413
H102  H     H_    0.340491 0.721700 0.160026 0.119071
H103  H     H_    0.326481 0.690736 0.106472 0.153286
H104  H     H_    0.319595 0.684878 0.163518 0.144692
H105  H     H_    0.422056 0.471673 0.937470 0.134833
H106  H     H_    0.422245 0.070977 0.929430 0.109227
H107  H     H_    0.922248 0.429021 0.929401 0.110561
H108  H     H_    0.077754 0.570977 0.070569 0.109303
H109  H     H_    0.077752 0.429021 0.070599 0.110435
H110  H     H_    0.922246 0.570977 0.929430 0.109219
H111  H     H_    0.551873 0.971757 0.100060 0.108124
H112  H     H_    0.448126 0.028244 0.899941 0.106619
H113  H     H_    0.448127 0.971757 0.899941 0.108116
H114  H     H_    0.551874 0.028243 0.100059 0.106609
H115  H     H_    0.051873 0.471757 0.100059 0.108138
H116  H     H_    0.422064 0.528521 0.937816 0.143079
H117  H     H_    0.948126 0.528244 0.899941 0.106617
H118  H     H_    0.948128 0.471757 0.899940 0.108121
H119  H     H_    0.051874 0.528243 0.100059 0.106615
H120  H     H_    0.322363 0.228411 0.099558 0.101407
H121  H     H_    0.677913 0.772529 0.900942 0.100815
H122  H     H_    0.675775 0.233304 0.896726 0.101945
H123  H     H_    0.323391 0.769400 0.101657 0.101085
H124  H     H_    0.822027 0.727662 0.098887 0.101291
H125  H     H_    0.177579 0.271779 0.900275 0.100890
H126  H     H_    0.176666 0.730790 0.898508 0.101666
H127  H     H_    0.577940 0.471676 0.062519 0.134833
H128  H     H_    0.824281 0.266887 0.103438 0.101280
H129  H     H_    0.883652 0.299626 0.757418 0.143027
H130  H     H_    0.180493 0.756635 0.242344 0.145519
H131  H     H_    0.116364 0.299626 0.242584 0.143031
H132  H     H_    0.819560 0.756924 0.757669 0.145331
H133  H     H_    0.384051 0.799596 0.757430 0.142804
H134  H     H_    0.680429 0.256985 0.242326 0.145283
H135  H     H_    0.616276 0.799621 0.242579 0.142968
H136  H     H_    0.319573 0.256995 0.757671 0.145291
H137  H     H_    0.739173 0.204538 0.583748 0.087246
H138  H     H_    0.077935 0.028515 0.062453 0.143142
H139  H     H_    0.770258 0.190059 0.662255 0.125730
H140  H     H_    0.756076 0.164726 0.602081 0.146935
H141  H     H_    0.156686 0.703789 0.416460 0.089580
H142  H     H_    0.100606 0.696163 0.337955 0.117557
H143  H     H_    0.099394 0.708104 0.398023 0.144013
H144  H     H_    0.260818 0.204526 0.416243 0.087248
H145  H     H_    0.229725 0.190045 0.337736 0.125737
H146  H     H_    0.243904 0.164715 0.397914 0.146933
H147  H     H_    0.842986 0.703550 0.583535 0.089570
H148  H     H_    0.899006 0.695834 0.662042 0.117562
H149  H     H_    0.922049 0.971667 0.937190 0.134880
H150  H     H_    0.900313 0.707625 0.601984 0.144024
H151  H     H_    0.238815 0.704831 0.583759 0.087235
H152  H     H_    0.269778 0.690406 0.662270 0.125691
H153  H     H_    0.255398 0.664978 0.602106 0.146936
H154  H     H_    0.657080 0.203499 0.416462 0.089567
H155  H     H_    0.601068 0.195768 0.337956 0.117572
H156  H     H_    0.599749 0.207527 0.398019 0.144017
H157  H     H_    0.760892 0.704590 0.416237 0.087246
H158  H     H_    0.729821 0.690115 0.337732 0.125741
H159  H     H_    0.744046 0.664770 0.397916 0.146921
H160  H     H_    0.922056 0.028514 0.937543 0.143106
H161  H     H_    0.342912 0.203486 0.583542 0.089550
H162  H     H_    0.398920 0.195752 0.662050 0.117563
H163  H     H_    0.400246 0.207504 0.601990 0.144046
H164  H     H_    0.707375 0.184920 0.394237 0.091750
H165  H     H_    0.759370 0.173220 0.472904 0.131447
H166  H     H_    0.758669 0.166906 0.409291 0.153371
H167  H     H_    0.224464 0.755061 0.605669 0.094105
H168  H     H_    0.170501 0.765023 0.526993 0.131229
H169  H     H_    0.193120 0.790585 0.590593 0.154532
H170  H     H_    0.292611 0.184919 0.605767 0.091755
H171  H     H_    0.077944 0.971669 0.062806 0.134887
H172  H     H_    0.240614 0.173222 0.527099 0.131448
H173  H     H_    0.241311 0.166913 0.590710 0.153319
H174  H     H_    0.775554 0.754702 0.394312 0.094114
H175  H     H_    0.829591 0.764576 0.472995 0.131194
H176  H     H_    0.807160 0.790107 0.409415 0.154479
H177  H     H_    0.206833 0.684860 0.394238 0.091748
H178  H     H_    0.258725 0.673085 0.472909 0.131444
H179  H     H_    0.257976 0.666592 0.409305 0.153326
H180  H     H_    0.724436 0.254620 0.605680 0.094085
H181  H     H_    0.670385 0.264485 0.526998 0.131206
H182  H     H_    0.422220 0.872591 0.928938 0.139115
H183  H     H_    0.692783 0.290003 0.590585 0.154577
H184  H     H_    0.792717 0.684909 0.605763 0.091756
H185  H     H_    0.740738 0.673196 0.527095 0.131452
H186  H     H_    0.741448 0.666852 0.590705 0.153302
H187  H     H_    0.275565 0.254605 0.394313 0.094097
H188  H     H_    0.329621 0.264462 0.472996 0.131212
H189  H     H_    0.307233 0.289982 0.409414 0.154509
H190  H     H_    0.484188 0.634897 0.096021 0.092558
H191  H     H_    0.535560 0.654982 0.161547 0.166374
H192  H     H_    0.533613 0.613852 0.164941 0.141587
O1    O     O_3   0.500000 0.250020 0.000000 -0.454121
O2    O     O_R   0.899640 0.268150 0.963690 -0.529268
O3    O     O_3   0.267305 0.712245 0.090521 -0.558887
O4    O     O_R   0.899640 0.731850 0.963690 -0.534860
O5    O     O_R   0.100360 0.268150 0.036310 -0.529941
O6    O     O_R   0.452240 0.268200 0.861400 -0.516583
O7    O     O_R   0.547760 0.731800 0.138600 -0.523934
O8    O     O_R   0.547760 0.268200 0.138600 -0.516531
O9    O     O_R   0.452240 0.731800 0.861400 -0.524004
O10   O     O_R   0.952240 0.768200 0.861400 -0.516581
O11   O     O_R   0.047760 0.231800 0.138600 -0.523872
O12   O     O_R   0.047760 0.768200 0.138600 -0.516459
O13   O     O_3   0.500000 0.749980 0.000000 -0.447465
O14   O     O_R   0.952240 0.231800 0.861400 -0.523867
O15   O     O_R   0.503360 0.319320 0.963650 -0.503086
O16   O     O_R   0.496640 0.680680 0.036350 -0.522062
O17   O     O_R   0.496640 0.319320 0.036350 -0.502975
O18   O     O_R   0.503360 0.680680 0.963650 -0.522011
O19   O     O_R   0.003360 0.819320 0.963650 -0.503107
O20   O     O_R   0.996640 0.180680 0.036350 -0.522052
O21   O     O_R   0.996640 0.819320 0.036350 -0.503015
O22   O     O_R   0.003360 0.180680 0.963650 -0.521921
O23   O     O_R   0.539730 0.180720 0.036330 -0.544272
O24   O     O_3   0.000000 0.750020 0.000000 -0.454117
O25   O     O_R   0.460270 0.819280 0.963670 -0.547284
O26   O     O_R   0.460270 0.180720 0.963670 -0.544478
O27   O     O_R   0.539730 0.819280 0.036330 -0.547420
O28   O     O_R   0.039730 0.680720 0.036330 -0.544358
O29   O     O_R   0.960270 0.319280 0.963670 -0.547191
O30   O     O_R   0.960270 0.680720 0.963670 -0.544495
O31   O     O_R   0.039730 0.319280 0.036330 -0.547398
O32   O     O_R   0.409160 0.231870 0.861420 -0.542423
O33   O     O_R   0.590840 0.768130 0.138580 -0.539220
O34   O     O_R   0.590840 0.231870 0.138580 -0.542480
O35   O     O_3   0.000000 0.249980 0.000000 -0.447470
O36   O     O_R   0.409160 0.768130 0.861420 -0.539196
O37   O     O_R   0.909160 0.731870 0.861420 -0.542446
O38   O     O_R   0.090840 0.268130 0.138580 -0.539233
O39   O     O_R   0.090840 0.731870 0.138580 -0.542546
O40   O     O_R   0.909160 0.268130 0.861420 -0.539293
O41   O     O_R   0.564010 0.268190 0.963640 -0.529412
O42   O     O_R   0.435990 0.731810 0.036360 -0.544562
O43   O     O_R   0.435990 0.268190 0.036360 -0.528673
O44   O     O_R   0.564010 0.731810 0.963640 -0.544063
O45   O     O_R   0.064010 0.768190 0.963640 -0.528958
O46   O     O_R   0.600360 0.231850 0.036310 -0.534049
O47   O     O_R   0.935990 0.231810 0.036360 -0.544997
O48   O     O_R   0.935990 0.768190 0.036360 -0.528468
O49   O     O_R   0.064010 0.231810 0.963640 -0.544208
O50   O     O_3   0.812222 0.194466 0.634880 -0.537044
O51   O     O_3   0.116494 0.742751 0.365143 -0.535931
O52   O     O_3   0.187768 0.194463 0.365119 -0.537064
O53   O     O_3   0.883459 0.742435 0.634867 -0.535917
O54   O     O_3   0.311782 0.694492 0.634902 -0.537023
O55   O     O_3   0.616553 0.242370 0.365133 -0.535915
O56   O     O_3   0.687860 0.694471 0.365118 -0.537085
O57   O     O_R   0.399640 0.768150 0.963690 -0.529606
O58   O     O_3   0.383450 0.242355 0.634872 -0.535883
O59   O     O_3   0.768956 0.212167 0.437200 -0.521663
O60   O     O_3   0.233590 0.789850 0.562702 -0.522722
O61   O     O_3   0.231037 0.212174 0.562799 -0.521688
O62   O     O_3   0.766685 0.789628 0.437307 -0.522724
O63   O     O_3   0.268643 0.711871 0.437217 -0.521720
O64   O     O_3   0.733259 0.289580 0.562692 -0.522714
O65   O     O_3   0.731099 0.712117 0.562795 -0.521727
O66   O     O_3   0.266758 0.289568 0.437309 -0.522723
O67   O     O_3   0.550009 0.631407 0.111641 -0.513463
O68   O     O_R   0.399640 0.231850 0.963690 -0.534729
O69   O     O_3   0.546579 0.369401 0.964935 -0.518598
O70   O     O_3   0.449974 0.631411 0.888352 -0.513478
O71   O     O_3   0.453430 0.369401 0.035076 -0.518268
O72   O     O_3   0.049832 0.131400 0.111621 -0.513308
O73   O     O_3   0.046859 0.869392 0.965344 -0.518493
O74   O     O_3   0.950167 0.131402 0.888377 -0.513429
O75   O     O_3   0.953141 0.869389 0.034658 -0.518254
O76   O     O_3   0.546441 0.567404 0.111930 -0.534146
O77   O     O_3   0.543197 0.433173 0.960585 -0.553568
O78   O     O_3   0.453547 0.567408 0.888057 -0.534139
O79   O     O_R   0.600360 0.768150 0.036310 -0.530049
O80   O     O_3   0.456805 0.433174 0.039414 -0.553538
O81   O     O_3   0.046230 0.067400 0.111889 -0.534152
O82   O     O_3   0.043504 0.933167 0.961012 -0.553551
O83   O     O_3   0.953764 0.067401 0.888108 -0.534186
O84   O     O_3   0.956491 0.933164 0.038984 -0.553537
O85   O     O_3   0.726902 0.691409 0.009702 -0.560755
O86   O     O_3   0.272189 0.308684 0.988348 -0.564022
O87   O     O_3   0.269440 0.691830 0.982973 -0.560771
O88   O     O_3   0.733434 0.307853 0.022913 -0.564513
O89   O     O_3   0.227791 0.191490 0.011487 -0.560777
O90   O     O_R   0.100360 0.731850 0.036310 -0.534400
O91   O     O_3   0.773076 0.808766 0.990127 -0.563889
O92   O     O_3   0.766583 0.192323 0.977246 -0.560801
O93   O     O_3   0.230579 0.808344 0.017189 -0.564250
O94   O     O_3   0.769513 0.785057 0.094903 -0.560443
O95   O     O_3   0.230966 0.214419 0.906003 -0.558975
O96   O     O_3   0.232745 0.787944 0.909640 -0.560395
O97   O     O_3   0.765391 0.210068 0.086680 -0.558787
O98   O     O_3   0.268982 0.285771 0.093835 -0.560427
O99   O     O_3   0.730433 0.715134 0.904930 -0.559009
O100  O     O_3   0.734658 0.290122 0.913479 -0.560330
Zn1   Zn    Zn3+2 0.443260 0.224070 0.948090 0.943434
Zn2   Zn    Zn3+2 0.495180 0.724020 0.051930 0.963007
Zn3   Zn    Zn3+2 0.495180 0.275980 0.051930 0.973503
Zn4   Zn    Zn3+2 0.504820 0.724020 0.948070 0.963244
Zn5   Zn    Zn3+2 0.004820 0.775980 0.948070 0.973321
Zn6   Zn    Zn3+2 0.995180 0.224020 0.051930 0.962752
Zn7   Zn    Zn3+2 0.995180 0.775980 0.051930 0.973628
Zn8   Zn    Zn3+2 0.004820 0.224020 0.948070 0.963185
Zn9   Zn    Zn3+2 0.556740 0.775930 0.051910 0.948367
Zn10  Zn    Zn3+2 0.556740 0.224070 0.051910 0.943908
Zn11  Zn    Zn3+2 0.443260 0.775930 0.948090 0.948689
Zn12  Zn    Zn3+2 0.943260 0.724070 0.948090 0.943288
Zn13  Zn    Zn3+2 0.056740 0.275930 0.051910 0.948467
Zn14  Zn    Zn3+2 0.056740 0.724070 0.051910 0.943587
Zn15  Zn    Zn3+2 0.943260 0.275930 0.948090 0.948899
Zn16  Zn    Zn3+2 0.504820 0.275980 0.948070 0.973086

loop_
_geom_bond_atom_site_label_1
_geom_bond_atom_site_label_2
_ccdc_geom_bond_type
C106  H46   S    
C152  O70   S    
C194  O87   S    
C42   C245  S    
C75   O73   S    
O33   Zn9   S    
C194  C230  S    
C117  H109  S    
C5    F15   S    
C6    F16   S    
C219  C228  S    
C44   C65   A    
C28   F18   S    
C112  O57   A    
C210  O90   A    
C206  C233  S    
C50   C59   A    
C184  H104  S    
C125  C146  A    
O90   Zn14  S    
O43   Zn3   S    
C38   C249  S    
C54   C63   A    
C162  H36   S    
C87   C94   A    
C112  O42   A    
C247  O34   A    
C4    F14   S    
C195  C229  S    
C53   O60   S    
C175  H77   S    
C89   C94   A    
O35   Zn6   S    
C108  C131  A    
C74   C190  A    
C103  H13   S    
C150  H192  S    
C44   C53   A    
O9    Zn4   S    
C77   C91   A    
C11   C67   S    
C139  H157  S    
C98   C131  S    
O49   Zn8   S    
C23   O56   S    
C211  C237  T    
C137  H151  S    
O1    Zn10  S    
C87   O81   S    
C178  H85   S    
C252  O14   A    
O2    Zn15  S    
C176  O94   S    
C73   O71   S    
C70   O67   S    
C136  O53   S    
O44   Zn4   S    
C88   C95   A    
C100  C109  A    
C246  O33   A    
C24   H114  S    
C110  H90   S    
C1    C212  S    
C98   O28   A    
C181  O98   S    
C158  H22   S    
O6    Zn16  S    
C247  O8    A    
C256  C264  A    
C143  H170  S    
C219  O94   S    
C199  O79   A    
C186  H171  S    
C114  H106  S    
C201  H120  S    
C217  C221  S    
C11   C20   A    
C36   C255  A    
C45   C69   A    
C84   O77   S    
O1    Zn1   S    
C46   H117  S    
C68   C101  A    
C136  H150  S    
C182  H97   S    
O5    Zn13  S    
C25   O58   S    
C172  H66   S    
C253  H129  S    
C145  H179  S    
C41   C260  A    
C214  C240  T    
C224  C233  S    
C108  C118  A    
C138  O55   S    
C12   C62   S    
C96   O26   A    
C263  F10   S    
C79   C120  S    
C173  H70   S    
C164  O82   S    
C58   O64   S    
C24   C254  A    
C136  H147  S    
C154  O72   S    
C254  H111  S    
C156  O74   S    
C132  H139  S    
O45   Zn5   S    
C104  C129  A    
C34   C253  A    
O35   Zn15  S    
C169  H55   S    
C165  H48   S    
C223  C231  S    
C140  H161  S    
C153  H9    S    
C16   C25   A    
C201  C227  S    
C250  O38   A    
C223  O99   S    
C152  H8    S    
C151  H5    S    
C182  H96   S    
C202  C223  S    
C93   C123  S    
C192  C223  S    
C57   C113  A    
C140  H162  S    
C164  H43   S    
C133  H142  S    
C101  C122  S    
C52   C61   A    
C249  O37   A    
C168  H138  S    
C171  H64   S    
C132  H137  S    
C83   O76   S    
O10   Zn5   S    
O24   Zn5   S    
C150  H190  S    
C162  H37   S    
C170  H60   S    
C181  H93   S    
C154  H15   S    
C43   C66   A    
C177  H83   S    
C35   C113  A    
C144  H174  S    
C84   C93   A    
C9    C65   S    
C3    C11   A    
C167  H53   S    
O41   Zn16  S    
C39   C248  S    
C10   C69   S    
C45   F3    S    
C164  H42   S    
O57   Zn11  S    
C159  O76   S    
C111  H101  S    
C204  C225  S    
C221  O2    A    
C55   O62   S    
C147  H180  S    
C96   C129  S    
C181  H92   S    
C115  C121  A    
C41   C246  S    
C49   C58   A    
O40   Zn15  S    
O13   Zn11  S    
C192  C205  S    
O1    Zn3   S    
C60   O66   S    
C19   O52   S    
C5    C259  A    
C92   C125  S    
C72   C85   A    
O4    Zn12  S    
C160  H30   S    
C35   H115  S    
C94   C127  S    
C134  H146  S    
C194  C207  S    
C149  H189  S    
C220  C229  S    
C147  O64   S    
C174  H74   S    
C194  C225  S    
C6    C260  A    
C86   C93   A    
C232  O4    A    
C32   F22   S    
C198  C235  S    
C43   C52   A    
C3    F13   S    
C148  H184  S    
C111  C119  A    
C18   O51   S    
C118  C122  A    
C81   C191  S    
C59   C67   A    
C142  H168  S    
C256  H131  S    
C195  C208  S    
C155  H17   S    
O30   Zn12  S    
C118  H110  S    
C29   C38   A    
O35   Zn13  S    
C176  H78   S    
C32   C41   A    
C182  O99   S    
C74   C87   A    
C170  H61   S    
C197  O91   S    
C206  H125  S    
C137  H153  S    
C7    F17   S    
C172  O89   S    
C153  H11   S    
C138  H155  S    
C90   C254  A    
C154  H12   S    
O38   Zn13  S    
C51   F8    S    
C230  C239  S    
C143  H173  S    
C78   C189  S    
C42   C261  A    
O16   Zn2   S    
C85   C92   A    
C80   O18   A    
C167  H52   S    
C199  C211  S    
C193  O86   S    
C216  C242  T    
C156  H19   S    
C158  O75   S    
C168  C186  A    
C195  O88   S    
C163  H39   S    
C158  H25   S    
C171  H62   S    
C76   C190  A    
C193  C227  S    
O24   Zn7   S    
C202  C228  S    
C123  C157  A    
C184  O3    S    
C174  O92   S    
C3    C257  A    
C123  C135  A    
C231  C240  S    
C144  H176  S    
C75   C191  A    
C72   C187  A    
C103  C128  A    
C39   C258  A    
C24   C79   A    
C48   C62   A    
C200  C204  S    
C37   C256  A    
C197  C202  S    
C166  H50   S    
O37   Zn12  S    
C19   C28   A    
C203  H122  S    
C100  H182  S    
C167  O85   S    
C234  C242  S    
C192  O85   S    
C127  C185  A    
C161  H34   S    
C176  H80   S    
C205  C231  S    
C4    C12   A    
C40   C247  S    
O68   Zn1   S    
C43   F24   S    
C71   O69   S    
C155  O73   S    
C205  C219  S    
C99   O31   A    
C100  C128  A    
C165  H45   S    
O31   Zn13  S    
O22   Zn8   S    
C48   F5    S    
C105  C130  A    
C178  O96   S    
C180  H89   S    
C14   C22   A    
C207  H126  S    
C143  H172  S    
C217  C244  T    
C197  C219  S    
C95   C126  S    
C141  H165  S    
C28   C37   A    
C104  H24   S    
C163  H40   S    
C7    C261  A    
C148  H185  S    
O46   Zn10  S    
C205  H124  S    
O24   Zn14  S    
C245  O32   A    
C73   C189  A    
C137  O54   S    
C166  O84   S    
C91   C95   A    
O24   Zn12  S    
C81   O21   A    
C139  O56   S    
O39   Zn14  S    
C113  C121  S    
C50   F7    S    
C222  C230  S    
O25   Zn11  S    
C22   O55   S    
O18   Zn4   S    
C51   C60   A    
C196  C201  S    
C178  H86   S    
C149  H188  S    
C212  C238  T    
C178  H87   S    
C259  H134  S    
C25   C33   A    
C52   O59   S    
O7    Zn2   S    
C163  O81   S    
C156  H21   S    
C146  H116  S    
C13   C90   A    
O48   Zn7   S    
C158  H23   S    
C140  H163  S    
C214  C232  S    
C57   H118  S    
C82   O20   A    
O23   Zn10  S    
C227  C236  S    
C116  C122  A    
C249  O10   A    
C86   O80   S    
C107  C130  A    
C37   C250  S    
C98   O30   A    
C31   C40   A    
C103  C111  A    
C175  H76   S    
C2    C79   A    
C108  H68   S    
C202  H121  S    
C140  O58   S    
C127  C168  A    
C15   C64   S    
C59   O65   S    
C16   C63   S    
C136  H148  S    
C183  H98   S    
C49   F6    S    
C80   O16   A    
C74   O72   S    
C99   O29   A    
C68   H119  S    
C248  O36   A    
C76   O74   S    
C165  H47   S    
C31   F21   S    
C174  H72   S    
C210  O45   A    
O19   Zn5   S    
C105  C115  A    
C56   O63   S    
C197  C231  S    
C106  C131  A    
C180  H91   S    
C49   C61   A    
C252  O40   A    
C77   C191  A    
C126  C186  A    
C184  H103  S    
C51   C63   A    
C124  H1    S    
C44   F2    S    
C173  H71   S    
C72   O70   S    
C153  H10   S    
C135  H105  S    
C106  C116  A    
C179  H149  S    
C161  H32   S    
C171  H63   S    
O34   Zn10  S    
C133  H143  S    
C150  H191  S    
C162  H38   S    
C204  H123  S    
C10   C19   A    
C139  H158  S    
C124  C157  A    
C152  H7    S    
C17   O50   S    
C126  C179  A    
C137  H152  S    
C141  H166  S    
C153  O71   S    
O13   Zn9   S    
C70   C83   A    
C208  C235  S    
C5    C14   A    
C134  H144  S    
C148  H186  S    
O42   Zn2   S    
C7    C16   A    
C147  H183  S    
C109  H79   S    
O8    Zn3   S    
C169  O86   S    
C102  C110  A    
C225  C234  S    
C159  H27   S    
C171  O88   S    
C109  C119  A    
C149  H187  S    
C262  F9    S    
C33   C42   A    
O15   Zn16  S    
C141  O59   S    
C99   C130  S    
C142  O60   S    
C200  C234  S    
C159  H28   S    
C196  C218  S    
C232  O48   A    
C143  O61   S    
C179  C185  A    
C27   C36   A    
C132  H140  S    
C160  O77   S    
C243  O49   A    
C215  C243  S    
C221  O47   A    
C77   O75   S    
C200  C222  S    
C23   C32   A    
C183  O100  S    
C81   O19   A    
C209  C236  T    
C228  C237  S    
C90   C119  S    
C133  H141  S    
C245  O6    A    
C210  C216  S    
C180  H88   S    
C218  C227  S    
C85   O78   S    
C151  H3    S    
O26   Zn1   S    
C235  C244  S    
C208  H128  S    
C78   O17   A    
C142  H169  S    
O47   Zn6   S    
C198  C203  S    
C105  H35   S    
C169  H56   S    
C163  H41   S    
C76   C89   A    
C97   O25   A    
C1    O46   A    
C116  H108  S    
C229  C238  S    
C107  H57   S    
C107  C117  A    
C203  C226  S    
C114  C120  A    
C27   F12   S    
C253  C262  A    
C208  C220  S    
C138  H156  S    
C8    C66   S    
C150  O67   S    
O1    Zn16  S    
C50   C64   A    
C182  H95   S    
C102  C129  A    
C132  O50   S    
C177  H84   S    
C250  O11   A    
O29   Zn15  S    
C206  C218  S    
C161  O78   S    
C156  H20   S    
C173  H69   S    
C20   C29   A    
C47   F4    S    
C17   C26   A    
C60   C69   A    
C115  H107  S    
C196  O89   S    
C151  H4    S    
C181  H94   S    
C154  H14   S    
C56   C65   A    
C200  O93   S    
C36   C251  S    
C2    H112  S    
C185  H160  S    
O14   Zn8   S    
C188  C209  S    
C261  H136  S    
C8    C17   A    
C2    C13   A    
C117  C121  A    
C149  O66   S    
C167  H54   S    
C188  O68   A    
C6    C15   A    
C151  O69   S    
C58   C66   A    
C257  H132  S    
C176  H81   S    
C147  H181  S    
C155  H16   S    
C30   C39   A    
O20   Zn6   S    
C46   C101  A    
C166  H51   S    
C21   C30   A    
C145  H177  S    
C198  O92   S    
C246  O7    A    
C102  H2    S    
C26   F1    S    
C135  C146  A    
C15   C23   A    
C161  H33   S    
C21   O54   S    
C82   C190  S    
O13   Zn2   S    
O28   Zn14  S    
C148  O65   S    
C159  H26   S    
C47   C67   A    
C225  O3    S    
C40   C259  A    
C26   C34   A    
C160  H29   S    
C177  H82   S    
C255  H130  S    
C183  H99   S    
C218  O95   S    
C193  C224  S    
C134  H145  S    
C145  O63   S    
C172  H67   S    
C215  C241  T    
C264  F11   S    
C162  O80   S    
C22   C31   A    
C172  H65   S    
C174  H73   S    
C33   F23   S    
C1    O41   A    
O36   Zn11  S    
C170  H59   S    
C110  C120  A    
C203  C229  S    
C173  O91   S    
C14   C61   S    
C164  H44   S    
C12   C21   A    
C71   C189  A    
C226  C235  S    
C251  O39   A    
C175  O93   S    
C152  H6    S    
C88   O82   S    
C78   O15   A    
C133  O51   S    
C134  O52   S    
C142  H167  S    
C9    C18   A    
C258  H133  S    
C155  H18   S    
C13   H113  S    
C29   F19   S    
C55   C64   A    
C30   F20   S    
C169  H58   S    
O17   Zn3   S    
C248  O9    A    
C226  O100  S    
C97   O27   A    
C196  C233  S    
C183  H100  S    
C54   O61   S    
O35   Zn8   S    
C199  O44   A    
O21   Zn7   S    
C70   C187  A    
O11   Zn6   S    
C53   C62   A    
C104  C114  A    
C233  C241  S    
C138  H154  S    
C45   C54   A    
O12   Zn7   S    
C139  H159  S    
C89   O83   S    
C46   C57   A    
C170  O87   S    
O79   Zn9   S    
C8    C262  A    
C251  O12   A    
C38   C257  A    
C184  H102  S    
O27   Zn9   S    
C47   C55   A    
C71   C84   A    
C48   C56   A    
O32   Zn1   S    
C4    C258  A    
C193  C206  S    
C195  C226  S    
C198  C220  S    
C18   C27   A    
C255  C263  A    
C213  C239  T    
C177  O95   S    
C180  O97   S    
C96   O23   A    
C260  H135  S    
C144  H175  S    
C91   O84   S    
C224  O98   S    
C157  H127  S    
C20   O53   S    
C112  C213  S    
C35   C68   A    
C9    C263  A    
C80   C187  S    
C10   C264  A    
C175  H75   S    
C166  H49   S    
C204  C230  S    
C165  O83   S    
C222  O96   S    
C73   C86   A    
C243  O5    A    
C82   O22   A    
C188  O43   A    
C144  O62   S    
C75   C88   A    
C192  C228  S    
C207  C234  S    
C207  C222  S    
C83   C92   A    
C220  O97   S    
C145  H178  S    
O13   Zn4   S    
C34   C252  S    
C201  C224  S    
C97   C128  S    
C141  H164  S    
C160  H31   S    
C124  C125  A    
