data_mof_unit_42922.cif
_audit_creation_date              2012-12-10T18:01:17-0500
_audit_creation_method            fapswitch 2.2
_symmetry_space_group_name_H-M    P1
_symmetry_Int_Tables_number       1
_space_group_crystal_system       triclinic
_cell_length_a                    9.54528
_cell_length_b                    10.892544
_cell_length_c                    17.379465
_cell_angle_alpha                 91.48281
_cell_angle_beta                  86.768789
_cell_angle_gamma                 89.612105
_cell_volume                      1803.44622166

loop_
_atom_site_label
_atom_site_type_symbol
_atom_type_description
_atom_site_fract_x
_atom_site_fract_y
_atom_site_fract_z
_atom_type_partial_charge
C1    C     C_R   0.498947 0.737723 0.498451 0.831028
C2    C     C_R   0.501201 0.262130 0.500979 0.849557
C3    C     C_R   0.623302 0.932644 0.505703 -0.200022
C4    C     C_R   0.377262 0.066774 0.493054 -0.202303
C5    C     C_R   0.629211 0.059449 0.507534 0.197977
C6    C     C_R   0.372017 0.939948 0.489293 0.187457
C7    C     C_R   0.504101 0.128163 0.501195 -0.129103
C8    C     C_R   0.496514 0.871448 0.497339 -0.131731
C9    C     C_R   0.922363 0.573988 0.550902 0.270878
C10   C     C_R   0.077515 0.424703 0.449875 0.298461
C11   C     C_R   0.070319 0.573348 0.550389 -0.039043
C12   C     C_R   0.929704 0.426988 0.449447 -0.035540
C13   C     C_R   0.482743 0.498319 0.649445 0.854365
C14   C     C_R   0.517231 0.509345 0.350484 0.846762
C15   C     C_R   0.477878 0.505437 0.733035 -0.121864
C16   C     C_R   0.527333 0.528679 0.266775 -0.109452
C17   C     C_R   0.574343 0.438034 0.773367 0.060876
C18   C     C_R   0.408897 0.525057 0.221273 0.074619
C19   C     C_R   0.594277 0.468152 0.850924 0.455871
C20   C     C_R   0.430932 0.513505 0.140149 0.427475
C21   C     C_R   0.500752 0.552863 0.890920 0.040343
C22   C     C_R   0.563253 0.546679 0.106915 0.069465
C23   C     C_R   0.399191 0.613587 0.850301 -0.230340
C24   C     C_R   0.674768 0.571345 0.153108 -0.237418
C25   C     C_R   0.389816 0.592186 0.771758 -0.211723
C26   C     C_R   0.659413 0.554640 0.231751 -0.203225
C27   C     C_2   0.490378 0.571059 0.975519 -0.133303
C28   C     C_2   0.591435 0.544821 0.022954 -0.114176
Cu1   Cu    Cu3+1 0.359340 0.499980 0.500000 1.020421
Cu2   Cu    Cu3+1 0.640660 0.500020 0.500000 1.015286
H1    H     H_    0.750760 0.565735 0.265446 0.187430
H2    H     H_    0.315076 0.644650 0.741003 0.169681
H3    H     H_    0.697566 0.524933 0.001786 0.170867
H4    H     H_    0.390674 0.606001 0.000699 0.139164
H5    H     H_    0.326860 0.678808 0.879543 0.157970
H6    H     H_    0.776230 0.596644 0.127526 0.156308
H7    H     H_    0.719890 0.881720 0.510968 0.213572
H8    H     H_    0.280444 0.117423 0.488439 0.213595
H9    H     H_    0.123279 0.632043 0.590470 0.158753
H10   H     H_    0.876758 0.368280 0.409375 0.165400
N1    N     N_R   0.147930 0.499970 0.499980 -0.191562
N2    N     N_R   0.852070 0.500030 0.500020 -0.193738
O1    O     O_R   0.381260 0.680340 0.500000 -0.560926
O2    O     O_R   0.618740 0.319660 0.500000 -0.556630
O3    O     O_R   0.618830 0.680370 0.500010 -0.573225
O4    O     O_R   0.381170 0.319630 0.499990 -0.571175
O5    O     O_R   0.367440 0.500000 0.613600 -0.598067
O6    O     O_R   0.632560 0.500000 0.386400 -0.603047
O7    O     O_R   0.605010 0.500030 0.613600 -0.542547
O8    O     O_R   0.394990 0.499970 0.386400 -0.530137
I1    I     I_    0.680723 0.281087 0.721031 -0.280966
I2    I     I_    0.213915 0.601326 0.269156 -0.371623
O9    O     O_3   0.356373 0.428642 0.097542 -0.596421
C29   C     C_3   0.212385 0.456383 0.094537 0.036386
H11   H     H_    0.186253 0.450691 0.033139 0.159014
H12   H     H_    0.183233 0.551588 0.113707 0.148407
C30   C     C_3   0.127191 0.358132 0.137420 -0.275746
H13   H     H_    0.137662 0.269542 0.104314 0.222596
H14   H     H_    0.169426 0.344222 0.194728 0.263540
C31   C     C_3   0.972575 0.393053 0.148447 -0.884260
H15   H     H_    0.960234 0.477647 0.185145 0.270484
H16   H     H_    0.913934 0.317972 0.177487 0.274271
H17   H     H_    0.927716 0.408630 0.091997 0.241417
O10   O     O_3   0.698753 0.408220 0.887566 -0.597508
C32   C     C_3   0.829532 0.462129 0.865751 0.038837
H18   H     H_    0.836191 0.555837 0.892351 0.129966
H19   H     H_    0.845581 0.470577 0.802098 0.178095
C33   C     C_3   0.948204 0.382265 0.893039 -0.304241
H20   H     H_    0.936124 0.373845 0.956549 0.211437
H21   H     H_    0.942249 0.288879 0.866146 0.253977
C34   C     C_3   0.091562 0.436781 0.871487 -0.902923
H22   H     H_    0.106607 0.444614 0.807951 0.275537
H23   H     H_    0.175531 0.376336 0.891493 0.268807
H24   H     H_    0.100955 0.529120 0.899264 0.243179
I3    I     I_    0.834781 0.129203 0.521441 -0.272457
I4    I     I_    0.170187 0.868709 0.466800 -0.268863
I5    I     I_    0.823640 0.696815 0.634161 -0.345133
I6    I     I_    0.175258 0.293699 0.371457 -0.329096

loop_
_geom_bond_atom_site_label_1
_geom_bond_atom_site_label_2
_ccdc_geom_bond_type
C12   H10   S    
C1    C8    S    
Cu2   O3    S    
C2    C7    S    
C17   I1    S    
C10   I6    S    
C18   I2    S    
O9    C29   S    
C2    O4    A    
C9    N2    A    
C24   H6    S    
Cu1   O5    S    
C31   H17   S    
C22   C24   A    
Cu2   O6    S    
C19   C21   A    
C24   C26   A    
C15   C25   A    
C31   H16   S    
C12   N2    A    
C13   O5    A    
C1    O1    A    
C2    O2    A    
C33   H20   S    
C32   H19   S    
C25   H2    S    
C21   C27   S    
C26   H1    S    
C22   C28   S    
Cu1   O1    S    
C10   N1    A    
Cu2   O2    S    
C4    C7    A    
Cu1   O8    S    
C27   H4    S    
C16   C26   A    
C29   H12   S    
C4    C6    A    
C3    C8    A    
C5    C7    A    
C30   C31   S    
C6    C8    A    
C31   H15   S    
C5    I3    S    
Cu1   Cu2   S    
C19   O10   S    
C32   C33   S    
C9    I5    S    
C11   H9    S    
C9    C11   A    
C10   C12   A    
C13   O7    A    
C33   H21   S    
Cu2   O7    S    
C20   C22   A    
C28   H3    S    
C23   H5    S    
C13   C15   S    
C14   C16   S    
C34   H23   S    
C15   C17   A    
C29   H11   S    
Cu1   N1    S    
C4    H8    S    
C20   O9    S    
C3    C5    A    
C34   H24   S    
C14   O6    A    
C6    I4    S    
Cu1   O4    S    
O10   C32   S    
C21   C23   A    
C34   H22   S    
C1    O3    A    
C30   H13   S    
C14   O8    A    
C33   C34   S    
C17   C19   A    
C11   N1    A    
C18   C20   A    
C23   C25   A    
C30   H14   S    
C3    H7    S    
C16   C18   A    
C32   H18   S    
C27   C28   D    
Cu2   N2    S    
C29   C30   S    
