data_mof_unit_45891.cif
_audit_creation_date              2012-12-10T17:52:35-0500
_audit_creation_method            fapswitch 2.2
_symmetry_space_group_name_H-M    P1
_symmetry_Int_Tables_number       1
_space_group_crystal_system       triclinic
_cell_length_a                    14.812292
_cell_length_b                    14.708014
_cell_length_c                    23.499303
_cell_angle_alpha                 75.860307
_cell_angle_beta                  103.643431
_cell_angle_gamma                 115.094129
_cell_volume                      4444.56187717

loop_
_atom_site_label
_atom_site_type_symbol
_atom_type_description
_atom_site_fract_x
_atom_site_fract_y
_atom_site_fract_z
_atom_type_partial_charge
C1    C     C_R   0.880523 0.312161 0.507234 0.793708
C2    C     C_R   0.119571 0.687952 0.492362 0.854579
C3    C     C_R   0.984701 0.587173 0.742964 -0.221688
C4    C     C_R   0.887755 0.458819 0.232415 -0.229208
C5    C     C_R   0.990154 0.586469 0.684472 0.387881
C6    C     C_R   0.893973 0.454751 0.293016 0.377078
C7    C     C_R   0.996305 0.501803 0.670378 -0.251136
C8    C     C_R   0.989018 0.483363 0.329303 -0.245216
C9    C     C_R   0.985879 0.414299 0.713678 0.349677
C10   C     C_R   0.074691 0.497351 0.306014 0.342767
C11   C     C_R   0.989911 0.418773 0.773543 -0.058539
C12   C     C_R   0.067705 0.499409 0.244694 -0.067648
C13   C     C_R   0.985582 0.504865 0.787797 0.179355
C14   C     C_R   0.973734 0.483093 0.207533 0.186827
C15   C     C_R   0.812750 0.204648 0.504947 -0.159294
C16   C     C_R   0.187573 0.796247 0.491601 -0.138765
C17   C     C_R   0.778397 0.029727 0.500383 -0.292445
C18   C     C_R   0.225661 0.972034 0.496212 -0.315960
C19   C     C_R   0.847322 0.130511 0.501779 0.497476
C20   C     C_R   0.155705 0.869558 0.499918 0.511623
C21   C     C_R   0.709203 0.178299 0.501198 -0.357822
C22   C     C_R   0.288341 0.823748 0.485908 -0.340579
C23   C     C_R   0.000222 0.501018 0.608658 0.906731
C24   C     C_R   0.997121 0.495534 0.391275 0.867191
C25   C     C_R   0.638346 0.079653 0.494660 0.088822
C26   C     C_R   0.360307 0.922992 0.488889 0.092666
C27   C     C_R   0.674893 0.003898 0.497267 0.088453
C28   C     C_R   0.325720 0.998571 0.489634 0.095835
C29   C     C_R   0.532646 0.053424 0.488588 0.065264
C30   C     C_R   0.465408 0.949504 0.491005 0.067392
C31   C     C_R   0.505987 0.875400 0.497892 -0.195439
C32   C     C_R   0.491998 0.127766 0.480370 -0.195206
C33   C     C_R   0.608194 0.902612 0.498706 -0.205922
C34   C     C_R   0.391403 0.100501 0.483660 -0.197545
C35   C     C_R   0.712303 0.667722 0.400277 -0.336941
C36   C     C_R   0.284461 0.325281 0.591536 -0.318315
C37   C     C_R   0.791386 0.635320 0.413475 0.205290
C38   C     C_R   0.209523 0.362015 0.584101 0.190726
C39   C     C_R   0.716939 0.512843 0.493465 0.043548
C40   C     C_R   0.280117 0.487186 0.504193 0.042825
C41   C     C_R   0.627395 0.534164 0.476225 -0.003062
C42   C     C_R   0.367423 0.462230 0.516245 -0.017608
C43   C     C_R   0.631485 0.618776 0.431726 0.067665
C44   C     C_R   0.362651 0.374392 0.558294 0.062795
C45   C     C_R   0.020019 0.581061 0.112006 0.565112
C46   C     C_R   0.898692 0.432105 0.873943 0.564122
C47   C     C_R   0.536153 0.477873 0.502039 -0.090348
C48   C     C_R   0.456923 0.517205 0.488105 -0.088468
C49   C     C_R   0.471395 0.610190 0.447521 0.483726
C50   C     C_R   0.520298 0.382312 0.539677 0.484482
C51   C     C_R   0.556655 0.656872 0.419089 -0.282925
C52   C     C_R   0.434857 0.333729 0.567564 -0.277676
C53   C     C_R   0.902532 0.408427 0.117357 0.516074
C54   C     C_R   0.045581 0.585989 0.875800 0.522227
C55   C     C_R   0.892711 0.414556 0.055294 -0.062410
C56   C     C_R   0.035618 0.592255 0.933021 -0.065392
C57   C     C_R   0.959721 0.502795 0.023638 -0.031305
C58   C     C_R   0.963433 0.507346 0.963423 -0.030640
C59   C     C_R   0.023584 0.586441 0.052227 -0.022667
C60   C     C_R   0.894930 0.426705 0.933673 -0.021119
C61   C     C_R   0.821607 0.335189 0.024000 -0.013805
C62   C     C_R   0.096437 0.678044 0.961708 -0.012407
C63   C     C_R   0.823541 0.342719 0.963740 -0.217502
C64   C     C_R   0.089464 0.673802 0.020760 -0.217806
Cu1   Cu    Cu3+1 0.081740 0.475680 0.515360 0.975595
Cu2   Cu    Cu3+1 0.918260 0.524320 0.484640 0.983547
H1    H     H_    0.806103 0.971701 0.501718 0.137893
H2    H     H_    0.204754 0.032019 0.500276 0.134890
H3    H     H_    0.461024 0.795137 0.504748 0.199759
H4    H     H_    0.536131 0.208042 0.470917 0.195980
H5    H     H_    0.567489 0.727589 0.388426 0.148916
H6    H     H_    0.422410 0.260514 0.595750 0.152350
H7    H     H_    0.267400 0.540935 0.466748 0.222130
H8    H     H_    0.728012 0.461831 0.533169 0.179032
H9    H     H_    0.712883 0.730055 0.364075 0.141365
H10   H     H_    0.285059 0.261417 0.626410 0.143039
H11   H     H_    0.768893 0.281685 0.940415 0.182500
H12   H     H_    0.136378 0.739643 0.042168 0.181996
H13   H     H_    0.980301 0.652534 0.753756 0.172783
H14   H     H_    0.815161 0.443287 0.204378 0.178628
H15   H     H_    0.635667 0.843349 0.502790 0.151730
H16   H     H_    0.364599 0.159893 0.480628 0.154470
H17   H     H_    0.308829 0.766110 0.478347 0.197760
H18   H     H_    0.685560 0.235953 0.505110 0.209731
N1    N     N_R   0.964784 0.491243 0.144167 -0.435787
N2    N     N_R   0.976775 0.507451 0.847253 -0.434878
N3    N     N_R   0.795430 0.560810 0.461550 -0.201673
N4    N     N_R   0.204570 0.439190 0.538450 -0.215196
O1    O     O_R   0.977900 0.338110 0.520250 -0.538308
O2    O     O_R   0.022100 0.661890 0.479750 -0.540788
O3    O     O_R   0.839850 0.379180 0.494310 -0.595048
O4    O     O_R   0.160150 0.620820 0.505690 -0.599260
O5    O     O_R   0.069020 0.479430 0.595090 -0.569651
O6    O     O_R   0.930980 0.520570 0.404910 -0.543230
O7    O     O_R   0.930970 0.520500 0.569150 -0.584456
O8    O     O_R   0.069030 0.479500 0.430850 -0.567963
O9    O     O_2   0.072616 0.664473 0.138170 -0.570425
O10   O     O_2   0.825063 0.362279 0.842769 -0.574823
O11   O     O_2   0.853717 0.319824 0.151161 -0.549783
O12   O     O_2   0.124869 0.655422 0.849595 -0.536656
C65   C     C_R   0.739682 0.246232 0.050824 0.177476
C66   C     C_R   0.734510 0.147342 0.054783 -0.135651
C67   C     C_R   0.655594 0.063256 0.078690 -0.140138
C68   C     C_R   0.581133 0.077298 0.098385 -0.113354
C69   C     C_R   0.585305 0.175454 0.094068 -0.133091
C70   C     C_R   0.664008 0.259748 0.070126 -0.084322
H19   H     H_    0.791657 0.135555 0.039519 0.125268
H20   H     H_    0.652058 0.987191 0.081855 0.125625
H21   H     H_    0.520068 0.012117 0.116833 0.122469
H22   H     H_    0.527393 0.186203 0.109117 0.123389
H23   H     H_    0.666164 0.335433 0.066630 0.111364
C71   C     C_R   0.162115 0.776505 0.930819 0.177061
C72   C     C_R   0.266265 0.817522 0.950937 -0.138767
C73   C     C_R   0.327566 0.912019 0.922849 -0.132589
C74   C     C_R   0.285269 0.966392 0.874864 -0.103841
C75   C     C_R   0.181542 0.926514 0.854965 -0.131330
C76   C     C_R   0.119964 0.832077 0.882936 -0.086829
H24   H     H_    0.299805 0.776243 0.988212 0.124196
H25   H     H_    0.407831 0.943227 0.938384 0.130657
H26   H     H_    0.332812 0.039574 0.853230 0.125886
H27   H     H_    0.148810 0.968950 0.818009 0.121498
H28   H     H_    0.039571 0.802253 0.867444 0.108900
C77   C     C_R   0.149673 0.322688 0.633046 0.180564
C78   C     C_R   0.080459 0.220882 0.639342 -0.139883
C79   C     C_R   0.055224 0.167211 0.695132 -0.138331
C80   C     C_R   0.100574 0.213905 0.745454 -0.044482
C81   C     C_R   0.168163 0.315615 0.739680 -0.096320
C82   C     C_R   0.191717 0.370104 0.683732 -0.115271
H29   H     H_    0.053039 0.180378 0.602191 0.182475
H30   H     H_    0.003530 0.088203 0.699660 0.120579
H31   H     H_    0.083067 0.171510 0.788792 0.125630
H32   H     H_    0.203587 0.351781 0.778628 0.122734
H33   H     H_    0.249185 0.446656 0.680628 0.119443
C83   C     C_R   0.865913 0.682876 0.371980 0.142719
C84   C     C_R   0.947743 0.774907 0.379862 -0.147944
C85   C     C_R   0.014567 0.823538 0.338407 -0.175116
C86   C     C_R   0.996498 0.783506 0.286793 -0.115099
C87   C     C_R   0.910147 0.696656 0.276004 -0.143834
C88   C     C_R   0.844047 0.647693 0.317925 -0.105529
H34   H     H_    0.958604 0.809262 0.417670 0.175337
H35   H     H_    0.079217 0.893108 0.345830 0.134851
H36   H     H_    0.047757 0.821324 0.254442 0.143592
H37   H     H_    0.893913 0.667888 0.234952 0.148817
H38   H     H_    0.775255 0.583026 0.308176 0.173391
O13   O     O_3   0.409867 0.662411 0.441764 -0.630875
C89   C     C_3   0.377379 0.694653 0.381588 -0.358134
H39   H     H_    0.366140 0.640615 0.352102 0.193900
H40   H     H_    0.431205 0.771983 0.365696 0.168363
H41   H     H_    0.303790 0.699994 0.378360 0.214809
O14   O     O_3   0.579524 0.329315 0.541387 -0.616761
C90   C     C_3   0.612287 0.291324 0.600313 -0.413249
H42   H     H_    0.555410 0.215642 0.615773 0.193974
H43   H     H_    0.631489 0.345136 0.631601 0.165631
H44   H     H_    0.681640 0.279912 0.600705 0.183745
O15   O     O_3   0.992208 0.669636 0.640879 -0.535159
C91   C     C_3   0.896216 0.674628 0.628519 -0.224135
H45   H     H_    0.884081 0.703691 0.664312 0.130909
H46   H     H_    0.834159 0.599784 0.621438 0.136162
H47   H     H_    0.892282 0.728627 0.586855 0.195592
O16   O     O_3   0.806278 0.426047 0.315922 -0.577302
C92   C     C_3   0.770945 0.320513 0.337053 -0.273176
H48   H     H_    0.752134 0.276603 0.300455 0.166546
H49   H     H_    0.700949 0.297451 0.355894 0.190544
H50   H     H_    0.826487 0.300680 0.373219 0.130690
O17   O     O_3   0.972115 0.324233 0.697970 -0.557463
C93   C     C_3   0.871384 0.277935 0.670975 -0.339601
H51   H     H_    0.815733 0.281626 0.694125 0.143123
H52   H     H_    0.854192 0.196402 0.672333 0.189371
H53   H     H_    0.861287 0.312515 0.623694 0.156099
O18   O     O_3   0.166503 0.513954 0.342501 -0.587658
C94   C     C_3   0.179972 0.421017 0.360106 -0.310700
H54   H     H_    0.179075 0.389249 0.321546 0.156733
H55   H     H_    0.121954 0.363934 0.387279 0.169654
H56   H     H_    0.254892 0.435011 0.387821 0.180403
C95   C     C_R   0.004524 0.336836 0.821347 0.191738
C96   C     C_R   0.090612 0.360577 0.864870 -0.197461
C97   C     C_R   0.105221 0.284755 0.910561 -0.149757
C98   C     C_R   0.033925 0.184746 0.913358 -0.122541
C99   C     C_R   0.947774 0.160484 0.870545 -0.192354
C100  C     C_R   0.932953 0.236055 0.824704 -0.028073
H57   H     H_    0.146608 0.437764 0.863204 0.151438
H58   H     H_    0.171833 0.303567 0.943820 0.134528
H59   H     H_    0.045278 0.126119 0.948792 0.131514
H60   H     H_    0.892243 0.083113 0.872984 0.131233
H61   H     H_    0.864768 0.216080 0.792834 0.141444
C101  C     C_R   0.158863 0.518974 0.219826 0.184484
C102  C     C_R   0.158984 0.449101 0.188367 -0.195613
C103  C     C_R   0.244415 0.468376 0.164367 -0.138828
C104  C     C_R   0.330439 0.557081 0.171836 -0.107363
C105  C     C_R   0.331175 0.626710 0.203305 -0.178547
C106  C     C_R   0.245792 0.607932 0.227188 -0.038548
H62   H     H_    0.093111 0.379709 0.182600 0.148639
H63   H     H_    0.243978 0.414435 0.140053 0.132122
H64   H     H_    0.396534 0.571847 0.153253 0.124365
H65   H     H_    0.397795 0.695446 0.209019 0.122673
H66   H     H_    0.246940 0.663211 0.250786 0.136074
O19   O     O_3   0.059577 0.835467 0.515329 -0.558202
C107  C     C_3   0.025617 0.913714 0.510888 -0.332521
H67   H     H_    0.032799 0.964000 0.466897 0.136792
H68   H     H_    0.065406 0.957749 0.547955 0.190598
H69   H     H_    0.944211 0.878640 0.514676 0.172574
O20   O     O_3   0.948817 0.154619 0.503913 -0.589159
C108  C     C_3   0.966926 0.159310 0.446805 -0.356285
H70   H     H_    0.946231 0.218896 0.414214 0.150609
H71   H     H_    0.926468 0.084303 0.431467 0.153935
H72   H     H_    0.048794 0.180355 0.448767 0.180984

loop_
_geom_bond_atom_site_label_1
_geom_bond_atom_site_label_2
_ccdc_geom_bond_type
Cu1   O4    S    
C94   H54   S    
C105  C106  A    
C69   C70   A    
C45   N1    A    
C39   N3    A    
C69   H22   S    
C3    H13   S    
C73   C74   A    
C77   C82   A    
C84   C85   A    
C39   C41   A    
C53   O11   S    
Cu1   O1    S    
C94   H55   S    
C35   H9    S    
C59   C64   A    
O17   C93   S    
C51   H5    S    
C60   C63   A    
C91   H45   S    
C35   C37   A    
C4    H14   S    
C29   C32   A    
C87   H37   S    
C24   O8    A    
O13   C89   S    
C71   C76   A    
C90   H44   S    
O18   C94   S    
C16   C22   A    
C18   H2    S    
C97   H58   S    
C40   H7    S    
C61   C63   A    
C39   H8    S    
C101  C106  A    
C2    O2    A    
C106  H66   S    
C68   C69   A    
C62   C64   A    
C36   H10   S    
C17   C19   A    
C15   C19   A    
C79   H30   S    
Cu1   O8    S    
C95   C96   A    
C23   O7    A    
C49   C51   A    
C13   N2    S    
C78   H29   S    
C50   C52   A    
C90   H42   S    
C31   C33   A    
C96   C97   A    
C107  H67   S    
C1    C15   S    
C2    C16   S    
C38   C77   S    
C3    C13   A    
Cu2   O6    S    
C72   H24   S    
C44   C52   A    
C40   C42   A    
C79   C80   A    
C46   O10   S    
C28   C34   A    
C1    O3    A    
C68   H21   S    
C93   H52   S    
C53   N1    A    
C41   C43   A    
C54   O12   S    
C66   C67   A    
C42   C44   A    
C104  H64   S    
C71   C72   A    
C92   H49   S    
C98   C99   A    
C47   C50   A    
C89   H40   S    
C70   H23   S    
C53   C55   A    
C25   C29   A    
C84   H34   S    
C94   H56   S    
C54   C56   A    
C17   H1    S    
C86   H36   S    
O20   C108  S    
C89   H39   S    
C9    O17   S    
C17   C27   A    
C65   C66   A    
C108  H72   S    
C77   C78   A    
C18   C28   A    
C4    C6    A    
C100  H61   S    
C83   C88   A    
C5    C7    A    
C33   H15   S    
C6    C8    A    
C5    O15   S    
C19   O20   S    
C27   C33   A    
C23   O5    A    
C38   N4    A    
C103  C104  A    
C32   C34   A    
C96   H57   S    
C61   C65   S    
C76   H28   S    
C29   C30   A    
C52   H6    S    
C24   O6    A    
C89   H41   S    
C108  H71   S    
C88   H38   S    
C50   O14   S    
C6    O16   S    
C47   C48   A    
C91   H46   S    
C21   H18   S    
C15   C21   A    
C16   C20   A    
C12   C101  S    
C107  H69   S    
C41   C47   A    
C49   O13   S    
C66   H19   S    
C42   C48   A    
C2    O4    A    
C11   C95   S    
C81   H32   S    
C102  H62   S    
Cu2   O3    S    
C10   C12   A    
C105  H65   S    
C97   C98   A    
C104  C105  A    
C48   C49   A    
Cu2   O2    S    
C12   C14   A    
C103  H63   S    
C74   H26   S    
C9    C11   A    
C93   H51   S    
C56   C62   A    
C36   C44   A    
C10   O18   S    
C81   C82   A    
Cu2   N3    S    
C92   H50   S    
C35   C43   A    
Cu1   N4    S    
C54   N2    A    
C72   C73   A    
C63   H11   S    
C65   C70   A    
C7    C9    A    
C21   C25   A    
C45   C59   A    
C1    O1    A    
C46   C60   A    
O14   C90   S    
C64   H12   S    
C37   N3    A    
C91   H47   S    
C98   H59   S    
C14   N1    S    
C85   C86   A    
C3    C5    A    
C32   H4    S    
C26   C30   A    
C83   C84   A    
C25   C27   A    
C86   C87   A    
C26   C28   A    
C22   H17   S    
C40   N4    A    
C55   C57   A    
C102  C103  A    
C45   O9    S    
C82   H33   S    
O16   C92   S    
C11   C13   A    
C43   C51   A    
C57   C58   A    
C30   C31   A    
C73   H25   S    
C92   H48   S    
C80   H31   S    
C80   C81   A    
C7    C23   S    
C55   C61   A    
C36   C38   A    
Cu1   O5    S    
C8    C24   S    
C85   H35   S    
C56   C58   A    
C75   C76   A    
C18   C20   A    
C90   H43   S    
C4    C14   A    
O19   C107  S    
C20   O19   S    
C57   C59   A    
C87   C88   A    
C95   C100  A    
C99   C100  A    
C99   H60   S    
C31   H3    S    
C62   C71   S    
C93   H53   S    
C8    C10   A    
Cu1   Cu2   S    
C22   C26   A    
C67   C68   A    
C37   C83   S    
C78   C79   A    
C67   H20   S    
C107  H68   S    
C75   H27   S    
C34   H16   S    
C108  H70   S    
C101  C102  A    
O15   C91   S    
C58   C60   A    
C74   C75   A    
Cu2   O7    S    
C46   N2    A    
