data_mof_unit_53586.cif
_audit_creation_date              2012-12-10T18:25:44-0500
_audit_creation_method            fapswitch 2.2
_symmetry_space_group_name_H-M    P1
_symmetry_Int_Tables_number       1
_space_group_crystal_system       triclinic
_cell_length_a                    23.620773
_cell_length_b                    15.88928
_cell_length_c                    14.636326
_cell_angle_alpha                 90.048174
_cell_angle_beta                  90.201647
_cell_angle_gamma                 89.976879
_cell_volume                      5493.22667518

loop_
_atom_site_label
_atom_site_type_symbol
_atom_type_description
_atom_site_fract_x
_atom_site_fract_y
_atom_site_fract_z
_atom_type_partial_charge
C1    C     C_R   0.500022 0.339538 0.499956 0.820140
C2    C     C_R   0.499960 0.660463 0.500051 0.820845
C3    C     C_R   0.238074 0.538650 0.435858 -0.203791
C4    C     C_R   0.762918 0.505527 0.421150 -0.209596
C5    C     C_R   0.297010 0.539958 0.433549 0.160173
C6    C     C_R   0.703908 0.505385 0.418943 0.168100
C7    C     C_R   0.328201 0.496571 0.501010 -0.151978
C8    C     C_R   0.672906 0.501963 0.501763 -0.160230
C9    C     C_R   0.299462 0.451416 0.570530 0.131326
C10   C     C_R   0.703126 0.498944 0.586431 0.154641
C11   C     C_R   0.239360 0.449805 0.571858 0.140071
C12   C     C_R   0.763073 0.493910 0.586900 0.139246
C13   C     C_R   0.209199 0.494233 0.503361 0.268974
C14   C     C_R   0.792415 0.498823 0.503274 0.265425
C15   C     C_3   0.543440 0.972313 0.548331 0.292762
C16   C     C_3   0.456404 0.027693 0.451878 0.292407
C17   C     C_3   0.549071 0.028149 0.462534 -0.276925
C18   C     C_3   0.450775 0.971856 0.537675 -0.277651
C19   C     C_1   0.500113 0.250090 0.499927 -0.175110
C20   C     C_1   0.499812 0.749914 0.500120 -0.172965
C21   C     C_3   0.495623 0.027696 0.586530 0.155448
C22   C     C_3   0.504221 0.972319 0.413675 0.154987
C23   C     C_R   0.390761 0.499092 0.500069 0.873937
C24   C     C_R   0.609623 0.501000 0.500311 0.838515
C25   C     C_3   0.500233 0.083267 0.500435 0.000819
C26   C     C_3   0.499613 0.916740 0.499764 0.001243
C27   C     C_1   0.500195 0.174737 0.500055 -0.051365
C28   C     C_1   0.499683 0.825268 0.500068 -0.049936
C29   C     C_3   0.474574 0.568622 0.969485 0.215890
C30   C     C_3   0.525539 0.428597 0.030112 0.196079
C31   C     C_3   0.446545 0.500656 0.029565 0.214029
C32   C     C_3   0.553566 0.496608 0.969964 0.213091
C33   C     C_3   0.527857 0.566219 0.030844 0.228044
C34   C     C_3   0.472205 0.431112 0.968629 0.207627
C35   C     C_3   0.499843 0.498307 0.092556 -0.228554
C36   C     C_3   0.500247 0.499204 0.907169 -0.225715
C37   C     C_1   0.499887 0.499192 0.194506 0.168741
C38   C     C_1   0.500170 0.499697 0.805418 0.158049
C39   C     C_R   0.881589 0.570608 0.521284 0.556027
C40   C     C_R   0.119900 0.425911 0.472282 0.562411
C41   C     C_R   0.880720 0.425670 0.479451 0.566610
C42   C     C_R   0.120747 0.566665 0.528250 0.558420
C43   C     C_R   0.940470 0.421677 0.483089 -0.077308
C44   C     C_R   0.061034 0.568124 0.533387 -0.081487
C45   C     C_R   0.970815 0.495645 0.506626 -0.119920
C46   C     C_R   0.030691 0.495106 0.506652 -0.119587
C47   C     C_R   0.941212 0.570548 0.528783 -0.072548
C48   C     C_R   0.060307 0.421972 0.478516 -0.069821
C49   C     C_R   0.970336 0.346132 0.464248 0.199872
C50   C     C_R   0.031225 0.640042 0.564811 0.201677
C51   C     C_R   0.029991 0.347025 0.458870 0.195336
C52   C     C_R   0.971588 0.642388 0.559143 0.194871
Cu1   Cu    Cu3+1 0.500010 0.500000 0.590220 0.978972
Cu2   Cu    Cu3+1 0.499990 0.500000 0.409780 0.985193
H1    H     H_    0.214204 0.572762 0.384487 0.158802
H2    H     H_    0.786367 0.509491 0.357784 0.154728
H3    H     H_    0.589086 0.051966 0.432588 0.153948
H4    H     H_    0.410762 0.948040 0.567623 0.153559
N1    N     N_R   0.853181 0.498320 0.501006 -0.459516
N2    N     N_R   0.148372 0.495409 0.501772 -0.453373
N3    N     N_1   0.499980 0.500000 0.274190 -0.151866
N4    N     N_1   0.500020 0.500000 0.725810 -0.154115
O1    O     O_R   0.500010 0.379080 0.576170 -0.573033
O2    O     O_R   0.499990 0.620920 0.423830 -0.569432
O3    O     O_R   0.500000 0.379080 0.423800 -0.576816
O4    O     O_R   0.500000 0.620920 0.576200 -0.575658
O5    O     O_R   0.417890 0.499980 0.576200 -0.557917
O6    O     O_R   0.582110 0.500020 0.423800 -0.545590
O7    O     O_R   0.417870 0.499970 0.423830 -0.559801
O8    O     O_R   0.582130 0.500030 0.576170 -0.546596
O9    O     O_2   0.851583 0.641883 0.534009 -0.520845
O10   O     O_2   0.149727 0.361528 0.436414 -0.527844
O11   O     O_2   0.849916 0.358344 0.453141 -0.516569
O12   O     O_2   0.151474 0.635809 0.548517 -0.514121
N5    N     N_2   0.940492 0.268469 0.454702 -0.369692
H5    H     H_    0.955470 0.227512 0.405922 0.241868
C53   C     C_3   0.926706 0.227557 0.540150 -0.605552
H6    H     H_    0.965724 0.206788 0.575889 0.199651
H7    H     H_    0.899735 0.171718 0.526455 0.221786
H8    H     H_    0.903084 0.270957 0.585617 0.230307
N6    N     N_2   0.061060 0.708557 0.605911 -0.369496
H9    H     H_    0.045631 0.767856 0.592398 0.241401
C54   C     C_3   0.075607 0.696208 0.701189 -0.607117
H10   H     H_    0.036865 0.691722 0.743456 0.198351
H11   H     H_    0.101405 0.750128 0.725718 0.219742
H12   H     H_    0.100773 0.637798 0.710283 0.235237
N7    N     N_2   0.389050 0.503241 0.063569 -0.428003
H13   H     H_    0.382532 0.464190 0.118665 0.246232
C55   C     C_3   0.344572 0.497968 0.995580 -0.690837
H14   H     H_    0.303549 0.514774 0.027544 0.219935
H15   H     H_    0.341324 0.433061 0.968155 0.248943
H16   H     H_    0.352351 0.542159 0.938429 0.233367
N8    N     N_2   0.610825 0.494922 0.934768 -0.428107
H17   H     H_    0.616833 0.449845 0.885068 0.251366
C56   C     C_3   0.655892 0.497980 0.001896 -0.691581
H18   H     H_    0.697310 0.500534 0.966386 0.218972
H19   H     H_    0.655155 0.441373 0.046037 0.220092
H20   H     H_    0.652217 0.554887 0.045251 0.266153
N9    N     N_2   0.447949 0.644227 0.934403 -0.418529
H21   H     H_    0.422991 0.633889 0.877608 0.248050
C57   C     C_3   0.421816 0.698680 0.001356 -0.681550
H22   H     H_    0.410785 0.759588 0.968750 0.220168
H23   H     H_    0.451107 0.711522 0.059014 0.232036
H24   H     H_    0.382466 0.669829 0.028044 0.246719
N10   N     N_2   0.551997 0.352917 0.065330 -0.413260
H25   H     H_    0.577713 0.363304 0.121181 0.248797
C58   C     C_3   0.576482 0.296435 0.998664 -0.709040
H26   H     H_    0.583858 0.234167 0.030880 0.228481
H27   H     H_    0.617648 0.320918 0.974248 0.224301
H28   H     H_    0.547823 0.287479 0.939339 0.234534
N11   N     N_2   0.441524 0.359471 0.932269 -0.431289
H29   H     H_    0.459977 0.333142 0.875309 0.243962
C59   C     C_3   0.422450 0.297954 0.998123 -0.667441
H30   H     H_    0.391757 0.254782 0.964768 0.215318
H31   H     H_    0.401056 0.328772 0.056542 0.235081
H32   H     H_    0.458593 0.260183 0.023916 0.250183
N12   N     N_2   0.558267 0.638516 0.066122 -0.426556
H33   H     H_    0.538944 0.666763 0.121208 0.247814
C60   C     C_3   0.578595 0.697625 0.998670 -0.659594
H34   H     H_    0.608366 0.742380 0.031734 0.214590
H35   H     H_    0.542847 0.733928 0.969110 0.246354
H36   H     H_    0.601436 0.664617 0.943020 0.254477
N13   N     N_2   0.059639 0.271441 0.437007 -0.376815
H37   H     H_    0.046301 0.238427 0.380285 0.239587
C61   C     C_3   0.078968 0.220657 0.513158 -0.620292
H38   H     H_    0.124150 0.204137 0.502973 0.249796
H39   H     H_    0.054176 0.161400 0.516367 0.195628
H40   H     H_    0.074997 0.254683 0.579301 0.208380
N14   N     N_2   0.942051 0.716434 0.586749 -0.377078
H41   H     H_    0.955156 0.772697 0.559011 0.238015
C62   C     C_3   0.924101 0.720263 0.681202 -0.615838
H42   H     H_    0.879355 0.741358 0.683900 0.249532
H43   H     H_    0.950393 0.766495 0.719236 0.193792
H44   H     H_    0.927221 0.657814 0.715188 0.209355
N15   N     N_2   0.324732 0.589071 0.365933 -0.412560
H45   H     H_    0.308959 0.649490 0.361447 0.249750
C63   C     C_3   0.327862 0.549189 0.277224 -0.632340
H46   H     H_    0.284854 0.542629 0.247002 0.208527
H47   H     H_    0.347749 0.486020 0.282856 0.240655
H48   H     H_    0.354078 0.588416 0.231036 0.231111
N16   N     N_2   0.676313 0.511029 0.332592 -0.394552
H49   H     H_    0.694307 0.554953 0.289691 0.247126
C64   C     C_3   0.668431 0.430863 0.287398 -0.626828
H50   H     H_    0.710054 0.403225 0.268716 0.213546
H51   H     H_    0.643136 0.440267 0.224196 0.208186
H52   H     H_    0.645279 0.386411 0.332380 0.237234
N17   N     N_2   0.331794 0.404831 0.635715 -0.419447
H53   H     H_    0.323463 0.341211 0.638176 0.235652
C65   C     C_3   0.339743 0.444131 0.724226 -0.611247
H54   H     H_    0.303136 0.431233 0.769276 0.207937
H55   H     H_    0.345454 0.513285 0.717412 0.232194
H56   H     H_    0.378237 0.417700 0.757126 0.232623
N18   N     N_2   0.673093 0.502058 0.670816 -0.405876
H57   H     H_    0.686326 0.460397 0.720344 0.252072
C66   C     C_3   0.662994 0.586185 0.705322 -0.626053
H58   H     H_    0.703495 0.616866 0.724819 0.203562
H59   H     H_    0.635362 0.582864 0.766406 0.234533
H60   H     H_    0.641343 0.625318 0.652900 0.232735
C67   C     C_3   0.207368 0.402622 0.646182 -0.379826
C68   C     C_3   0.183163 0.462438 0.717892 -0.833775
H61   H     H_    0.215683 0.508311 0.740897 0.258746
H62   H     H_    0.146233 0.497044 0.690291 0.250606
H63   H     H_    0.168667 0.425742 0.777945 0.232231
H64   H     H_    0.172692 0.364433 0.616327 0.212574
H65   H     H_    0.234503 0.356247 0.681770 0.196213
C69   C     C_3   0.795753 0.481315 0.675706 -0.394132
C70   C     C_3   0.801118 0.387931 0.698412 -0.853973
H66   H     H_    0.758763 0.358674 0.706292 0.247231
H67   H     H_    0.824253 0.354656 0.643361 0.271281
H68   H     H_    0.824992 0.380235 0.763351 0.238563
H69   H     H_    0.838848 0.508521 0.672100 0.208397
H70   H     H_    0.775423 0.514670 0.733443 0.202332
N19   N     N_2   0.590595 0.938167 0.599861 -0.423669
H71   H     H_    0.608157 0.885757 0.569553 0.252404
C71   C     C_3   0.632811 0.998706 0.628180 -0.698150
H72   H     H_    0.664279 0.967379 0.673260 0.229492
H73   H     H_    0.613142 0.050913 0.667017 0.236324
H74   H     H_    0.655168 0.024449 0.567692 0.221366
N20   N     N_2   0.409237 0.061821 0.400366 -0.423047
H75   H     H_    0.391671 0.114219 0.430692 0.252295
C72   C     C_3   0.367024 0.001261 0.372083 -0.697862
H76   H     H_    0.335552 0.032563 0.326992 0.230970
H77   H     H_    0.344672 0.975542 0.432587 0.220058
H78   H     H_    0.386694 0.949039 0.333271 0.236856
C73   C     C_3   0.511060 0.937716 0.316807 -0.388603
C74   C     C_3   0.513049 0.008133 0.246145 -0.806949
H79   H     H_    0.472683 0.043886 0.245689 0.277496
H80   H     H_    0.548574 0.051803 0.261269 0.248033
H81   H     H_    0.519556 0.980676 0.177196 0.231773
H82   H     H_    0.551086 0.901132 0.313525 0.199639
H83   H     H_    0.475635 0.894302 0.300679 0.198187
C75   C     C_3   0.488776 0.062355 0.683373 -0.390203
C76   C     C_3   0.486778 0.991982 0.754082 -0.807527
H84   H     H_    0.451245 0.948318 0.738988 0.248054
H85   H     H_    0.527138 0.956215 0.754559 0.277431
H86   H     H_    0.480276 0.019483 0.823012 0.231441
H87   H     H_    0.524203 0.105773 0.699481 0.197506
H88   H     H_    0.448753 0.098950 0.686622 0.197537

loop_
_geom_bond_atom_site_label_1
_geom_bond_atom_site_label_2
_ccdc_geom_bond_type
C64   H52   S    
N7    H13   S    
C33   N12   S    
C57   H22   S    
C40   N2    A    
C66   H59   S    
C18   C21   S    
C51   N13   S    
C23   O7    A    
C56   H18   S    
C18   C26   S    
C62   H44   S    
C49   C51   A    
N6    H9    S    
C56   H20   S    
C24   O8    A    
C73   H82   S    
C70   H67   S    
C13   N2    S    
C72   H76   S    
C69   H70   S    
C14   N1    S    
N10   C58   S    
C29   C36   S    
C30   C34   S    
N8    H17   S    
Cu2   O2    S    
C30   C35   S    
N15   H45   S    
C52   N14   S    
C32   C36   S    
C39   C47   A    
N17   C65   S    
N14   H41   S    
C38   N4    T    
C65   H55   S    
C67   C68   S    
C12   C69   S    
C60   H36   S    
Cu2   O6    S    
C64   H50   S    
C29   C33   S    
C5    N15   S    
C23   O5    A    
C40   C48   A    
Cu1   O1    S    
C33   C35   S    
C3    H1    S    
C18   H4    S    
C48   C51   A    
C64   H51   S    
N17   H53   S    
C44   C46   A    
C76   H85   S    
C61   H40   S    
C1    O3    A    
C58   H26   S    
C49   N5    S    
N12   C60   S    
C75   H88   S    
N18   C66   S    
C19   C27   T    
C41   C43   A    
C3    C13   A    
C16   N20   S    
C53   H6    S    
C59   H32   S    
C21   C75   S    
C45   C47   A    
C32   N8    S    
C63   H46   S    
C69   H69   S    
N8    C56   S    
N15   C63   S    
C4    H2    S    
C66   H60   S    
C34   N11   S    
C58   H27   S    
C42   C44   A    
Cu1   O8    S    
C1    O1    A    
C10   N18   S    
N6    C54   S    
C2    O2    A    
C73   H83   S    
C71   H74   S    
C60   H35   S    
C63   H48   S    
C46   C48   A    
C42   O12   S    
C31   N7    S    
C29   N9    S    
N12   H33   S    
C11   C67   S    
C68   H63   S    
N13   H37   S    
C41   N1    A    
C71   H73   S    
C72   H77   S    
C42   N2    A    
C70   H66   S    
Cu2   O3    S    
C15   N19   S    
C43   C49   A    
C15   C26   S    
C6    C8    A    
C20   C28   T    
C62   H43   S    
N19   H71   S    
C1    C19   S    
C2    C20   S    
C9    N17   S    
C67   H65   S    
C32   C33   S    
C59   H31   S    
C55   H16   S    
C68   H62   S    
N5    H5    S    
C63   H47   S    
Cu1   N4    S    
C50   C52   A    
C54   H10   S    
C29   C31   S    
C76   H86   S    
C39   N1    A    
C53   H7    S    
N11   C59   S    
C16   C18   S    
C75   H87   S    
C6    N16   S    
Cu1   O4    S    
N5    C53   S    
N19   C71   S    
C10   C12   A    
C74   H79   S    
C70   H68   S    
C4    C6    A    
N9    C57   S    
C12   C14   A    
C57   H24   S    
C9    C11   A    
C30   N10   S    
C69   C70   S    
C58   H28   S    
C31   C35   S    
C65   H56   S    
C55   H15   S    
C74   H80   S    
C62   H42   S    
C3    C5    A    
C31   C34   S    
C5    C7    A    
C59   H30   S    
C57   H23   S    
C72   H78   S    
C44   C50   A    
C16   C25   S    
C15   C17   S    
C21   C25   S    
C16   C22   S    
C40   O10   S    
N11   H29   S    
C35   C37   S    
C2    O4    A    
C45   C46   A    
C37   N3    T    
C60   H34   S    
C56   H19   S    
Cu1   Cu2   S    
C47   C52   A    
Cu2   N3    S    
C25   C27   S    
N10   H25   S    
C26   C28   S    
C17   C22   S    
N9    H21   S    
C17   C25   S    
C75   C76   S    
C22   C73   S    
N16   C64   S    
C55   H14   S    
C43   C45   A    
C71   H72   S    
N16   H49   S    
C68   H61   S    
C30   C32   S    
C11   C13   A    
C73   C74   S    
C61   H38   S    
Cu2   O7    S    
C53   H8    S    
C74   H81   S    
C7    C23   S    
C36   C38   S    
C8    C24   S    
C34   C36   S    
C4    C14   A    
C54   H11   S    
Cu1   O5    S    
N13   C61   S    
C24   O6    A    
C41   O11   S    
N20   H75   S    
C7    C9    A    
C15   C21   S    
C54   H12   S    
C8    C10   A    
C76   H84   S    
C22   C26   S    
C66   H58   S    
C61   H39   S    
N7    C55   S    
C39   O9    S    
C67   H64   S    
N20   C72   S    
N18   H57   S    
C65   H54   S    
C50   N6    S    
C17   H3    S    
N14   C62   S    
