data_mof_unit_13921.cif
_audit_creation_date              2013-03-05T15:48:57-0500
_audit_creation_method            fapswitch 2.2
_symmetry_space_group_name_H-M    P1
_symmetry_Int_Tables_number       1
_space_group_crystal_system       triclinic
_cell_length_a                    8.339216
_cell_length_b                    18.847447
_cell_length_c                    19.033807
_cell_angle_alpha                 99.235253
_cell_angle_beta                  94.851465
_cell_angle_gamma                 91.781376
_cell_volume                      2939.20731848

loop_
_atom_site_label
_atom_site_type_symbol
_atom_site_description
_atom_site_fract_x
_atom_site_fract_y
_atom_site_fract_z
_atom_type_partial_charge
P1    P     P_3+3 0.947550 0.663200 0.567530 0.539728
O1    O     O_2   0.118870 0.674530 0.547560 -0.344330
O2    O     O_3   0.870460 0.585330 0.542110 -0.405491
O3    O     O_3   0.354280 0.631750 0.418430 -0.374984
O4    O     O_2   0.230704 0.756745 0.467132 -0.379721
O5    O     O_3   0.972210 0.673244 0.660920 -0.485260
O6    O     O_3   0.338687 0.747538 0.342012 -0.557207
H1    H     H_    0.279800 0.646706 0.282646 0.163324
C1    C     C_3   0.405036 0.714905 0.221056 -0.556717
H2    H     H_    0.486000 0.763918 0.232874 0.212961
P2    P     P_3+3 0.354660 0.445020 0.336980 0.498180
P3    P     P_3+3 0.911028 0.594720 0.288407 0.439903
O7    O     O_2   0.180880 0.466650 0.327890 -0.391983
O8    O     O_3   0.939000 0.596010 0.380670 -0.352511
O9    O     O_2   0.040420 0.546873 0.254479 -0.400387
O10   O     O_3   0.353561 0.350069 0.321975 -0.554807
O11   O     O_3   0.965359 0.681301 0.272237 -0.528805
C2    C     C_3   0.828728 0.722583 0.263483 0.722861
H3    H     H_    0.715258 0.692781 0.267285 -0.036887
C3    C     C_3   0.816294 0.743737 0.188721 -1.025558
H4    H     H_    0.928584 0.771139 0.178175 0.262354
H5    H     H_    0.792502 0.694881 0.147596 0.234499
C4    C     C_3   0.775006 0.378380 0.312182 0.247463
H6    H     H_    0.656995 0.389708 0.332329 0.128034
H7    H     H_    0.858566 0.426505 0.327745 0.078281
C5    C     C_3   0.754872 0.360176 0.230774 -0.090327
H8    H     H_    0.693880 0.403378 0.207604 0.109191
H9    H     H_    0.874609 0.354832 0.209884 0.162170
Ba1   Ba    Ba6+2 0.152460 0.535140 0.468980 1.591803
C6    C     C_3   0.017928 0.609317 0.683672 0.484680
H10   H     H_    0.132533 0.592790 0.662454 0.079519
H11   H     H_    0.923900 0.565710 0.666381 0.132721
C7    C     C_3   0.039215 0.623190 0.764983 -0.941776
H12   H     H_    0.138726 0.663901 0.784167 0.261077
H13   H     H_    0.067459 0.573286 0.785869 0.207550
H14   H     H_    0.926207 0.643025 0.786477 0.289518
C8    C     C_3   0.208792 0.317727 0.285938 0.771180
H15   H     H_    0.103092 0.343988 0.307361 0.067593
C9    C     C_3   0.197653 0.239666 0.297552 -0.895299
H16   H     H_    0.295610 0.209155 0.272302 0.283636
H17   H     H_    0.079202 0.214070 0.273973 0.251570
H18   H     H_    0.210181 0.236868 0.355473 0.208154
P4    P     P_3+3 0.862750 0.336790 0.432410 0.513394
O12   O     O_2   0.691430 0.325420 0.452420 -0.335351
O13   O     O_3   0.939830 0.414660 0.457830 -0.360542
O14   O     O_3   0.456020 0.368240 0.581510 -0.295959
O15   O     O_3   0.836935 0.319257 0.339093 -0.562701
P5    P     P_3+3 0.893053 0.399697 0.710878 0.506188
O16   O     O_3   0.374170 0.535780 0.585810 -0.338183
O17   O     O_3   0.871300 0.403980 0.619270 -0.312826
O18   O     O_2   0.767666 0.449253 0.746029 -0.370490
O19   O     O_3   0.827057 0.312850 0.719593 -0.461352
Ba2   Ba    Ba6+2 0.657710 0.464850 0.530960 1.634339
P6    P     P_3+3 0.373949 0.725496 0.427785 0.449962
C10   C     C_3   0.377876 0.689182 0.291482 0.383267
H19   H     H_    0.490367 0.665147 0.309857 0.013363
H20   H     H_    0.463949 0.672285 0.186369 0.187881
O20   O     O_3   0.436130 0.464210 0.414140 -0.351295
C11   C     C_3   0.494690 0.688087 0.668485 0.216782
H21   H     H_    0.599959 0.669336 0.639538 0.099018
H22   H     H_    0.389801 0.688734 0.628631 0.099382
C12   C     C_3   0.532234 0.765483 0.709478 0.134700
H23   H     H_    0.501460 0.803605 0.672014 0.106076
P7    P     P_3+3 0.448974 0.552117 0.676890 0.485008
O21   O     O_2   0.629420 0.533310 0.672080 -0.345798
O22   O     O_3   0.456100 0.642642 0.716663 -0.595976
H24   H     H_    0.717153 0.780673 0.182436 0.233696
C13   C     C_3   0.943765 0.264999 0.695179 0.417870
H25   H     H_    0.990154 0.276682 0.644787 0.057437
H26   H     H_    0.044347 0.267973 0.737723 0.021027
C14   C     C_3   0.870474 0.188565 0.679952 -0.874840
H27   H     H_    0.773643 0.183328 0.635412 0.281664
H28   H     H_    0.964694 0.150252 0.664225 0.200265
H29   H     H_    0.819485 0.174719 0.728331 0.259977
P8    P     P_3+3 0.438812 0.274272 0.569856 0.506725
C15   C     C_3   0.358158 0.263988 0.695439 0.370467
H30   H     H_    0.269791 0.217538 0.681307 0.038032
O23   O     O_2   0.579618 0.245295 0.528059 -0.384759
O24   O     O_3   0.489233 0.251618 0.654273 -0.477995
H31   H     H_    0.298477 0.314341 0.687715 0.063783
H32   H     H_    0.314996 0.280038 0.807467 0.197572
C16   C     C_3   0.417741 0.271045 0.774100 -0.860379
H33   H     H_    0.505955 0.317523 0.789205 0.278992
H34   H     H_    0.476474 0.221207 0.784521 0.257956
C17   C     C_R   0.005928 0.951686 0.527176 -0.040620
C18   C     C_R   0.103465 0.905109 0.560617 0.046783
C19   C     C_R   0.265079 0.927009 0.584130 -0.120212
C20   C     C_R   0.325449 0.995417 0.578854 -0.205357
C21   C     C_R   0.226017 0.043984 0.550297 0.138392
C22   C     C_R   0.066453 0.022081 0.523271 0.037031
C23   C     C_R   0.284352 0.114145 0.549214 -0.258171
C24   C     C_R   0.185204 0.164505 0.522429 -0.044718
C25   C     C_R   0.025701 0.142440 0.492900 0.016952
C26   C     C_R   0.967222 0.070835 0.493551 -0.019195
C27   C     C_R   0.241608 0.236145 0.523583 0.136823
C28   C     C_R   0.142467 0.283106 0.492347 -0.429435
C29   C     C_R   0.982278 0.264587 0.466693 0.241712
C30   C     C_R   0.924522 0.191741 0.463193 -0.052980
C31   C     C_R   0.846453 0.929277 0.500771 -0.015414
C32   C     C_R   0.786748 0.858228 0.504157 -0.024469
C33   C     C_R   0.885611 0.810450 0.538135 -0.107821
C34   C     C_R   0.036719 0.839308 0.573454 0.341283
H35   H     H_    0.346685 0.891224 0.606462 0.151730
H36   H     H_    0.449701 0.010687 0.598233 0.143021
H37   H     H_    0.192534 0.334994 0.486288 0.208521
H38   H     H_    0.407925 0.128837 0.569639 0.176609
C35   C     C_R   0.771185 0.165801 0.430033 -0.120484
C36   C     C_R   0.711090 0.095813 0.433314 0.102885
C37   C     C_R   0.808932 0.048137 0.465513 0.001274
C38   C     C_R   0.748591 0.977485 0.469042 0.031581
C39   C     C_R   0.553304 0.072882 0.405412 -0.162545
C40   C     C_R   0.493247 0.003567 0.409479 -0.192502
C41   C     C_R   0.590093 0.955344 0.440905 0.125490
C42   C     C_R   0.627729 0.835696 0.473947 -0.011400
C43   C     C_R   0.530741 0.885387 0.443907 -0.243671
C44   C     C_R   0.571940 0.763642 0.473017 0.187887
C45   C     C_R   0.673775 0.715751 0.501597 -0.540144
C46   C     C_R   0.828534 0.736730 0.534215 0.311999
H39   H     H_    0.695718 0.199692 0.402037 0.181823
H40   H     H_    0.475497 0.108872 0.380996 0.141540
H41   H     H_    0.370662 0.987617 0.387877 0.139447
H42   H     H_    0.408077 0.870346 0.422371 0.183242
H43   H     H_    0.631043 0.660409 0.498423 0.177381
C47   C     C_R   0.612343 0.528922 0.301430 -0.515983
C48   C     C_R   0.464949 0.492548 0.276649 0.287026
C49   C     C_R   0.408079 0.487845 0.204514 -0.243545
C50   C     C_R   0.502772 0.514657 0.155866 0.029240
C51   C     C_R   0.655230 0.547720 0.181206 -0.313396
C52   C     C_R   0.709253 0.555133 0.253851 0.219763
C53   C     C_R   0.470311 0.560955 0.038849 -0.181465
C54   C     C_R   0.418025 0.551944 0.966007 -0.164987
C55   C     C_R   0.341055 0.486817 0.930624 0.167471
C56   C     C_R   0.314810 0.431551 0.970456 -0.162044
C57   C     C_R   0.366223 0.440783 0.043459 -0.134733
C58   C     C_R   0.445204 0.505494 0.078518 0.157183
C59   C     C_R   0.145188 0.439823 0.823007 -0.322354
C60   C     C_R   0.101051 0.430547 0.749109 0.108552
C61   C     C_R   0.349097 0.495310 0.732701 0.276162
C62   C     C_R   0.392498 0.504624 0.806236 -0.288580
C63   C     C_R   0.293258 0.475797 0.852174 0.042668
C64   C     C_R   0.209630 0.454132 0.704233 -0.063162
H44   H     H_    0.502079 0.535787 0.827512 0.160600
H45   H     H_    0.437320 0.596310 0.937487 0.124614
H46   H     H_    0.529495 0.611626 0.064278 0.118683
H47   H     H_    0.290304 0.463117 0.186179 0.180018
H48   H     H_    0.258122 0.380419 0.944755 0.136080
H49   H     H_    0.347833 0.396464 0.072079 0.180230
H50   H     H_    0.061610 0.421925 0.857760 0.162051
H51   H     H_    0.733018 0.566316 0.144565 0.146562
H52   H     H_    0.655705 0.533293 0.357221 0.170656
Br1   Br    Br    0.629415 0.270713 0.198848 -0.416073
Br2   Br    Br    0.203611 0.317642 0.183731 -0.558927
C65   C     C_3   0.248599 0.732749 0.181410 -0.169026
C66   C     C_3   0.279033 0.755752 0.110234 -0.920990
H53   H     H_    0.330346 0.711260 0.074719 0.265321
H54   H     H_    0.163537 0.769667 0.083396 0.258711
H55   H     H_    0.363619 0.803700 0.119003 0.270713
H56   H     H_    0.194506 0.777693 0.214977 0.225513
H57   H     H_    0.163652 0.684857 0.170971 0.227960
Br3   Br    Br    0.760294 0.781089 0.739249 -0.496217
C67   C     C_3   0.439710 0.782869 0.776727 -0.209135
C68   C     C_3   0.440621 0.863696 0.804426 -0.795553
H58   H     H_    0.565000 0.885342 0.822902 0.279556
H59   H     H_    0.390305 0.892960 0.761997 0.270008
H60   H     H_    0.365792 0.873532 0.850278 0.252226
H61   H     H_    0.313290 0.761774 0.765291 0.224512
H62   H     H_    0.494354 0.755567 0.819962 0.215622
C69   C     C_3   0.835641 0.788196 0.323563 -0.339195
C70   C     C_3   0.976033 0.842200 0.323362 -0.809513
H63   H     H_    0.091935 0.815792 0.328040 0.302503
H64   H     H_    0.965764 0.866909 0.274157 0.243273
H65   H     H_    0.975113 0.886012 0.369733 0.238113
H66   H     H_    0.721144 0.816607 0.319960 0.162142
H67   H     H_    0.846039 0.768179 0.375438 0.182878
Br4   Br    Br    0.124329 0.810952 0.660143 -0.542776
Br5   Br    Br    0.169381 0.431248 0.603482 -0.465507

loop_
_geom_bond_atom_site_label_1
_geom_bond_atom_site_label_2
_geom_bond_distance
_ccdc_geom_bond_type
C10   H19   1.108744 S    
C49   C50   1.409034 A    
Ba2   O20   2.766524 S    
P2    O7    1.520934 D    
C70   H63   1.104262 S    
C3    H24   1.108267 S    
C27   C28   1.397005 A    
C15   O24   1.401842 S    
O6    C10   1.406228 S    
C59   C63   1.415557 A    
C51   C52   1.401110 A    
C42   C43   1.413844 A    
P8    C27   1.864118 S    
C9    H17   1.111648 S    
P7    C61   1.851431 S    
C17   C18   1.404823 A    
C44   C45   1.399613 A    
C69   H67   1.109911 S    
C57   H49   1.081767 S    
C5    H8    1.104194 S    
C33   C34   1.425615 A    
P5    C60   1.861243 S    
O1    Ba1   2.841266 S    
C33   C46   1.442995 A    
O7    Ba1   2.819270 S    
C5    Br1   1.939284 S    
P2    C48   1.850565 S    
C50   C58   1.490450 S    
C2    H3    1.098964 S    
C11   O22   1.401066 S    
C6    H10   1.103157 S    
C62   H44   1.082459 S    
C12   C67   1.545724 S    
C29   C30   1.430229 A    
C7    H14   1.110535 S    
C36   C37   1.409439 A    
C2    C3    1.534372 S    
P1    O1    1.526476 D    
C4    C5    1.525994 S    
C65   H56   1.108152 S    
O2    Ba1   2.938023 S    
C40   C41   1.405176 A    
C60   C64   1.405253 A    
O12   Ba2   2.841795 S    
P4    Ba2   3.407876 S    
P5    O18   1.546554 D    
C39   C40   1.400664 A    
C55   C56   1.405361 A    
P6    C44   1.863141 S    
P3    O11   1.761174 S    
C64   Br5   1.895455 S    
C4    H6    1.100792 S    
C1    C10   1.528509 S    
C21   C23   1.398617 A    
P2    O20   1.547505 S    
C53   H46   1.082524 S    
C1    H2    1.108455 S    
C66   H54   1.110346 S    
O3    Ba1   2.778403 S    
O19   C13   1.404661 S    
O10   C8    1.406950 S    
P5    O17   1.752809 S    
O13   Ba2   2.938875 S    
C11   H21   1.112520 S    
C65   C66   1.525633 S    
O16   P7    1.767233 S    
C70   H64   1.109179 S    
C23   H38   1.081523 S    
H1    C10   1.109476 S    
C35   H39   1.079597 S    
O14   P8    1.749050 S    
C20   H36   1.084087 S    
C49   H47   1.079346 S    
C22   C26   1.408570 A    
C9    H18   1.108433 S    
C68   H59   1.110184 S    
C69   H66   1.111572 S    
C11   H22   1.109986 S    
O17   Ba2   2.748396 S    
C4    O15   1.394633 S    
P3    C52   1.843318 S    
P1    O5    1.750894 S    
C15   H31   1.109835 S    
O4    P6    1.545388 D    
C32   C42   1.423774 A    
C15   H30   1.110215 S    
C66   H55   1.110924 S    
C15   C16   1.520655 S    
C23   C24   1.406142 A    
C14   H28   1.110886 S    
C2    C69   1.539746 S    
C18   C19   1.411084 A    
C13   H25   1.115050 S    
Ba1   O16   2.767314 S    
C34   Br4   1.909290 S    
C31   C38   1.412500 A    
C24   C27   1.412130 A    
H32   C16   1.110289 S    
C30   C35   1.413533 A    
Ba1   O13   2.806557 S    
C39   H40   1.083804 S    
P1    O2    1.569134 S    
P7    O22   1.749038 S    
C65   H57   1.111280 S    
P4    O12   1.526857 D    
C8    H15   1.100612 S    
C17   C31   1.408368 A    
C68   H60   1.110319 S    
P2    O10   1.765997 S    
C31   C32   1.427201 A    
P3    O9    1.544663 D    
P5    O19   1.748204 S    
C17   C22   1.420195 A    
C28   C29   1.396690 A    
C3    H4    1.104040 S    
C12   H23   1.111552 S    
P1    Ba1   3.407257 S    
O11   C2    1.412798 S    
C25   C26   1.422958 A    
C67   H62   1.112067 S    
Ba1   O20   2.939232 S    
P4    O13   1.569105 S    
C38   C41   1.407911 A    
C66   H53   1.110192 S    
C59   H50   1.082635 S    
C19   H35   1.081812 S    
C69   C70   1.527933 S    
O5    C6    1.397384 S    
C53   C58   1.404655 A    
C3    H5    1.109504 S    
P4    O15   1.747248 S    
C16   H34   1.110634 S    
C48   C49   1.402164 A    
C35   C36   1.409155 A    
C70   H65   1.108391 S    
C12   Br3   1.937537 S    
C8    Br2   1.941960 S    
C50   C51   1.409926 A    
C18   C34   1.408873 A    
C9    H16   1.111686 S    
C54   H45   1.082540 S    
C28   H37   1.078417 S    
C68   H58   1.109896 S    
C47   H52   1.081820 S    
C11   C12   1.549081 S    
C6    C7    1.521790 S    
O3    P6    1.748282 S    
P4    C29   1.878981 S    
P3    O8    1.748019 S    
C59   C60   1.404971 A    
C61   C64   1.396752 A    
C14   H29   1.110541 S    
C42   C44   1.418684 A    
C62   C63   1.411223 A    
C57   C58   1.407518 A    
C55   C63   1.492090 S    
C26   C37   1.408079 A    
C5    H9    1.107170 S    
C36   C39   1.404629 A    
P7    O21   1.563469 D    
C53   C54   1.399578 A    
C45   H43   1.082420 S    
C40   H41   1.083774 S    
C8    C9    1.523640 S    
C67   C68   1.529544 S    
C45   C46   1.400472 A    
C6    H11   1.108202 S    
O2    Ba2   2.807157 S    
C56   C57   1.400665 A    
Ba1   Ba2   4.599386 S    
Ba2   O21   2.819406 S    
C13   C14   1.521232 S    
O16   Ba2   2.938377 S    
O14   Ba2   2.777736 S    
C24   C25   1.422054 A    
C7    H13   1.102783 S    
C7    H12   1.109035 S    
C47   C52   1.399954 A    
C1    H20   1.109814 S    
P1    C46   1.889155 S    
C4    H7    1.111565 S    
P8    O23   1.538949 D    
C61   C62   1.397257 A    
C67   H61   1.106451 S    
C1    C65   1.525342 S    
C51   H51   1.082069 S    
C14   H27   1.110353 S    
C20   C21   1.396980 A    
P2    Ba1   3.400823 S    
C19   C20   1.391276 A    
C13   H26   1.109080 S    
C16   H33   1.111077 S    
C43   H42   1.080980 S    
C32   C33   1.432403 A    
C56   H48   1.082934 S    
O8    Ba1   2.747739 S    
O6    P6    1.751716 S    
C21   C22   1.409797 A    
C37   C38   1.422552 A    
P8    O24   1.748688 S    
C25   C30   1.425380 A    
C54   C55   1.408822 A    
C47   C48   1.396073 A    
C41   C43   1.405379 A    
