data_mof_unit_33639.cif
_audit_creation_date              2012-12-11T15:48:04-0500
_audit_creation_method            fapswitch 2.2
_symmetry_space_group_name_H-M    P1
_symmetry_Int_Tables_number       1
_space_group_crystal_system       triclinic
_cell_length_a                    6.923479
_cell_length_b                    17.617013
_cell_length_c                    19.490115
_cell_angle_alpha                 108.597425
_cell_angle_beta                  89.899029
_cell_angle_gamma                 90.326239
_cell_volume                      2253.06028425

loop_
_atom_site_label
_atom_site_type_symbol
_atom_type_description
_atom_site_fract_x
_atom_site_fract_y
_atom_site_fract_z
_atom_type_partial_charge
O1    O     O_R   0.494330 0.415710 0.413720 -0.550165
O2    O     O_R   0.819360 0.430070 0.560210 -0.515803
O3    O     O_R   0.994320 0.584290 0.586280 -0.503641
C1    C     C_R   0.651354 0.416644 0.583240 0.796440
O4    O     O_R   0.823740 0.406290 0.412670 -0.552293
O5    O     O_R   0.998730 0.560340 0.437690 -0.538054
C2    C     C_R   0.654595 0.383151 0.384701 0.693682
O6    O     O_R   0.489920 0.439660 0.562310 -0.546969
O7    O     O_3   0.662330 0.550570 0.508380 -0.358818
V1    V     V_3+5 0.935370 0.490620 0.498440 1.515391
O8    O     O_R   0.328720 0.569930 0.439790 -0.541349
C3    C     C_R   0.159752 0.587060 0.419863 0.681650
O9    O     O_R   0.324340 0.593710 0.587330 -0.539466
C4    C     C_R   0.155237 0.616244 0.615629 0.823258
V2    V     V_3+5 0.435940 0.509380 0.501560 1.491486
O10   O     O_3   0.159110 0.449430 0.491620 -0.382990
C5    C     C_R   0.292401 0.740171 0.705966 -0.281354
H1    H     H_    0.416516 0.736446 0.671141 0.197290
C6    C     C_R   0.281189 0.803925 0.770774 0.655038
C7    C     C_R   0.121806 0.811445 0.817913 -0.371823
C8    C     C_R   0.974897 0.751563 0.798460 0.254586
C9    C     C_R   0.984169 0.690029 0.731794 0.651804
C10   C     C_R   0.143521 0.683202 0.685134 -0.347663
C11   C     C_R   0.302329 0.634733 0.323111 -0.234828
C12   C     C_R   0.150591 0.638540 0.372180 -0.162409
C13   C     C_R   0.990348 0.688992 0.373076 0.299636
C14   C     C_R   0.980940 0.731279 0.322622 0.113326
C15   C     C_R   0.134003 0.726028 0.273017 -0.013855
C16   C     C_R   0.295024 0.676549 0.272303 -0.008625
C17   C     C_R   0.822057 0.780665 0.322042 -0.101852
C18   C     C_R   0.814123 0.824179 0.273537 -0.185457
C19   C     C_R   0.965490 0.820301 0.224876 0.115027
C20   C     C_R   0.126780 0.771566 0.224742 -0.001559
C21   C     C_R   0.281488 0.769157 0.176933 -0.098503
C22   C     C_R   0.439282 0.719395 0.176111 -0.125322
C23   C     C_R   0.445671 0.671592 0.221278 0.336961
C24   C     C_R   0.958544 0.865116 0.176908 -0.258426
C25   C     C_R   0.113308 0.864174 0.129845 -0.189087
C26   C     C_R   0.275290 0.816049 0.130294 0.573472
H2    H     H_    0.425887 0.598329 0.325225 0.157989
H3    H     H_    0.702126 0.785742 0.358964 0.166708
H4    H     H_    0.689315 0.861329 0.274385 0.128035
H5    H     H_    0.833968 0.902326 0.177385 0.168724
H6    H     H_    0.558191 0.716043 0.139031 0.206705
C27   C     C_R   0.779203 0.181108 0.867085 -0.311763
C28   C     C_R   0.618647 0.132267 0.866938 -0.105727
C29   C     C_R   0.459454 0.132412 0.821559 0.338022
C30   C     C_R   0.466302 0.179439 0.774470 0.053858
C31   C     C_R   0.628305 0.229728 0.776338 0.001850
C32   C     C_R   0.783277 0.232453 0.824508 -0.001364
C33   C     C_R   0.317039 0.176107 0.724380 -0.135207
C34   C     C_R   0.323241 0.223714 0.679460 -0.183105
C35   C     C_R   0.480810 0.274312 0.681558 0.120456
C36   C     C_R   0.635861 0.276767 0.729231 0.037754
C37   C     C_R   0.797999 0.326017 0.729675 -0.084423
C38   C     C_R   0.946149 0.330669 0.780232 -0.161174
C39   C     C_R   0.939794 0.285866 0.827791 0.350387
C40   C     C_R   0.485637 0.321625 0.635861 -0.312637
C41   C     C_R   0.646325 0.369901 0.634743 -0.108783
C42   C     C_R   0.805158 0.371335 0.680960 0.351850
H7    H     H_    0.899636 0.178930 0.901612 0.147657
H8    H     H_    0.194090 0.136475 0.718633 0.133899
H9    H     H_    0.204440 0.220406 0.642440 0.119956
H10   H     H_    0.365739 0.319214 0.599476 0.141156
H11   H     H_    0.067520 0.371009 0.785339 0.172838
C43   C     C_R   0.808810 0.270302 0.286981 -0.230778
H12   H     H_    0.946618 0.284743 0.314414 0.143650
C44   C     C_R   0.799100 0.206088 0.222406 0.613684
C45   C     C_R   0.622546 0.184986 0.184600 -0.167038
C46   C     C_R   0.457103 0.229665 0.213912 -0.213749
H13   H     H_    0.319421 0.215648 0.186457 0.207118
C47   C     C_R   0.467126 0.293483 0.278830 -0.148699
H14   H     H_    0.336590 0.326538 0.299463 0.139812
C48   C     C_R   0.643312 0.314763 0.316136 -0.126989
O11   O     O_R   0.774940 0.060470 0.937800 -0.556079
O12   O     O_R   0.440880 0.093730 0.087350 -0.551242
O13   O     O_R   0.266130 0.939630 0.062280 -0.513839
C49   C     C_R   0.610180 0.116784 0.115602 0.707467
O14   O     O_R   0.445480 0.069960 0.939820 -0.520536
O15   O     O_R   0.270770 0.915690 0.913690 -0.492946
C50   C     C_R   0.613546 0.083761 0.917054 0.769100
O16   O     O_R   0.770300 0.084410 0.086380 -0.510940
O17   O     O_3   0.602600 0.949510 0.991670 -0.347484
V3    V     V_3+5 0.329470 0.009370 0.001550 1.618448
O18   O     O_R   0.940760 0.906160 0.912560 -0.541543
C51   C     C_R   0.110067 0.881861 0.885429 0.791655
O19   O     O_R   0.936150 0.929930 0.060100 -0.546848
C52   C     C_R   0.104859 0.914195 0.081181 0.764423
V4    V     V_3+5 0.828930 0.990450 0.998310 1.587352
O20   O     O_3   0.105670 0.050490 0.008320 -0.378362
F1    F     F_    0.424804 0.813309 0.084241 -0.689397
O21   O     O_3   0.602730 0.621765 0.213810 -0.635921
H15   H     H_    0.559944 0.571789 0.222152 0.288161
O22   O     O_3   0.303040 0.083666 0.822206 -0.627772
H16   H     H_    0.183875 0.113695 0.820357 0.286850
O23   O     O_3   0.961853 0.419483 0.679121 -0.616714
H17   H     H_    0.080833 0.389776 0.681980 0.277510
F2    F     F_    0.425605 0.859284 0.786309 -0.643290
O24   O     O_3   0.089994 0.296659 0.876476 -0.643228
H18   H     H_    0.038637 0.292285 0.922452 0.289388
F3    F     F_    0.962983 0.164281 0.197864 -0.711892
O25   O     O_3   0.822540 0.749442 0.843499 -0.570313
H19   H     H_    0.869476 0.768835 0.894108 0.304625
F4    F     F_    0.840785 0.634132 0.714854 -0.627465
O26   O     O_3   0.844170 0.700117 0.423646 -0.646355
H20   H     H_    0.900474 0.697591 0.469527 0.287777

loop_
_geom_bond_atom_site_label_1
_geom_bond_atom_site_label_2
_ccdc_geom_bond_type
C43   C44   A    
O19   C52   A    
C18   H4    S    
C22   C23   A    
O15   V3    S    
O12   V3    S    
C35   C36   A    
C16   C23   A    
C13   C14   A    
C5    C10   A    
O16   V4    S    
C8    C9    A    
C15   C16   A    
O12   C49   A    
O5    C3    A    
C25   C26   A    
V2    O10   S    
C43   C48   A    
C9    F4    S    
C38   C39   A    
C21   C22   A    
C11   C16   A    
O15   C51   A    
C11   H2    S    
C36   C37   A    
O8    V2    S    
C30   C33   A    
O17   V3    S    
O13   C52   A    
C44   C45   A    
C7    C51   S    
C17   H3    S    
C46   H13   S    
O1    V2    S    
O7    V1    S    
C1    O6    A    
C23   O21   S    
C43   H12   S    
C41   C42   A    
C31   C36   A    
O9    C4    A    
C14   C17   A    
O14   V3    S    
C45   C49   S    
O25   H19   S    
C33   H8    S    
V3    O20   S    
C13   O26   S    
C26   F1    S    
C6    F2    S    
C5    H1    S    
C2    C48   S    
C40   H10   S    
O17   V4    S    
C21   C26   A    
C29   C30   A    
C11   C12   A    
C47   C48   A    
O14   C50   A    
O18   V4    S    
O11   C50   A    
O13   V3    S    
C12   C13   A    
O18   C51   A    
C33   C34   A    
C25   C52   S    
C4    C10   S    
C24   H5    S    
O2    C1    A    
C24   C25   A    
C28   C50   S    
C49   O16   A    
O24   H18   S    
C35   C40   A    
O23   H17   S    
C37   C38   A    
C20   C21   A    
O22   H16   S    
C19   C24   A    
C44   F3    S    
C22   H6    S    
O3    C4    A    
C8    O25   S    
C42   O23   S    
C30   C31   A    
C15   C20   A    
O6    V2    S    
O19   V4    S    
O2    V1    S    
C34   C35   A    
O4    C2    A    
C28   C29   A    
O1    C2    A    
C32   C39   A    
C18   C19   A    
C47   H14   S    
C34   H9    S    
O5    V1    S    
O8    C3    A    
O26   H20   S    
C3    C12   S    
C19   C20   A    
C6    C7    A    
O9    V2    S    
C40   C41   A    
O4    V1    S    
O3    V1    S    
V1    O10   S    
C17   C18   A    
C27   C32   A    
C1    C41   S    
C27   H7    S    
O21   H15   S    
C5    C6    A    
C29   O22   S    
O7    V2    S    
C45   C46   A    
O11   V4    S    
C27   C28   A    
C7    C8    A    
C31   C32   A    
C14   C15   A    
C9    C10   A    
C46   C47   A    
V4    O20   S    
C37   C42   A    
C38   H11   S    
C39   O24   S    
