data_mof_unit_47633.cif
_audit_creation_date              2013-03-05T15:56:56-0500
_audit_creation_method            fapswitch 2.2
_symmetry_space_group_name_H-M    P1
_symmetry_Int_Tables_number       1
_space_group_crystal_system       triclinic
_cell_length_a                    6.931845
_cell_length_b                    14.546268
_cell_length_c                    16.087591
_cell_angle_alpha                 89.969211
_cell_angle_beta                  89.795487
_cell_angle_gamma                 89.704637
_cell_volume                      1622.11951297

loop_
_atom_site_label
_atom_site_type_symbol
_atom_site_description
_atom_site_fract_x
_atom_site_fract_y
_atom_site_fract_z
_atom_type_partial_charge
O1    O     O_R   0.505680 0.583900 0.413320 -0.588986
O2    O     O_R   0.176010 0.594950 0.586080 -0.596363
O3    O     O_R   0.005680 0.416100 0.586680 -0.593318
C1    C     C_R   0.344476 0.616835 0.615160 0.947585
O4    O     O_R   0.175960 0.594930 0.413930 -0.610140
O5    O     O_R   0.005640 0.416080 0.413300 -0.607867
C2    C     C_R   0.344445 0.619489 0.386709 0.916359
O6    O     O_R   0.505720 0.583920 0.586700 -0.592392
O7    O     O_3   0.339190 0.441320 0.500000 -0.282494
V1    V     V_3+5 0.064350 0.510890 0.500000 1.135394
O8    O     O_R   0.675920 0.405050 0.413920 -0.593557
C3    C     C_R   0.846447 0.380868 0.386713 0.929131
O9    O     O_R   0.675960 0.405070 0.586070 -0.597695
C4    C     C_R   0.844826 0.382993 0.614884 0.940588
V2    V     V_3+5 0.564340 0.489110 0.500000 1.141167
O10   O     O_3   0.839370 0.558680 0.500000 -0.274068
C5    C     C_R   0.005599 0.318147 0.742330 0.190910
C6    C     C_R   0.852712 0.317580 0.685558 -0.233090
C7    C     C_R   0.701986 0.255048 0.700477 -0.156991
H1    H     H_    0.580599 0.252187 0.658642 0.136516
C8    C     C_R   0.713020 0.190982 0.766065 -0.148466
H2    H     H_    0.599310 0.140912 0.772905 0.129849
C9    C     C_R   0.875429 0.187273 0.818511 -0.231814
C10   C     C_R   0.016952 0.254499 0.807007 0.173924
C11   C     C_3   0.229363 0.243412 0.796362 -0.476587
C12   C     C_3   0.217086 0.313115 0.726182 -0.459530
H3    H     H_    0.268810 0.173183 0.774897 0.186033
H4    H     H_    0.310831 0.268737 0.851083 0.199502
H5    H     H_    0.250153 0.283601 0.664000 0.189102
H6    H     H_    0.290712 0.378929 0.740463 0.198461
C13   C     C_R   0.025918 0.191790 0.239212 -0.206194
H7    H     H_    0.146844 0.145741 0.230039 0.148017
C14   C     C_R   0.021431 0.251345 0.308432 0.208760
C15   C     C_R   0.860280 0.311636 0.318476 -0.236831
C16   C     C_R   0.709319 0.308190 0.260792 -0.215052
H8    H     H_    0.587990 0.354816 0.268251 0.134492
C17   C     C_R   0.713180 0.248165 0.192424 0.228489
C18   C     C_R   0.874538 0.188235 0.181558 -0.204532
C19   C     C_R   0.211221 0.750859 0.696570 -0.123088
H9    H     H_    0.089049 0.754794 0.654906 0.125912
C20   C     C_R   0.225751 0.814934 0.761271 -0.073132
H10   H     H_    0.114544 0.867082 0.767315 0.152573
C21   C     C_R   0.382395 0.812904 0.816844 -0.313944
C22   C     C_R   0.526011 0.744104 0.805740 0.387417
C23   C     C_R   0.511477 0.681208 0.739866 -0.231377
H11   H     H_    0.622553 0.629079 0.732617 0.155799
C24   C     C_R   0.355139 0.683944 0.684612 -0.182405
C25   C     C_R   0.202593 0.757018 0.306611 0.207118
C26   C     C_R   0.217648 0.817597 0.238191 -0.136254
H12   H     H_    0.104605 0.867004 0.225684 0.141051
C27   C     C_R   0.379420 0.817191 0.185541 -0.174961
C28   C     C_R   0.529496 0.754922 0.201377 -0.130872
H13   H     H_    0.656605 0.753438 0.162033 0.146521
C29   C     C_R   0.515605 0.692261 0.266967 -0.136414
H14   H     H_    0.632508 0.643560 0.275710 0.131786
C30   C     C_R   0.352803 0.690815 0.319664 -0.223236
O11   O     O_R   0.229200 0.915950 0.913350 -0.571571
O12   O     O_R   0.559090 0.905000 0.086080 -0.596344
O13   O     O_R   0.729280 0.083880 0.086680 -0.602284
C31   C     C_R   0.390348 0.883249 0.115261 0.940074
O14   O     O_R   0.558920 0.904980 0.913920 -0.556749
O15   O     O_R   0.729110 0.083860 0.913300 -0.598015
C32   C     C_R   0.390783 0.881854 0.885546 0.962200
O16   O     O_R   0.229360 0.915970 0.086730 -0.597953
O17   O     O_3   0.395680 0.058580 0.000030 -0.291834
V3    V     V_3+5 0.670570 0.989070 0.999990 1.198670
O18   O     O_R   0.058820 0.094950 0.913870 -0.599616
C33   C     C_R   0.889638 0.116952 0.885032 0.931404
O19   O     O_R   0.058990 0.094970 0.086020 -0.610308
C34   C     C_R   0.888380 0.119008 0.113351 0.931567
V4    V     V_3+5 0.170560 0.010930 0.999930 1.166501
O20   O     O_3   0.895590 0.941310 0.999960 -0.231148
C35   C     C_3   0.544281 0.252985 0.132516 -0.382655
C36   C     C_3   0.603201 0.293174 0.048428 -0.803983
H15   H     H_    0.660209 0.363785 0.056782 0.252951
H16   H     H_    0.714944 0.250340 0.017513 0.233210
H17   H     H_    0.475264 0.296647 0.007171 0.241378
H18   H     H_    0.476280 0.184784 0.125068 0.220233
H19   H     H_    0.427343 0.297587 0.157895 0.182134
N1    N     N_R   0.683122 0.734038 0.862534 0.228034
O21   O     O_R   0.830312 0.788727 0.856749 -0.402474
O22   O     O_R   0.700167 0.658416 0.905161 -0.408667
C37   C     C_3   0.030544 0.763661 0.366035 -0.320679
C38   C     C_3   0.905335 0.850368 0.359014 -0.963486
H20   H     H_    0.995204 0.913039 0.364902 0.260448
H21   H     H_    0.826078 0.851378 0.299186 0.265242
H22   H     H_    0.796630 0.850783 0.409902 0.263317
H23   H     H_    0.935662 0.703348 0.356324 0.213392
H24   H     H_    0.085337 0.762022 0.430890 0.187451
C39   C     C_3   0.185124 0.250381 0.371805 -0.304390
C40   C     C_3   0.322762 0.167781 0.368232 -0.968252
H25   H     H_    0.240993 0.102424 0.372548 0.262336
H26   H     H_    0.410167 0.169009 0.310278 0.260112
H27   H     H_    0.424065 0.171048 0.421494 0.261398
H28   H     H_    0.272434 0.313608 0.363754 0.215248
H29   H     H_    0.121389 0.250736 0.435330 0.182304

loop_
_geom_bond_atom_site_label_1
_geom_bond_atom_site_label_2
_geom_bond_distance
_ccdc_geom_bond_type
C18   C34   1.492224 S    
C35   C36   1.528472 S    
C4    C6    1.483178 S    
C7    H1    1.080352 S    
C38   H22   1.110679 S    
C1    O6    1.295852 A    
C21   C32   1.494380 S    
C39   H28   1.110855 S    
C19   C20   1.401810 A    
C23   H11   1.083915 S    
C22   C23   1.404636 A    
C11   H4    1.111595 S    
C36   H16   1.108226 S    
C5    C12   1.489357 S    
C7    C8    1.409410 A    
C38   H21   1.109998 S    
C6    C7    1.408687 A    
O13   V3    2.006124 S    
O5    C3    1.293229 A    
O12   C31   1.299385 A    
V2    O10   2.163009 S    
O14   C32   1.299200 A    
C15   C16   1.402225 A    
C20   H10   1.082881 S    
O16   V4    2.005065 S    
O19   V4    1.998787 S    
O8    V2    1.998880 S    
O14   V3    2.007910 S    
O12   V3    2.002777 S    
V3    O20   1.704248 S    
C13   H7    1.080068 S    
C26   C27   1.402896 A    
C36   H17   1.110527 S    
C35   H18   1.107297 S    
C13   C14   1.411398 A    
O1    V2    2.001825 S    
O7    V1    2.152632 S    
C37   H23   1.110635 S    
O9    C4    1.299248 A    
C20   C21   1.409175 A    
C2    C30   1.497382 S    
C28   C29   1.397376 A    
O11   C32   1.300588 A    
C23   C24   1.404479 A    
C37   H24   1.111822 S    
C29   C30   1.409283 A    
C5    C10   1.394561 A    
C36   H15   1.110824 S    
O15   V3    2.002630 S    
O18   C33   1.301099 A    
C22   N1    1.430958 S    
C10   C11   1.489661 S    
N1    O22   1.301035 A    
C40   H25   1.111373 S    
O4    C2    1.297651 A    
C11   C12   1.519400 S    
O17   V4    1.710777 S    
O11   V4    2.001591 S    
C27   C28   1.399816 A    
C16   H8    1.084083 S    
C9    C33   1.483173 S    
O2    C1    1.300697 A    
C21   C22   1.418869 A    
C17   C18   1.424890 A    
C40   H26   1.110284 S    
C37   C38   1.531704 S    
C9    C10   1.400465 A    
C5    C6    1.401566 A    
C35   H19   1.112292 S    
C38   H20   1.111076 S    
O3    C4    1.297209 A    
C25   C26   1.413521 A    
C12   H6    1.111700 S    
O6    V2    2.001202 S    
C8    C9    1.410077 A    
C3    C15   1.492626 S    
O2    V1    2.007780 S    
C19   H9    1.083163 S    
C28   H13   1.083175 S    
C19   C24   1.403040 A    
C25   C30   1.430615 A    
C17   C35   1.520411 S    
C29   H14   1.083103 S    
C16   C17   1.404768 A    
O1    C2    1.302936 A    
N1    O21   1.300044 A    
O5    V1    2.006238 S    
O8    C3    1.305668 A    
C25   C37   1.528516 S    
C39   H29   1.111926 S    
C11   H3    1.111048 S    
C13   C18   1.404142 A    
O15   C33   1.295539 A    
C31   O16   1.296343 A    
O9    V2    2.001612 S    
O7    V2    1.711795 S    
V4    O20   2.162985 S    
O3    V1    2.002703 S    
V1    O10   1.704172 S    
C14   C39   1.528152 S    
C40   H27   1.110972 S    
C39   C40   1.531369 S    
C14   C15   1.425436 A    
O18   V4    2.001643 S    
O17   V3    2.152530 S    
O19   C34   1.306302 A    
O13   C34   1.292641 A    
O4    V1    2.002635 S    
C12   H5    1.111468 S    
C26   H12   1.079900 S    
C27   C31   1.485384 S    
C8    H2    1.081236 S    
C1    C24   1.486370 S    
