data_mof_unit_24929.cif
_audit_creation_date              2012-12-11T14:07:50-0500
_audit_creation_method            fapswitch 2.2
_symmetry_space_group_name_H-M    P1
_symmetry_Int_Tables_number       1
_space_group_crystal_system       triclinic
_cell_length_a                    19.691149
_cell_length_b                    17.118019
_cell_length_c                    15.413767
_cell_angle_alpha                 90.397785
_cell_angle_beta                  53.875614
_cell_angle_gamma                 89.840077
_cell_volume                      4196.41262521

loop_
_atom_site_label
_atom_site_type_symbol
_atom_type_description
_atom_site_fract_x
_atom_site_fract_y
_atom_site_fract_z
_atom_type_partial_charge
C1    C     C_R   0.376058 0.197699 0.994959 -0.125190
C2    C     C_R   0.344573 0.821277 0.039926 0.016039
C3    C     C_R   0.876063 0.697700 0.994953 -0.124821
C4    C     C_R   0.844585 0.321269 0.039899 0.013812
C5    C     C_R   0.669441 0.917364 0.050875 -0.186991
C6    C     C_R   0.633526 0.106719 0.104976 -0.216576
C7    C     C_R   0.169442 0.417366 0.050873 -0.186190
C8    C     C_R   0.133508 0.606726 0.104999 -0.215897
C9    C     C_R   0.649197 0.185359 0.073918 -0.046015
C10   C     C_R   0.710460 0.852504 0.982932 -0.055230
C11   C     C_R   0.149173 0.685370 0.073957 -0.038583
C12   C     C_R   0.210460 0.352505 0.982931 -0.056118
C13   C     C_R   0.610381 0.818653 0.693929 0.283586
C14   C     C_R   0.623473 0.178123 0.691187 0.289943
C15   C     C_R   0.110403 0.318651 0.693928 0.283137
C16   C     C_R   0.123408 0.678137 0.691183 0.284992
C17   C     C_3   0.230462 0.139397 0.521450 0.764365
C18   C     C_3   0.280722 0.834032 0.514355 0.684590
C19   C     C_3   0.730399 0.639389 0.521447 0.760365
C20   C     C_3   0.780655 0.334076 0.514362 0.690779
C21   C     C_3   0.179776 0.190548 0.621398 -0.508228
C22   C     C_3   0.219431 0.789724 0.615718 -0.479760
C23   C     C_3   0.679723 0.690543 0.621393 -0.505120
C24   C     C_3   0.719385 0.289792 0.615758 -0.481096
C25   C     C_3   0.292724 0.261615 0.412343 0.424957
C26   C     C_3   0.320061 0.707994 0.410059 0.464981
C27   C     C_3   0.792690 0.761608 0.412336 0.431584
C28   C     C_3   0.820035 0.208028 0.410033 0.469315
C29   C     C_3   0.663347 0.703910 0.437918 0.107342
C30   C     C_3   0.703533 0.291392 0.431462 0.177426
C31   C     C_3   0.163380 0.203890 0.437938 0.105408
C32   C     C_3   0.203623 0.791426 0.431415 0.168724
C33   C     C_3   0.248234 0.183502 0.421893 -0.447755
C34   C     C_3   0.290413 0.793026 0.416956 -0.427632
C35   C     C_3   0.748194 0.683499 0.421881 -0.451858
C36   C     C_3   0.790336 0.293045 0.416966 -0.454618
C37   C     C_3   0.653382 0.768456 0.596626 -0.393488
C38   C     C_3   0.678336 0.222422 0.592870 -0.410884
C39   C     C_3   0.153414 0.268452 0.596633 -0.389831
C40   C     C_3   0.178296 0.722428 0.592832 -0.395952
C41   C     C_3   0.737345 0.811303 0.513069 0.526132
C42   C     C_3   0.752669 0.165404 0.511436 0.522424
C43   C     C_3   0.237369 0.311311 0.513072 0.525883
C44   C     C_3   0.252556 0.665357 0.511356 0.520441
C45   C     C_R   0.379933 0.807836 0.216758 -0.051419
C46   C     C_R   0.349939 0.171890 0.218801 -0.093559
C47   C     C_R   0.879863 0.307864 0.216773 -0.055334
C48   C     C_R   0.849928 0.671880 0.218789 -0.095093
C49   C     C_3   0.600414 0.749062 0.549680 0.633375
C50   C     C_3   0.631132 0.258730 0.545876 0.637862
C51   C     C_3   0.100442 0.249034 0.549699 0.631559
C52   C     C_3   0.131131 0.758818 0.545815 0.604935
C53   C     C_2   0.191734 0.742550 0.095915 -0.108600
C54   C     C_2   0.283754 0.314313 0.964050 -0.164638
C55   C     C_2   0.691775 0.242537 0.095836 -0.078351
C56   C     C_2   0.783754 0.814313 0.964049 -0.165940
C57   C     C_2   0.718584 0.309369 0.039829 -0.126830
C58   C     C_2   0.816198 0.750019 0.902076 -0.005593
C59   C     C_2   0.218511 0.809411 0.039968 -0.115821
C60   C     C_2   0.316195 0.250018 0.902079 -0.007131
C61   C     C_R   0.331559 0.911318 0.947451 -0.039690
C62   C     C_R   0.367091 0.112291 0.894925 -0.075463
C63   C     C_R   0.831579 0.411308 0.947412 -0.037798
C64   C     C_R   0.867088 0.612290 0.894929 -0.076133
C65   C     C_R   0.359413 0.079764 0.313494 0.021810
C66   C     C_R   0.392623 0.899331 0.310328 0.008854
C67   C     C_R   0.859391 0.579758 0.313488 0.032881
C68   C     C_R   0.892554 0.399355 0.310353 0.009518
C69   C     C_R   0.349753 0.188666 0.931062 0.117559
C70   C     C_R   0.292309 0.848387 0.015498 0.098801
C71   C     C_R   0.849755 0.688666 0.931060 0.115729
C72   C     C_R   0.792337 0.348371 0.015440 0.098762
C73   C     C_R   0.355532 0.830090 0.317415 0.234442
C74   C     C_R   0.310060 0.140554 0.320887 0.297007
C75   C     C_R   0.855422 0.330137 0.317438 0.237274
C76   C     C_R   0.810031 0.640542 0.320875 0.292932
C77   C     C_R   0.620663 0.199977 0.013157 0.712844
C78   C     C_R   0.659325 0.821168 0.957265 0.735650
C79   C     C_R   0.120661 0.699979 0.013166 0.713808
C80   C     C_R   0.159325 0.321168 0.957266 0.734863
C81   C     C_R   0.598537 0.801901 0.790215 0.012771
C82   C     C_R   0.607572 0.195878 0.789347 -0.023556
C83   C     C_R   0.098550 0.301902 0.790217 0.011701
C84   C     C_R   0.107515 0.695890 0.789350 -0.023143
C85   C     C_R   0.600050 0.102161 0.692982 -0.040766
C86   C     C_R   0.595842 0.896957 0.694262 -0.035219
C87   C     C_R   0.100045 0.602151 0.692980 -0.043417
C88   C     C_R   0.095853 0.396954 0.694259 -0.034925
H1    H     H_    0.385938 0.252177 0.021654 0.128161
H2    H     H_    0.338836 0.768619 0.081185 0.079082
H3    H     H_    0.885947 0.752179 0.021642 0.128145
H4    H     H_    0.838862 0.268593 0.081119 0.079852
H5    H     H_    0.625739 0.658196 0.688538 0.252884
H6    H     H_    0.672301 0.331316 0.678543 0.257058
H7    H     H_    0.125800 0.158192 0.688542 0.253267
H8    H     H_    0.172399 0.831261 0.678532 0.256943
H9    H     H_    0.219837 0.203026 0.648992 0.221529
H10   H     H_    0.254220 0.765459 0.646215 0.220515
H11   H     H_    0.719785 0.703004 0.648989 0.225901
H12   H     H_    0.754172 0.265621 0.646306 0.221493
H13   H     H_    0.682554 0.746455 0.373146 0.080068
H14   H     H_    0.714182 0.246669 0.371806 0.074150
H15   H     H_    0.182575 0.246435 0.373169 0.079921
H16   H     H_    0.214364 0.746655 0.371792 0.035289
H17   H     H_    0.305600 0.296374 0.343416 0.051311
H18   H     H_    0.330264 0.676456 0.339829 0.022223
H19   H     H_    0.805564 0.796371 0.343413 0.047588
H20   H     H_    0.830092 0.176461 0.339906 0.021574
H21   H     H_    0.369516 0.752442 0.192871 0.082193
H22   H     H_    0.330034 0.222224 0.197121 0.085974
H23   H     H_    0.869448 0.252468 0.192891 0.084051
H24   H     H_    0.830026 0.722212 0.197102 0.086808
H25   H     H_    0.725921 0.868144 0.490286 0.092064
H26   H     H_    0.730694 0.116016 0.487703 0.064880
H27   H     H_    0.225932 0.368144 0.490284 0.093174
H28   H     H_    0.230494 0.616140 0.487476 0.064299
H29   H     H_    0.213520 0.723453 0.142608 0.136042
H30   H     H_    0.298418 0.330179 0.019470 0.143874
H31   H     H_    0.713526 0.223468 0.142578 0.148677
H32   H     H_    0.798419 0.830179 0.019469 0.144073
H33   H     H_    0.697294 0.330109 0.993779 0.207769
H34   H     H_    0.805562 0.736040 0.842407 0.212542
H35   H     H_    0.197160 0.830196 0.994006 0.206982
H36   H     H_    0.305563 0.236040 0.842406 0.209995
H37   H     H_    0.310298 0.945174 0.908560 0.120755
H38   H     H_    0.364076 0.087107 0.832720 0.148023
H39   H     H_    0.810334 0.445152 0.908493 0.121498
H40   H     H_    0.864065 0.587103 0.832732 0.149997
H41   H     H_    0.349858 0.044376 0.376911 0.130304
H42   H     H_    0.398005 0.928088 0.368514 0.120186
H43   H     H_    0.849822 0.544373 0.376914 0.131301
H44   H     H_    0.897935 0.428101 0.368545 0.123050
H45   H     H_    0.596415 0.744951 0.821328 0.159843
H46   H     H_    0.612688 0.251110 0.819259 0.167398
H47   H     H_    0.096427 0.244953 0.821334 0.159916
H48   H     H_    0.112612 0.751129 0.819264 0.167285
H49   H     H_    0.601153 0.069471 0.632184 0.160250
H50   H     H_    0.599006 0.931111 0.633677 0.160533
H51   H     H_    0.101200 0.569429 0.632165 0.160338
H52   H     H_    0.099015 0.431101 0.633670 0.160786
H53   H     H_    0.690644 0.951622 0.089705 0.153204
H54   H     H_    0.639642 0.080462 0.163695 0.156091
H55   H     H_    0.190645 0.451625 0.089702 0.153131
H56   H     H_    0.139613 0.580470 0.163730 0.154908
H57   H     H_    0.290212 0.125709 0.510827 0.071630
H58   H     H_    0.342331 0.834681 0.502371 0.126034
H59   H     H_    0.790139 0.625679 0.510837 0.085486
H60   H     H_    0.842273 0.334730 0.502355 0.127502
N1    N     N_R   0.408680 0.130160 0.995800 -0.049834
N2    N     N_R   0.408680 0.869840 0.995800 -0.060824
N3    N     N_R   0.908680 0.630160 0.995800 -0.049959
N4    N     N_R   0.908680 0.369840 0.995800 -0.060919
N5    N     N_R   0.421680 0.867580 0.153120 -0.053916
N6    N     N_R   0.421680 0.132420 0.153120 -0.048561
N7    N     N_R   0.921680 0.367580 0.153120 -0.054448
N8    N     N_R   0.921680 0.632420 0.153120 -0.049175
N9    N     N_R   0.403730 0.921770 0.935950 -0.053331
N10   N     N_R   0.403730 0.078230 0.935950 -0.058983
N11   N     N_R   0.903730 0.421770 0.935950 -0.053638
N12   N     N_R   0.903730 0.578230 0.935950 -0.059296
N13   N     N_R   0.426630 0.075970 0.212960 -0.074320
N14   N     N_R   0.426630 0.924030 0.212960 -0.068615
N15   N     N_R   0.926630 0.575970 0.212960 -0.074227
N16   N     N_R   0.926630 0.424030 0.212960 -0.069826
N17   N     N_R   0.591320 0.134600 0.004200 -0.107705
N18   N     N_R   0.591320 0.865400 0.004200 -0.119186
N19   N     N_R   0.091320 0.634600 0.004200 -0.108503
N20   N     N_R   0.091320 0.365400 0.004200 -0.118955
N21   N     N_R   0.578320 0.867660 0.846880 -0.075091
N22   N     N_R   0.578320 0.132340 0.846880 -0.070024
N23   N     N_R   0.078320 0.367660 0.846880 -0.075090
N24   N     N_R   0.078320 0.632340 0.846880 -0.069820
N25   N     N_R   0.573370 0.074390 0.787040 -0.071662
N26   N     N_R   0.573370 0.925610 0.787040 -0.072738
N27   N     N_R   0.073370 0.574390 0.787040 -0.071189
N28   N     N_R   0.073370 0.425610 0.787040 -0.072659
N29   N     N_R   0.596270 0.927870 0.064040 -0.081109
N30   N     N_R   0.596270 0.072130 0.064040 -0.073131
N31   N     N_R   0.096270 0.427870 0.064040 -0.080966
N32   N     N_R   0.096270 0.572130 0.064040 -0.073085
Ni1   Ni    Ni4+2 0.500000 0.131190 0.000000 0.297465
Ni2   Ni    Ni4+2 0.500000 0.868810 0.000000 0.269735
Ni3   Ni    Ni4+2 0.000000 0.631190 0.000000 0.296820
Ni4   Ni    Ni4+2 0.000000 0.368810 0.000000 0.269360
Ni5   Ni    Ni4+2 0.488650 0.000000 0.862740 0.278425
Ni6   Ni    Ni4+2 0.988650 0.500000 0.862740 0.278676
Ni7   Ni    Ni4+2 0.511350 0.000000 0.137260 0.241863
Ni8   Ni    Ni4+2 0.011350 0.500000 0.137260 0.246448
F1    F     F_    0.189622 0.069704 0.537272 -0.548172
F2    F     F_    0.253849 0.910837 0.527504 -0.612040
F3    F     F_    0.689537 0.569710 0.537269 -0.548260
F4    F     F_    0.753769 0.410876 0.527511 -0.611754
F5    F     F_    0.369842 0.247075 0.393816 -0.609540
F6    F     F_    0.396044 0.706584 0.397366 -0.568867
F7    F     F_    0.869812 0.747062 0.393795 -0.593103
F8    F     F_    0.896124 0.206658 0.397068 -0.567997
F9    F     F_    0.780607 0.828610 0.556629 -0.578535
F10   F     F_    0.788259 0.132253 0.558303 -0.575487
F11   F     F_    0.280628 0.328638 0.556630 -0.584842
F12   F     F_    0.288019 0.631945 0.558238 -0.575730
S1    S     S_3+6 0.620182 0.626132 0.402396 0.128660
O1    O     O_2   0.586804 0.559805 0.479837 -0.057089
O2    O     O_2   0.549848 0.657781 0.400528 -0.139518
O3    O     O_3   0.693852 0.589890 0.279100 -0.503180
H61   H     H_    0.700345 0.630009 0.228732 0.335767
S2    S     S_3+6 0.680197 0.377306 0.383063 0.121432
O4    O     O_2   0.711416 0.450098 0.402922 -0.109638
O5    O     O_2   0.724718 0.368352 0.264232 -0.336022
O6    O     O_3   0.577537 0.388143 0.437883 -0.350725
H62   H     H_    0.575071 0.424076 0.389694 0.405925
S3    S     S_3+6 0.120229 0.126095 0.402418 0.129468
O7    O     O_2   0.086918 0.059746 0.479821 -0.054892
O8    O     O_2   0.049851 0.157708 0.400617 -0.139620
O9    O     O_3   0.193890 0.089896 0.279091 -0.502166
H63   H     H_    0.200348 0.130028 0.228758 0.335516
S4    S     S_3+6 0.180352 0.877341 0.382948 0.096324
O10   O     O_2   0.211688 0.950119 0.402660 -0.101740
O11   O     O_2   0.224794 0.868299 0.264146 -0.347643
O12   O     O_3   0.077684 0.888276 0.437867 -0.371094
H64   H     H_    0.075229 0.923919 0.389413 0.407572
S5    S     S_3+6 0.504731 0.695360 0.650669 0.081177
O13   O     O_2   0.447321 0.688833 0.616767 -0.135658
O14   O     O_2   0.522324 0.614617 0.670612 -0.202924
O15   O     O_3   0.452520 0.745116 0.767922 -0.559073
H65   H     H_    0.399264 0.716491 0.816168 0.360972
S6    S     S_3+6 0.552353 0.332068 0.641059 0.095283
O16   O     O_2   0.515846 0.310161 0.754793 -0.354077
O17   O     O_2   0.589791 0.411943 0.621684 -0.106708
O18   O     O_3   0.471160 0.337016 0.632325 -0.374889
H66   H     H_    0.430737 0.374307 0.689615 0.378161
S7    S     S_3+6 0.004778 0.195311 0.650693 0.080996
O19   O     O_2   0.947353 0.188774 0.616816 -0.135550
O20   O     O_2   0.022399 0.114570 0.670607 -0.203136
O21   O     O_3   0.952570 0.245052 0.767957 -0.559227
H67   H     H_    0.899323 0.216415 0.816206 0.360756
S8    S     S_3+6 0.052466 0.832233 0.640990 0.096604
O22   O     O_2   0.015982 0.810339 0.754721 -0.354684
O23   O     O_2   0.090006 0.912064 0.621544 -0.103532
O24   O     O_3   0.971226 0.837305 0.632366 -0.365499
H68   H     H_    0.930915 0.874697 0.689581 0.377999
S9    S     S_3+6 0.560655 0.835079 0.521505 -0.045366
O25   O     O_2   0.526239 0.809758 0.461031 -0.204030
O26   O     O_2   0.489963 0.873522 0.624332 -0.270346
O27   O     O_3   0.635873 0.901007 0.445142 -0.631570
H69   H     H_    0.606044 0.945960 0.441196 0.404826
S10   S     S_3+6 0.571946 0.187744 0.525981 -0.036698
O28   O     O_2   0.624401 0.117645 0.461925 -0.402070
O29   O     O_2   0.495292 0.161795 0.632405 -0.291023
O30   O     O_3   0.539917 0.230056 0.457527 -0.405811
H70   H     H_    0.505346 0.190147 0.453823 0.395564
S11   S     S_3+6 0.060656 0.335034 0.521536 -0.043042
O31   O     O_2   0.026236 0.309693 0.461074 -0.202808
O32   O     O_2   0.989963 0.373472 0.624367 -0.267891
O33   O     O_3   0.135860 0.400971 0.445163 -0.631511
H71   H     H_    0.106035 0.445874 0.441107 0.407311
S12   S     S_3+6 0.071741 0.687867 0.526110 -0.016160
O34   O     O_2   0.123773 0.617473 0.462291 -0.409804
O35   O     O_2   0.995445 0.661600 0.632567 -0.252778
O36   O     O_3   0.038086 0.729739 0.459135 -0.365064
H72   H     H_    0.084554 0.722461 0.381978 0.353619
F13   F     F_    0.596503 0.269865 0.998414 -0.723003
F14   F     F_    0.668079 0.752314 0.907765 -0.735062
F15   F     F_    0.096538 0.769866 0.998363 -0.723562
F16   F     F_    0.168077 0.252310 0.907773 -0.736440

loop_
_geom_bond_atom_site_label_1
_geom_bond_atom_site_label_2
_ccdc_geom_bond_type
C61   C70   A    
C2    N2    A    
C23   H11   S    
C82   N22   A    
C84   N24   A    
C22   H10   S    
N2    N9    A    
C2    C70   A    
C79   F15   S    
S1    O1    D    
C48   C76   A    
N6    N13   A    
C39   C51   S    
O24   H68   S    
N18   Ni2   S    
S4    O12   S    
N12   Ni6   S    
O15   H65   S    
C25   C43   S    
C6    C9    A    
C7    H55   S    
C53   C59   D    
C26   C44   S    
S11   O31   D    
N2    Ni2   S    
C54   C60   D    
C15   C83   A    
O27   H69   S    
C68   C75   A    
N25   Ni5   S    
O30   H70   S    
O18   H66   S    
C77   F13   S    
N11   Ni6   S    
C45   C73   A    
N9    Ni5   S    
C38   C42   S    
S5    O15   S    
C24   H6    S    
C86   N26   A    
C66   H42   S    
N26   Ni5   S    
N14   Ni7   S    
S2    O5    D    
C58   C71   S    
S11   O32   D    
C83   N23   A    
C77   N17   A    
N28   Ni6   S    
C30   S2    S    
S12   O36   S    
C13   C81   A    
C16   C84   A    
C37   C49   S    
S8    O22   D    
C66   N14   A    
C3    H3    S    
S9    O25   D    
C64   C71   A    
C21   H7    S    
C60   H36   S    
C27   C41   S    
C88   H52   S    
C56   C58   D    
N32   Ni8   S    
C43   H27   S    
C5    H53   S    
C26   C34   S    
N19   Ni3   S    
C20   C24   S    
N8    N15   A    
C87   H51   S    
N20   Ni4   S    
S12   O35   D    
C13   C86   A    
C16   C87   A    
C85   N25   A    
N21   N26   A    
C62   N10   A    
C1    N1    A    
C9    C55   S    
C81   N21   A    
S2    O4    D    
N4    Ni4   S    
C51   S11   S    
N1    N10   A    
C45   H21   S    
C83   H47   S    
C11   C53   S    
N24   N27   A    
N19   N32   A    
C30   C50   S    
N4    N11   A    
C24   H12   S    
C6    N30   A    
N1    Ni1   S    
N17   N30   A    
C78   F14   S    
C26   H18   S    
S10   O30   S    
C17   C33   S    
S1    O2    D    
C4    N4    A    
N6    Ni1   S    
N8    Ni3   S    
C42   H26   S    
C56   H32   S    
C34   C73   S    
C68   N16   A    
C10   C78   A    
C7    C12   A    
C46   N6    A    
S10   O29   D    
C35   C76   S    
C58   H34   S    
C78   N18   A    
C61   H37   S    
C51   S7    S    
C32   C52   S    
N23   Ni4   S    
C42   F10   S    
C29   S1    S    
S4    O10   D    
S7    O20   D    
C25   H17   S    
C41   H25   S    
O12   H64   S    
C62   H38   S    
O9    H63   S    
S11   O33   S    
C55   H31   S    
N31   Ni8   S    
N7    Ni4   S    
C59   H35   S    
C32   C34   S    
C40   C52   S    
C66   C73   A    
C57   H33   S    
C1    C69   A    
C65   C74   A    
C23   H5    S    
C62   C69   A    
C63   N11   A    
N15   Ni8   S    
S9    O26   D    
C44   F12   S    
C68   H44   S    
C82   H46   S    
C19   C23   S    
C48   H24   S    
N24   Ni3   S    
O33   H71   S    
O3    H61   S    
C36   C75   S    
C61   N9    A    
C14   C38   S    
S5    O13   D    
C27   C35   S    
C8    N32   A    
C32   H16   S    
C24   C38   S    
S3    O7    D    
C21   C39   S    
C27   H19   S    
C54   H30   S    
C12   C54   S    
C22   C40   S    
S12   O34   D    
C30   H14   S    
C31   C33   S    
O6    H62   S    
C29   H13   S    
C8    H56   S    
N18   N29   A    
C9    C77   A    
C29   C49   S    
C81   H45   S    
C18   C34   S    
C46   C74   A    
C15   C39   S    
C11   C79   A    
C16   C40   S    
N30   Ni7   S    
C41   F9    S    
S3    O8    D    
C19   C35   S    
C5    N29   A    
S6    O17   D    
C55   C57   D    
N22   Ni1   S    
C17   H57   S    
S1    O3    S    
C50   S6    S    
C84   H48   S    
C6    H54   S    
O21   H67   S    
C14   C82   A    
C65   N13   A    
O36   H72   S    
C26   F6    S    
N10   Ni5   S    
C85   H49   S    
C4    C72   A    
C25   F5    S    
C10   C56   S    
C52   S8    S    
S10   O28   D    
C18   F2    S    
C1    H1    S    
C2    H2    S    
C49   S5    S    
C18   C22   S    
C22   H8    S    
C44   H28   S    
C67   H43   S    
C14   C85   A    
C31   C51   S    
C18   H58   S    
N29   Ni7   S    
C80   N20   A    
C20   F4    S    
C65   H41   S    
S8    O24   S    
N3    Ni3   S    
C3    C71   A    
C38   C50   S    
N7    N16   A    
S6    O18   S    
C87   N27   A    
N23   N28   A    
C29   C35   S    
C3    N3    A    
C64   N12   A    
C88   N28   A    
N20   N31   A    
C30   C36   S    
N5    N14   A    
C7    N31   A    
S9    O27   S    
C17   F1    S    
N3    N12   A    
C46   H22   S    
C52   S12   S    
N17   Ni1   S    
C5    C10   A    
S5    O14   D    
C80   F16   S    
C23   C37   S    
N27   Ni6   S    
C49   S9    S    
S2    O6    S    
C20   H60   S    
C27   F7    S    
C47   N7    A    
C60   C69   S    
C28   H20   S    
C8    C11   A    
C47   H23   S    
C12   C80   A    
C28   C42   S    
C63   C72   A    
C28   F8    S    
S8    O23   D    
S7    O21   S    
C53   H29   S    
N16   Ni8   S    
C57   C72   S    
C37   C41   S    
C48   N8    A    
C19   H59   S    
N21   Ni2   S    
C25   C33   S    
C21   H9    S    
C86   H50   S    
C59   C70   S    
C47   C75   A    
C32   S4    S    
C67   N15   A    
C33   C74   S    
C40   C44   S    
S3    O9    S    
C45   N5    A    
N5    Ni2   S    
C28   C36   S    
N13   Ni7   S    
S6    O16   D    
C39   C43   S    
C19   F3    S    
S7    O19   D    
C20   C36   S    
C13   C37   S    
C43   F11   S    
C67   C76   A    
C79   N19   A    
C64   H40   S    
C50   S10   S    
C31   S3    S    
C63   H39   S    
S4    O11   D    
C31   H15   S    
C15   C88   A    
C4    H4    S    
N22   N25   A    
C17   C21   S    
