data_mof_unit_64900.cif
_audit_creation_date              2012-12-10T17:04:57-0500
_audit_creation_method            fapswitch 2.2
_symmetry_space_group_name_H-M    P1
_symmetry_Int_Tables_number       1
_space_group_crystal_system       triclinic
_cell_length_a                    15.073979
_cell_length_b                    15.095868
_cell_length_c                    19.404662
_cell_angle_alpha                 89.573859
_cell_angle_beta                  90.652183
_cell_angle_gamma                 90.089853
_cell_volume                      4415.21088884

loop_
_atom_site_label
_atom_site_type_symbol
_atom_type_description
_atom_site_fract_x
_atom_site_fract_y
_atom_site_fract_z
_atom_type_partial_charge
C1    C     C_R   0.486797 0.259917 0.510550 0.532665
C2    C     C_2   0.557663 0.503314 0.021424 -0.128696
C3    C     C_2   0.487451 0.484027 0.981356 -0.131679
C4    C     C_R   0.515828 0.739400 0.489145 0.536388
C5    C     C_R   0.490989 0.508444 0.762275 0.055792
C6    C     C_R   0.479359 0.163552 0.511197 0.020352
C7    C     C_R   0.525689 0.834866 0.484668 0.034589
C8    C     C_R   0.619577 0.964179 0.487485 -0.079099
C9    C     C_R   0.610270 0.873160 0.481238 0.089157
C10   C     C_R   0.450596 0.888006 0.490127 -0.124271
C11   C     C_R   0.458841 0.980264 0.495948 0.033791
C12   C     C_R   0.550633 0.499235 0.096733 -0.004278
C13   C     C_R   0.545179 0.018608 0.496859 0.008447
C14   C     C_R   0.555416 0.110191 0.506883 0.080660
C15   C     C_R   0.394595 0.125739 0.510466 -0.110370
C16   C     C_R   0.260374 0.515179 0.490487 0.525126
C17   C     C_R   0.382897 0.034093 0.503294 0.145502
C18   C     C_R   0.164975 0.529015 0.494160 0.014535
C19   C     C_R   0.836192 0.477378 0.514899 0.001735
C20   C     C_R   0.966330 0.383663 0.503590 0.154285
C21   C     C_R   0.874211 0.393650 0.507951 -0.077950
C22   C     C_R   0.889441 0.552589 0.519405 -0.098832
C23   C     C_R   0.512691 0.424054 0.127405 -0.112942
C24   C     C_R   0.981763 0.545994 0.513025 0.001241
C25   C     C_R   0.020020 0.460763 0.504076 0.034665
C26   C     C_R   0.111300 0.454121 0.494313 -0.132811
C27   C     C_R   0.128684 0.613686 0.504934 0.109681
C28   C     C_R   0.739942 0.485775 0.511612 0.524633
C29   C     C_R   0.036486 0.622490 0.514212 0.113063
C30   C     C_R   0.490416 0.510526 0.687288 0.548231
C31   C     C_R   0.510315 0.489582 0.312842 0.548662
C32   C     C_R   0.523908 0.492820 0.238918 0.028170
C33   C     C_R   0.564168 0.568011 0.209098 0.098994
C34   C     C_R   0.499448 0.420332 0.198074 0.055484
C35   C     C_R   0.577720 0.571389 0.137746 0.158670
C36   C     C_3   0.220854 0.043358 0.526890 -0.274730
C37   C     C_3   0.952771 0.221357 0.481435 -0.279883
C38   C     C_3   0.553249 0.714250 0.084459 -0.264087
C39   C     C_R   0.568634 0.478470 0.869718 -0.085805
C40   C     C_R   0.569673 0.486450 0.798301 0.064489
C41   C     C_R   0.411789 0.522039 0.798564 0.067313
C42   C     C_R   0.411836 0.513594 0.870106 -0.092189
C43   C     C_R   0.490031 0.492550 0.905996 -0.006694
H1    H     H_    0.350876 0.524427 0.897846 0.144501
H2    H     H_    0.628925 0.458731 0.896410 0.144611
H3    H     H_    0.618200 0.528842 0.999013 0.131890
H4    H     H_    0.282638 0.959700 0.456357 0.270389
H5    H     H_    0.163327 0.997704 0.531196 0.184524
H6    H     H_    0.202184 0.098290 0.491211 0.135739
H7    H     H_    0.236295 0.069503 0.579046 0.169162
H8    H     H_    0.054338 0.285121 0.536207 0.254665
H9    H     H_    0.996874 0.164244 0.471091 0.156869
H10   H     H_    0.912829 0.234943 0.434067 0.181591
H11   H     H_    0.908885 0.203247 0.524934 0.174715
H12   H     H_    0.337622 0.169073 0.512866 0.129910
H13   H     H_    0.665045 0.635867 0.072281 0.256873
H14   H     H_    0.589153 0.774340 0.066703 0.165766
H15   H     H_    0.508802 0.733376 0.127129 0.185459
H16   H     H_    0.512774 0.688194 0.040870 0.146382
H17   H     H_    0.685815 0.991002 0.484522 0.177547
H18   H     H_    0.386366 0.856138 0.493049 0.165435
H19   H     H_    0.142155 0.390351 0.486094 0.141046
H20   H     H_    0.830957 0.336462 0.506418 0.155477
H21   H     H_    0.857151 0.615973 0.524426 0.183665
H22   H     H_    0.424539 0.466922 0.004963 0.139337
H23   H     H_    0.492692 0.368198 0.096086 0.156309
I1    I     I_    0.609928 0.675534 0.271399 -0.264357
I2    I     I_    0.684941 0.167562 0.523217 -0.369364
I3    I     I_    0.726796 0.797655 0.464337 -0.253483
I4    I     I_    0.214662 0.726662 0.513013 -0.276030
I5    I     I_    0.691027 0.456730 0.748541 -0.292473
I6    I     I_    0.981843 0.751469 0.531864 -0.252885
I7    I     I_    0.290564 0.558464 0.749031 -0.283742
I8    I     I_    0.439173 0.304735 0.239677 -0.320361
N1    N     N_2   0.296077 0.995376 0.500390 -0.507356
N2    N     N_2   0.006293 0.297750 0.499172 -0.530887
N3    N     N_2   0.616600 0.648449 0.107925 -0.484661
O1    O     O_3   0.500000 0.500000 0.500000 -0.471583
O2    O     O_R   0.437070 0.459640 0.654640 -0.514310
O3    O     O_R   0.556790 0.436390 0.349710 -0.512359
O4    O     O_R   0.547170 0.557950 0.655150 -0.512366
O5    O     O_R   0.458970 0.546010 0.340500 -0.518723
O6    O     O_R   0.306870 0.560460 0.447950 -0.513003
O7    O     O_R   0.697260 0.434930 0.470830 -0.531330
O8    O     O_R   0.434240 0.306870 0.546470 -0.547560
O9    O     O_R   0.561630 0.697750 0.534750 -0.513832
O10   O     O_R   0.542340 0.296600 0.470110 -0.501154
O11   O     O_R   0.461800 0.698790 0.448670 -0.519431
O12   O     O_R   0.296600 0.461110 0.533510 -0.536234
O13   O     O_R   0.699270 0.543500 0.547710 -0.511472
Zn1   Zn    Zn3+2 0.433070 0.575010 0.435400 1.002158
Zn2   Zn    Zn3+2 0.418400 0.433070 0.557650 0.981830
Zn3   Zn    Zn3+2 0.575700 0.573520 0.558390 1.016515
Zn4   Zn    Zn3+2 0.572830 0.418400 0.448560 1.004587

loop_
_geom_bond_atom_site_label_1
_geom_bond_atom_site_label_2
_ccdc_geom_bond_type
C1    O10   A    
C7    C10   A    
C8    C13   A    
C40   I5    S    
C27   C29   A    
C41   C42   A    
C18   C26   A    
C2    C12   S    
C31   O3    A    
C2    H3    S    
C12   C23   A    
C3    C43   S    
C31   O5    A    
C23   H23   S    
C19   C21   A    
C9    I3    S    
C28   O7    A    
C20   C25   A    
O1    Zn3   S    
O10   Zn4   S    
C20   N2    S    
C7    C9    A    
C24   C29   A    
C6    C15   A    
C38   H15   S    
C8    C9    A    
C39   H2    S    
C29   I6    S    
C37   H10   S    
C16   O12   A    
C13   C14   A    
C3    H22   S    
C42   H1    S    
C4    C7    S    
O8    Zn2   S    
C1    O8    A    
O9    Zn3   S    
C1    C6    S    
C19   C22   A    
H8    N2    S    
C39   C40   A    
C37   H9    S    
C39   C43   A    
O1    Zn2   S    
C25   C26   A    
C41   I7    S    
C35   N3    S    
C16   O6    A    
H13   N3    S    
C12   C35   A    
C32   C34   A    
C36   N1    S    
C6    C14   A    
C38   H14   S    
O4    Zn3   S    
C31   C32   S    
O11   Zn1   S    
C23   C34   A    
O7    Zn4   S    
C24   C25   A    
O12   Zn2   S    
C19   C28   S    
O2    Zn2   S    
C27   I4    S    
C34   I8    S    
C30   O2    A    
C37   N2    S    
C22   C24   A    
C10   H18   S    
C42   C43   A    
C37   H11   S    
O3    Zn4   S    
C36   H7    S    
C33   I1    S    
O13   Zn3   S    
C5    C30   S    
C15   C17   A    
C5    C41   A    
C11   C17   A    
C18   C27   A    
C4    O11   A    
C38   N3    S    
O1    Zn1   S    
O6    Zn1   S    
C32   C33   A    
C30   O4    A    
C2    C3    D    
C26   H19   S    
H4    N1    S    
C8    H17   S    
C11   C13   A    
O1    Zn4   S    
C33   C35   A    
C36   H5    S    
C21   H20   S    
C10   C11   A    
O5    Zn1   S    
C22   H21   S    
C38   H16   S    
C4    O9    A    
C20   C21   A    
C16   C18   S    
C5    C40   A    
C17   N1    S    
C14   I2    S    
C28   O13   A    
C36   H6    S    
C15   H12   S    
