data_mof_unit_9763.cif
_audit_creation_date              2012-12-10T18:47:06-0500
_audit_creation_method            fapswitch 2.2
_symmetry_space_group_name_H-M    P1
_symmetry_Int_Tables_number       1
_space_group_crystal_system       triclinic
_cell_length_a                    10.611226
_cell_length_b                    10.085057
_cell_length_c                    14.997429
_cell_angle_alpha                 89.418917
_cell_angle_beta                  92.85344
_cell_angle_gamma                 89.241548
_cell_volume                      1602.72306182

loop_
_atom_site_label
_atom_site_type_symbol
_atom_type_description
_atom_site_fract_x
_atom_site_fract_y
_atom_site_fract_z
_atom_type_partial_charge
C1    C     C_R   0.260824 0.500868 0.499726 0.834383
C2    C     C_R   0.128288 0.503315 0.502296 0.021650
C3    C     C_R   0.582665 0.068956 0.555237 0.183252
C4    C     C_R   0.424746 0.930691 0.439575 0.170698
C5    C     C_R   0.416792 0.073247 0.444740 0.176155
C6    C     C_R   0.574424 0.926711 0.560863 0.163208
C7    C     C_R   0.496882 0.500508 0.327841 0.899540
C8    C     C_R   0.503988 0.499138 0.672149 0.893771
C9    C     C_R   0.618834 0.481781 0.817351 0.059611
C10   C     C_R   0.380299 0.488980 0.182952 0.056854
C11   C     C_R   0.503070 0.495441 0.767500 -0.134571
C12   C     C_R   0.739244 0.499951 0.501215 0.842688
C13   C     C_R   0.496319 0.500727 0.232389 -0.133528
C14   C     C_R   0.385595 0.499756 0.807496 0.069982
C15   C     C_R   0.613308 0.505405 0.191948 0.073653
C16   C     C_R   0.384627 0.494171 0.901124 0.098792
C17   C     C_R   0.614348 0.495162 0.098680 0.094975
C18   C     C_R   0.500181 0.491046 0.952858 0.004527
C19   C     C_R   0.498834 0.492279 0.047105 0.003777
C20   C     C_R   0.617020 0.484394 0.911006 0.094825
C21   C     C_R   0.382098 0.488469 0.089165 0.099690
C22   C     C_R   0.270651 0.489173 0.944491 -0.222021
C23   C     C_R   0.269699 0.482025 0.036098 -0.223643
C24   C     C_R   0.728448 0.485801 0.055619 -0.222472
C25   C     C_3   0.742432 0.455823 0.771116 -0.407658
C26   C     C_3   0.827530 0.577068 0.769439 -0.892250
C27   C     C_3   0.256130 0.471793 0.229949 -0.395341
C28   C     C_3   0.172941 0.597037 0.225449 -0.907875
C29   C     C_3   0.262338 0.506790 0.749722 -0.395721
C30   C     C_3   0.206561 0.647163 0.745500 -0.849648
C31   C     C_3   0.736098 0.520102 0.248929 -0.413958
C32   C     C_3   0.797397 0.385280 0.272154 -0.858766
C33   C     C_3   0.691472 0.134852 0.605361 -0.360947
C34   C     C_R   0.729629 0.478233 0.964120 -0.224447
C35   C     C_3   0.814455 0.109434 0.557981 -0.902926
C36   C     C_3   0.355630 0.861534 0.363168 -0.374158
C37   C     C_3   0.430488 0.868747 0.278460 -0.842587
C38   C     C_3   0.311359 0.145948 0.391464 -0.361289
C39   C     C_3   0.186289 0.136228 0.437684 -0.866527
C40   C     C_3   0.645922 0.853654 0.636832 -0.365170
C41   C     C_3   0.574718 0.861032 0.723054 -0.840607
C42   C     C_R   0.070001 0.412641 0.557103 -0.202508
C43   C     C_R   0.930607 0.597562 0.451351 -0.200613
C44   C     C_R   0.940977 0.414828 0.558956 -0.213665
C45   C     C_R   0.059804 0.598621 0.451651 -0.204314
C46   C     C_R   0.872147 0.502413 0.502848 0.013720
H1    H     H_    0.179564 0.489376 0.909187 0.155383
H2    H     H_    0.821174 0.638284 0.830132 0.263935
H3    H     H_    0.926973 0.543858 0.763937 0.252119
H4    H     H_    0.793849 0.370840 0.804467 0.193585
H5    H     H_    0.726522 0.422818 0.701508 0.187251
H6    H     H_    0.212100 0.671480 0.271975 0.253072
H7    H     H_    0.165510 0.642950 0.157959 0.264122
H8    H     H_    0.076656 0.572379 0.245638 0.251079
H9    H     H_    0.203591 0.386856 0.200657 0.196579
H10   H     H_    0.270985 0.444313 0.301312 0.192183
H11   H     H_    0.184407 0.682116 0.812924 0.254367
H12   H     H_    0.819289 0.481527 0.091321 0.159349
H13   H     H_    0.274101 0.716237 0.716147 0.269049
H14   H     H_    0.118371 0.648670 0.702406 0.252105
H15   H     H_    0.275881 0.475396 0.680676 0.204175
H16   H     H_    0.192600 0.434805 0.772812 0.183552
H17   H     H_    0.735722 0.326582 0.314777 0.283035
H18   H     H_    0.814596 0.328173 0.211009 0.253774
H19   H     H_    0.889220 0.399702 0.309304 0.249517
H20   H     H_    0.803338 0.585113 0.215561 0.191022
H21   H     H_    0.720030 0.573044 0.311637 0.208031
H22   H     H_    0.818259 0.173599 0.497702 0.286719
H23   H     H_    0.178189 0.473305 0.063731 0.164093
H24   H     H_    0.896954 0.128695 0.604147 0.240787
H25   H     H_    0.823171 0.005238 0.535773 0.248871
H26   H     H_    0.674764 0.240515 0.613731 0.250486
H27   H     H_    0.702156 0.099667 0.675443 0.178261
H28   H     H_    0.433272 0.971930 0.252480 0.236523
H29   H     H_    0.529311 0.833863 0.292065 0.275790
H30   H     H_    0.385776 0.805977 0.225762 0.256651
H31   H     H_    0.337571 0.759065 0.381182 0.258500
H32   H     H_    0.259183 0.901222 0.348695 0.174776
H33   H     H_    0.199174 0.163552 0.508960 0.274670
H34   H     H_    0.821305 0.469438 0.936435 0.166954
H35   H     H_    0.115249 0.204485 0.404334 0.253350
H36   H     H_    0.148830 0.034231 0.434957 0.239033
H37   H     H_    0.332893 0.249634 0.381323 0.258844
H38   H     H_    0.299440 0.110438 0.322074 0.178863
H39   H     H_    0.574751 0.963176 0.749667 0.234069
H40   H     H_    0.475103 0.831329 0.711184 0.275227
H41   H     H_    0.620514 0.793883 0.774445 0.259198
H42   H     H_    0.663580 0.751271 0.619372 0.261918
H43   H     H_    0.743002 0.889652 0.649738 0.185741
H44   H     H_    0.123999 0.342728 0.599441 0.136830
H45   H     H_    0.876672 0.669499 0.410553 0.145061
H46   H     H_    0.895018 0.351326 0.605162 0.152061
H47   H     H_    0.105915 0.671436 0.411456 0.137680
H48   H     H_    0.801591 0.639872 0.710447 0.255085
N1    N     N_R   0.500000 0.857200 0.500000 -0.147045
N2    N     N_R   0.500000 0.142800 0.500000 -0.145555
O1    O     O_R   0.316770 0.614620 0.499990 -0.633884
O2    O     O_R   0.683230 0.385380 0.500010 -0.627823
O3    O     O_R   0.683230 0.614620 0.500010 -0.648767
O4    O     O_R   0.316770 0.385380 0.499990 -0.630390
O5    O     O_R   0.499980 0.614680 0.367850 -0.626201
O6    O     O_R   0.500020 0.385320 0.632150 -0.650791
O7    O     O_R   0.500020 0.614680 0.632150 -0.608475
O8    O     O_R   0.499980 0.385320 0.367850 -0.641023
Zn1   Zn    Zn3+2 0.500000 0.653120 0.500000 0.910589
Zn2   Zn    Zn3+2 0.500000 0.346880 0.500000 0.907500

loop_
_geom_bond_atom_site_label_1
_geom_bond_atom_site_label_2
_ccdc_geom_bond_type
C10   C27   S    
C26   H48   S    
C31   H20   S    
C37   H28   S    
C4    C36   S    
C38   H37   S    
C23   H23   S    
C3    C6    A    
C45   H47   S    
O8    Zn2   S    
C9    C25   S    
C31   H21   S    
C41   H40   S    
C36   C37   S    
C19   C21   A    
C18   C19   A    
C36   H31   S    
C38   C39   S    
C11   C14   A    
C27   H9    S    
C3    C33   S    
C30   H11   S    
C18   C20   A    
C1    C2    S    
C25   H4    S    
C12   O3    A    
N1    Zn1   S    
C33   H26   S    
C34   H34   S    
C35   H24   S    
C30   H14   S    
C3    N2    A    
C40   H43   S    
C12   O2    A    
C44   H46   S    
C26   H2    S    
O1    Zn1   S    
C22   H1    S    
C37   H29   S    
C35   H25   S    
C10   C21   A    
C5    C38   S    
C42   C44   A    
C41   H41   S    
C1    O4    A    
C8    O7    A    
C44   C46   A    
C2    C45   A    
O5    Zn1   S    
O3    Zn1   S    
C29   H15   S    
C17   C24   A    
C32   H18   S    
C12   C46   S    
C26   H3    S    
C1    O1    A    
C28   H8    S    
C27   H10   S    
C17   C19   A    
C25   C26   S    
C43   H45   S    
C42   H44   S    
C39   H33   S    
C25   H5    S    
C29   C30   S    
C4    N1    A    
C9    C11   A    
C9    C20   A    
C31   C32   S    
C30   H13   S    
O7    Zn1   S    
C16   C18   A    
C43   C45   A    
C39   H35   S    
C33   H27   S    
C40   C41   S    
C37   H30   S    
C7    O8    A    
C21   C23   A    
C14   C16   A    
C14   C29   S    
C5    N2    A    
C15   C17   A    
N2    Zn2   S    
C29   H16   S    
C16   C22   A    
C38   H38   S    
C39   H36   S    
C4    C5    A    
C10   C13   A    
C28   H7    S    
C15   C31   S    
C32   H17   S    
C41   H39   S    
O4    Zn2   S    
O2    Zn2   S    
C40   H42   S    
C13   C15   A    
C20   C34   A    
C36   H32   S    
C28   H6    S    
C35   H22   S    
C2    C42   A    
C8    C11   S    
C33   C35   S    
O6    Zn2   S    
C6    C40   S    
C43   C46   A    
C24   C34   A    
C7    C13   S    
C24   H12   S    
C6    N1    A    
C7    O5    A    
C27   C28   S    
C22   C23   A    
C8    O6    A    
C32   H19   S    
