data_mof_unit_52785.cif
_audit_creation_date              2012-12-11T18:37:30-0500
_audit_creation_method            fapswitch 2.2
_symmetry_space_group_name_H-M    P1
_symmetry_Int_Tables_number       1
_space_group_crystal_system       triclinic
_cell_length_a                    8.36687
_cell_length_b                    14.467461
_cell_length_c                    27.157658
_cell_angle_alpha                 94.546124
_cell_angle_beta                  91.616783
_cell_angle_gamma                 88.370667
_cell_volume                      3274.58356809

loop_
_atom_site_label
_atom_site_type_symbol
_atom_type_description
_atom_site_fract_x
_atom_site_fract_y
_atom_site_fract_z
_atom_type_partial_charge
Ba1   Ba    Ba6+2 0.849670 0.455410 0.524690 1.622283
Ba2   Ba    Ba6+2 0.340150 0.544510 0.475310 1.640816
C1    C     C_3   0.538446 0.165767 0.707349 -0.023903
C2    C     C_3   0.583727 0.226174 0.664971 0.481154
C3    C     C_3   0.505514 0.708194 0.620636 0.309461
C4    C     C_3   0.531559 0.733217 0.675898 -0.070506
C5    C     C_3   0.023310 0.801193 0.335276 0.295274
C6    C     C_3   0.058434 0.830315 0.284301 -0.283726
C7    C     C_3   0.539048 0.777620 0.332486 0.314440
C8    C     C_3   0.510496 0.848319 0.294138 -0.254953
C9    C     C_R   0.050151 0.449877 0.181486 0.600811
C10   C     C_R   0.963542 0.609041 0.181852 0.583217
C11   C     C_2   0.794908 0.567599 0.272922 -0.090321
C12   C     C_3   0.020958 0.223625 0.664548 0.510179
C13   C     C_3   0.767066 0.593142 0.327081 -0.070076
C14   C     C_1   0.995683 0.490683 0.345061 0.069722
C15   C     C_2   0.044373 0.490197 0.298351 -0.074393
C16   C     C_2   0.936934 0.528371 0.258527 0.201067
C17   C     C_R   0.062476 0.530165 0.105255 -0.079160
C18   C     C_R   0.091454 0.450077 0.130917 -0.039822
C19   C     C_R   0.158988 0.371279 0.105204 -0.052975
C20   C     C_R   0.997444 0.609886 0.131058 -0.032671
C21   C     C_2   0.867519 0.537703 0.361331 -0.274442
C22   C     C_2   0.339995 0.481971 0.644163 -0.263587
C23   C     C_3   0.980322 0.167509 0.708294 -0.338342
C24   C     C_R   0.214802 0.453641 0.978099 0.019844
C25   C     C_R   0.090666 0.609812 0.976153 0.020568
C26   C     C_R   0.170563 0.532049 0.951678 0.050316
C27   C     C_R   0.302118 0.380356 0.952696 -0.101960
C28   C     C_R   0.340726 0.382970 0.903199 -0.063792
C29   C     C_R   0.293172 0.458329 0.876235 -0.025851
C30   C     C_R   0.207093 0.532788 0.900274 -0.078051
C31   C     C_R   0.158444 0.608132 0.872985 -0.034723
C32   C     C_R   0.194622 0.607464 0.822011 0.586576
C33   C     C_R   0.330971 0.460286 0.825749 0.573063
C34   C     C_3   0.095100 0.234027 0.398041 0.372026
C35   C     C_2   0.463614 0.510200 0.728812 -0.103980
C36   C     C_3   0.493713 0.497157 0.673651 -0.011999
C37   C     C_1   0.212058 0.530290 0.658583 0.043313
C38   C     C_2   0.182651 0.546774 0.706754 -0.121167
C39   C     C_2   0.314234 0.532886 0.745468 0.190670
C40   C     C_R   0.172003 0.451291 0.028792 0.018756
C41   C     C_R   0.098844 0.530750 0.053835 0.051957
C42   C     C_R   0.061769 0.610904 0.028025 0.018627
C43   C     C_R   0.198922 0.371831 0.055585 -0.098766
C44   C     C_R   0.967892 0.689610 0.105651 -0.054548
C45   C     C_3   0.107344 0.139991 0.365821 -0.000782
C46   C     C_R   0.041556 0.683809 0.947496 -0.098325
C47   C     C_R   0.074267 0.682716 0.897269 -0.067051
C48   C     C_R   0.998268 0.690097 0.055447 -0.101529
C49   C     C_R   0.689890 0.058940 0.467161 -0.071884
C50   C     C_R   0.531528 0.193275 0.505172 0.065483
C51   C     C_R   0.431488 0.219454 0.544964 -0.238681
C52   C     C_R   0.302804 0.162315 0.553594 0.024364
C53   C     C_R   0.319119 0.068062 0.539728 -0.129723
C54   C     C_R   0.455401 0.034050 0.514721 -0.012828
C55   C     C_R   0.558207 0.096276 0.494049 -0.029015
C56   C     C_3   0.022675 0.735815 0.572691 0.291682
C57   C     C_R   0.632012 0.903090 0.490284 -0.025747
C58   C     C_R   0.729063 0.963187 0.466035 0.002414
C59   C     C_R   0.678964 0.808555 0.491934 0.041311
C60   C     C_R   0.816031 0.774556 0.468125 -0.271300
C61   C     C_R   0.915856 0.834046 0.446507 -0.005753
C62   C     C_R   0.870575 0.927534 0.444223 -0.149467
C63   C     C_R   0.493593 0.939600 0.513212 -0.055291
C64   C     C_3   0.006534 0.840812 0.582325 -0.397926
C65   C     C_3   0.657960 0.340905 0.381417 0.281840
C66   C     C_3   0.677552 0.318520 0.326231 -0.352410
H1    H     H_    0.188989 0.149380 0.334887 0.143365
H2    H     H_    0.905693 0.707575 0.560299 0.021646
H3    H     H_    0.111263 0.719871 0.543403 0.081126
H4    H     H_    0.912271 0.859011 0.609688 0.129143
H5    H     H_    0.974216 0.873422 0.547766 0.067016
H6    H     H_    0.121964 0.869244 0.596933 0.115536
H7    H     H_    0.769774 0.371285 0.397404 -0.014508
H8    H     H_    0.558242 0.392413 0.386622 0.108786
H9    H     H_    0.648529 0.135736 0.724105 0.085639
H10   H     H_    0.784381 0.272822 0.319513 0.139113
H11   H     H_    0.693772 0.383202 0.307820 0.077558
H12   H     H_    0.569787 0.283583 0.309873 0.149340
H13   H     H_    0.477925 0.247753 0.643403 -0.052945
H14   H     H_    0.376757 0.719295 0.611454 0.011466
H15   H     H_    0.539946 0.633989 0.612091 0.023657
H16   H     H_    0.514128 0.809313 0.683899 0.090473
H17   H     H_    0.440624 0.697996 0.696253 0.060068
H18   H     H_    0.482947 0.211676 0.737269 0.125184
H19   H     H_    0.899821 0.110559 0.696688 0.121525
H20   H     H_    0.984440 0.728254 0.331685 0.018862
H21   H     H_    0.925050 0.847871 0.349851 -0.019625
H22   H     H_    0.147804 0.781663 0.266154 0.131082
H23   H     H_    0.946871 0.829729 0.261380 0.177479
H24   H     H_    0.103765 0.901998 0.287245 0.126425
H25   H     H_    0.670621 0.765843 0.335920 -0.108810
H26   H     H_    0.496522 0.807990 0.368822 0.067205
H27   H     H_    0.576564 0.912260 0.306059 0.081991
H28   H     H_    0.381878 0.867107 0.291799 0.074033
H29   H     H_    0.928299 0.277567 0.658779 0.127271
H30   H     H_    0.162764 0.463165 0.288921 0.142116
H31   H     H_    0.181777 0.308148 0.123494 0.130405
H32   H     H_    0.563229 0.501805 0.754688 0.116865
H33   H     H_    0.408338 0.324748 0.885954 0.118429
H34   H     H_    0.345949 0.320218 0.970350 0.070144
H35   H     H_    0.247901 0.307551 0.038935 0.072334
H36   H     H_    0.710304 0.593677 0.245984 0.101572
H37   H     H_    0.919460 0.752581 0.124557 0.144781
H38   H     H_    0.974084 0.743416 0.962579 0.069414
H39   H     H_    0.033169 0.741354 0.877417 0.114819
H40   H     H_    0.061015 0.562023 0.718307 0.114453
H41   H     H_    0.973601 0.754891 0.039414 0.074959
H42   H     H_    0.850563 0.553159 0.400633 0.080703
H43   H     H_    0.334174 0.431955 0.612199 0.061070
H44   H     H_    0.426904 0.291121 0.559535 0.055020
H45   H     H_    0.228091 0.021378 0.549495 0.082027
H46   H     H_    0.946274 0.972183 0.426166 0.076726
H47   H     H_    0.851924 0.702429 0.469940 0.052951
H48   H     H_    0.769423 0.104164 0.450440 0.101958
H49   H     H_    0.089792 0.133852 0.723635 0.113502
H50   H     H_    0.417864 0.896464 0.532673 0.108263
H51   H     H_    0.923090 0.213236 0.737915 0.094549
H52   H     H_    0.973589 0.242302 0.413332 0.025742
N1    N     N_R   0.985379 0.528836 0.206691 -0.423094
N2    N     N_R   0.279688 0.533732 0.798480 -0.418884
O1    O     O_2   0.918080 0.549800 0.616640 -0.433872
O2    O     O_3   0.624214 0.259526 0.403598 -0.650809
O3    O     O_3   0.028449 0.160785 0.622202 -0.611721
O4    O     O_2   0.271610 0.450170 0.383330 -0.444414
O5    O     O_3   0.039630 0.450200 0.443530 -0.541371
O6    O     O_3   0.531440 0.620360 0.408460 -0.464116
O7    O     O_3   0.122273 0.305217 0.367112 -0.631914
O8    O     O_3   0.643350 0.612530 0.521650 -0.473336
O9    O     O_3   0.127390 0.668260 0.431510 -0.466405
O10   O     O_2   0.246332 0.831785 0.458762 -0.492725
O11   O     O_3   0.161882 0.809143 0.365569 -0.572204
O12   O     O_3   0.150070 0.549720 0.556460 -0.500943
O13   O     O_3   0.546340 0.387390 0.478340 -0.507261
O14   O     O_2   0.398940 0.728800 0.517420 -0.475056
O15   O     O_3   0.597146 0.766141 0.594256 -0.662508
O16   O     O_2   0.459443 0.516515 0.325186 -0.487388
O17   O     O_3   0.453992 0.696286 0.318429 -0.578646
O18   O     O_2   0.069813 0.378840 0.202643 -0.579327
O19   O     O_2   0.409176 0.395700 0.806135 -0.622934
O20   O     O_2   0.915197 0.680597 0.204049 -0.607305
O21   O     O_2   0.152414 0.673453 0.798922 -0.614240
O22   O     O_3   0.658250 0.379560 0.591530 -0.492399
O23   O     O_2   0.810935 0.445330 0.671830 -0.469848
O24   O     O_3   0.073141 0.698813 0.616748 -0.641434
O25   O     O_3   0.655527 0.305178 0.689220 -0.623342
O26   O     O_2   0.790750 0.271170 0.482550 -0.478707
O27   O     O_3   0.062300 0.331660 0.568480 -0.493861
O28   O     O_2   0.986485 0.166621 0.528896 -0.485726
P1    P     P_3+3 0.090020 0.577590 0.608380 0.991389
P2    P     P_3+3 0.614340 0.285150 0.467650 0.932848
P3    P     P_3+3 0.098903 0.210027 0.570130 0.920813
P4    P     P_3+3 0.099670 0.422330 0.391610 0.957022
P5    P     P_3+3 0.111754 0.787587 0.425635 0.964844
P6    P     P_3+3 0.647120 0.404998 0.655766 0.954073
P7    P     P_3+3 0.582475 0.730018 0.531341 0.931817
P8    P     P_3+3 0.552923 0.603210 0.344531 0.970267
N3    N     N_2   0.696602 0.178258 0.630963 -0.423649
H53   H     H_    0.720693 0.214674 0.601099 0.225670
C67   C     C_3   0.689756 0.079166 0.617962 -0.239716
H54   H     H_    0.783542 0.057415 0.590994 0.157956
H55   H     H_    0.573783 0.061422 0.600844 0.091228
H56   H     H_    0.710051 0.038795 0.650613 0.113575
N4    N     N_2   0.169050 0.064104 0.393830 -0.459998
H57   H     H_    0.145756 0.068851 0.431054 0.211299
C68   C     C_3   0.326675 0.026928 0.381679 -0.215043
H58   H     H_    0.354051 0.965088 0.402390 0.147205
H59   H     H_    0.418676 0.079400 0.391518 0.104370
H60   H     H_    0.331062 0.005916 0.341595 0.121379
C69   C     C_2   0.947385 0.113579 0.343280 0.493735
H61   H     H_    0.847433 0.103865 0.366711 -0.019558
O29   O     O_2   0.928821 0.101991 0.298489 -0.554608
N5    N     N_2   0.426033 0.093186 0.692561 -0.458228
H62   H     H_    0.394283 0.080089 0.655877 0.196483
C70   C     C_3   0.427960 0.014554 0.722204 -0.247238
H63   H     H_    0.324921 0.970094 0.711158 0.119242
H64   H     H_    0.418038 0.038397 0.761928 0.123952
H65   H     H_    0.540617 0.973111 0.716578 0.105035
N6    N     N_2   0.691013 0.704458 0.691788 -0.416512
H66   H     H_    0.781128 0.729641 0.671844 0.241791
C71   C     C_3   0.722004 0.716316 0.744506 -0.226867
H67   H     H_    0.841378 0.685535 0.753363 0.150105
H68   H     H_    0.630952 0.680631 0.764548 0.115708
H69   H     H_    0.720539 0.791284 0.757158 0.105923
C72   C     C_2   0.562887 0.810361 0.243962 0.547623
H70   H     H_    0.513120 0.746687 0.226992 0.019664
O30   O     O_2   0.659700 0.851337 0.221590 -0.549636
N7    N     N_2   0.170995 0.268102 0.674476 -0.467398
H71   H     H_    0.261120 0.220349 0.670453 0.191255
C73   C     C_3   0.186388 0.324957 0.720221 -0.299461
H72   H     H_    0.303239 0.357612 0.720448 0.163480
H73   H     H_    0.187469 0.282453 0.752511 0.138370
H74   H     H_    0.087571 0.377604 0.723468 0.137932
N8    N     N_2   0.215418 0.234100 0.437194 -0.484156
H75   H     H_    0.329616 0.224668 0.424512 0.174908
C74   C     C_3   0.196715 0.310562 0.473101 -0.039748
H76   H     H_    0.247044 0.302510 0.506901 -0.003853
H77   H     H_    0.069731 0.321717 0.481757 0.183141
H78   H     H_    0.268311 0.368337 0.463971 0.135650

loop_
_geom_bond_atom_site_label_1
_geom_bond_atom_site_label_2
_ccdc_geom_bond_type
C25   C46   A    
C66   H12   S    
C53   C54   A    
C38   C39   S    
N4    H57   S    
C37   P1    S    
C7    O17   S    
C17   C18   A    
C36   P6    S    
C9    O18   D    
C65   O2    S    
O10   P5    D    
C52   P3    S    
C73   H73   S    
C67   H54   S    
O6    P8    S    
C5    C6    S    
C47   H39   S    
C51   C52   A    
N6    H66   S    
C69   O29   D    
Ba2   O12   S    
C12   O3    S    
C11   C16   D    
Ba1   P2    S    
O8    P7    S    
C35   C36   S    
C5    O11   S    
N3    H53   S    
C28   C29   A    
C19   H31   S    
C56   H3    S    
C2    N3    S    
C31   C47   A    
C54   C63   A    
C5    H21   S    
C44   H37   S    
C10   C20   A    
C23   H19   S    
C22   C37   D    
C54   C55   A    
C34   C45   S    
C74   H77   S    
Ba1   Ba2   S    
N7    C73   S    
O27   P3    S    
N5    H62   S    
C45   H1    S    
C43   H35   S    
C8    C72   S    
C71   H67   S    
O23   P6    D    
C25   C42   A    
C56   C64   S    
C70   H65   S    
C46   H38   S    
C10   N1    Am   
C5    H20   S    
O17   P8    S    
O3    P3    S    
C14   C15   D    
O28   P3    D    
C15   C16   S    
C22   C36   S    
C63   H50   S    
N3    C67   S    
Ba1   O27   S    
C49   C55   A    
C7    C8    S    
C38   H40   S    
Ba2   O5    S    
C66   H11   S    
C13   C21   S    
O2    P2    S    
C57   C58   A    
N4    C68   S    
C1    H18   S    
C12   N7    S    
C9    N1    Am   
C22   H43   S    
C23   H51   S    
O5    P4    S    
C32   N2    Am   
C67   H55   S    
C17   C41   A    
C31   C32   A    
C68   H60   S    
C19   C43   A    
C33   N2    Am   
C66   H10   S    
C32   O21   D    
C64   H4    S    
C9    C18   A    
C57   C59   A    
C4    H16   S    
C2    H13   S    
C65   C66   S    
O13   P2    S    
O26   P2    D    
C26   C30   A    
C17   C20   A    
C62   H46   S    
C13   P8    S    
C68   H59   S    
Ba1   O8    S    
C37   C38   D    
C56   H2    S    
C49   H48   S    
O1    P1    D    
C53   H45   S    
C64   H5    S    
C48   H41   S    
Ba2   O14   S    
O24   P1    S    
C71   H69   S    
C39   N2    S    
O22   P6    S    
C74   H78   S    
C41   C42   A    
Ba1   O1    S    
C27   C28   A    
C59   P7    S    
C64   H6    S    
O16   P8    D    
C1    N5    S    
C74   H76   S    
C8    H28   S    
C50   P2    S    
C60   C61   A    
Ba2   O9    S    
N7    H71   S    
C6    H23   S    
C11   H36   S    
O25   P6    S    
C4    H17   S    
C69   H61   S    
C33   O19   D    
C6    H24   S    
O14   P7    D    
O4    P4    D    
C51   H44   S    
C70   H63   S    
C20   C44   A    
C14   C21   D    
C11   C13   S    
C14   P4    S    
C29   C33   A    
C6    H22   S    
C40   C41   A    
C72   O30   D    
C1    C2    S    
C1    H9    S    
C7    H25   S    
C68   H58   S    
C67   H56   S    
C50   C51   A    
C24   C40   A    
C12   H29   S    
C15   H30   S    
C42   C48   A    
C73   H72   S    
C21   H42   S    
C52   C53   A    
C46   C47   A    
N6    C71   S    
C4    N6    S    
O11   P5    S    
C29   C30   A    
Ba1   O5    S    
C61   C62   A    
C23   H49   S    
C45   C69   S    
C56   O24   S    
C3    O15   S    
C49   C58   A    
C44   C48   A    
C24   C26   A    
Ba2   O13   S    
C45   N4    S    
O15   P7    S    
C58   C62   A    
C30   C31   A    
O9    P5    S    
C34   N8    S    
C61   P5    S    
C60   H47   S    
Ba1   O22   S    
C34   O7    S    
C57   C63   A    
C3    H14   S    
C2    O25   S    
C3    C4    S    
C8    H27   S    
C3    H15   S    
O12   P1    S    
C28   H33   S    
C70   H64   S    
Ba2   O8    S    
N5    C70   S    
C10   O20   D    
C27   H34   S    
Ba1   P1    S    
C12   C23   S    
C35   C39   D    
C59   C60   A    
C34   H52   S    
C71   H68   S    
C73   H74   S    
C50   C55   A    
Ba2   O4    S    
C16   N1    S    
N8    H75   S    
C65   H7    S    
C18   C19   A    
C24   C27   A    
Ba2   P4    S    
C25   C26   A    
Ba1   O26   S    
C65   H8    S    
C72   H70   S    
Ba1   O13   S    
C7    H26   S    
C40   C43   A    
C35   H32   S    
O7    P4    S    
Ba1   O12   S    
N8    C74   S    
Ba2   O6    S    
