data_mof_unit_9253.cif
_audit_creation_date              2012-12-10T17:53:13-0500
_audit_creation_method            fapswitch 2.2
_symmetry_space_group_name_H-M    P1
_symmetry_Int_Tables_number       1
_space_group_crystal_system       triclinic
_cell_length_a                    14.680351
_cell_length_b                    14.667351
_cell_length_c                    27.793974
_cell_angle_alpha                 76.344885
_cell_angle_beta                  103.346086
_cell_angle_gamma                 115.966943
_cell_volume                      5172.44869914

loop_
_atom_site_label
_atom_site_type_symbol
_atom_type_description
_atom_site_fract_x
_atom_site_fract_y
_atom_site_fract_z
_atom_type_partial_charge
C1    C     C_R   0.879579 0.310993 0.506943 0.812459
C2    C     C_R   0.120732 0.688867 0.493984 0.799247
C3    C     C_R   0.984073 0.497239 0.897174 -0.041855
C4    C     C_R   0.992608 0.501444 0.101752 -0.042154
C5    C     C_R   0.992379 0.415754 0.882691 -0.022829
C6    C     C_R   0.979359 0.580265 0.116080 -0.023423
C7    C     C_R   0.999893 0.334375 0.918876 -0.130520
C8    C     C_R   0.962593 0.656899 0.079467 -0.133848
C9    C     C_R   0.975286 0.578428 0.860277 -0.026167
C10   C     C_R   0.008924 0.424105 0.138953 -0.023551
C11   C     C_R   0.000591 0.501567 0.645736 -0.060015
C12   C     C_R   0.002111 0.503650 0.355123 -0.029483
C13   C     C_R   0.001526 0.418842 0.036635 0.042743
C14   C     C_R   0.975326 0.580072 0.962262 0.041778
C15   C     C_R   0.974882 0.579758 0.013444 0.043858
C16   C     C_R   0.996209 0.416150 0.985212 0.043704
C17   C     C_R   0.989610 0.499987 0.050384 0.072053
C18   C     C_R   0.985059 0.497758 0.948431 0.072894
C19   C     C_R   0.019469 0.343417 0.075181 -0.191992
C20   C     C_R   0.967178 0.660590 0.924119 -0.189678
C21   C     C_R   0.022775 0.346054 0.125169 -0.130832
C22   C     C_R   0.967012 0.659475 0.874279 -0.121512
C23   C     C_R   0.000777 0.501101 0.592560 0.812888
C24   C     C_R   0.000579 0.500890 0.407770 0.799263
C25   C     C_R   0.001430 0.334174 0.969022 -0.192489
C26   C     C_R   0.960116 0.656729 0.029243 -0.191848
C27   C     C_R   0.811843 0.199684 0.511735 -0.093348
C28   C     C_R   0.190475 0.797135 0.500048 -0.099125
C29   C     C_R   0.778348 0.019634 0.517519 -0.139916
C30   C     C_R   0.228774 0.966557 0.517453 -0.142962
C31   C     C_R   0.845745 0.123505 0.510240 0.160810
C32   C     C_R   0.156362 0.871352 0.504275 0.157208
C33   C     C_R   0.710812 0.168987 0.519016 -0.172292
C34   C     C_R   0.296012 0.822586 0.507889 -0.147391
C35   C     C_R   0.645437 0.064885 0.530055 0.109224
C36   C     C_R   0.367918 0.913795 0.525300 0.078629
C37   C     C_R   0.678201 0.988711 0.527351 0.052437
C38   C     C_R   0.334546 0.989032 0.528425 0.042007
C39   C     C_R   0.544720 0.035501 0.539582 -0.114016
C40   C     C_R   0.473647 0.934272 0.536087 -0.146146
C41   C     C_R   0.511524 0.857068 0.545678 0.361902
C42   C     C_R   0.512584 0.101619 0.554233 0.417093
C43   C     C_R   0.611156 0.883421 0.536208 0.068904
C44   C     C_R   0.407314 0.083003 0.544415 0.052252
C45   C     C_R   0.993036 0.417556 0.832048 0.552208
C46   C     C_R   0.982372 0.580140 0.166970 0.548320
C47   C     C_R   0.701544 0.640847 0.404506 -0.222736
C48   C     C_R   0.308628 0.377218 0.598377 -0.205876
C49   C     C_R   0.788489 0.621089 0.422729 0.054511
C50   C     C_R   0.216040 0.384796 0.578518 0.059320
C51   C     C_R   0.721128 0.523944 0.497072 0.051389
C52   C     C_R   0.279168 0.479661 0.502934 0.111929
C53   C     C_R   0.631496 0.544156 0.481368 -0.040473
C54   C     C_R   0.375299 0.472583 0.520388 -0.012059
C55   C     C_R   0.619944 0.599399 0.432591 0.024047
C56   C     C_R   0.390967 0.424445 0.570544 0.035581
C57   C     C_R   0.552287 0.508232 0.511734 -0.006072
C58   C     C_R   0.457085 0.515707 0.490877 0.006228
C59   C     C_R   0.446970 0.566621 0.441364 -0.290234
C60   C     C_R   0.567585 0.469527 0.562965 -0.228422
C61   C     C_R   0.526986 0.610391 0.412832 0.389889
C62   C     C_R   0.489196 0.428300 0.592340 0.396953
C63   C     C_R   0.976403 0.577346 0.810020 0.560204
C64   C     C_R   0.011553 0.426905 0.189414 0.548507
C65   C     C_R   0.903704 0.484514 0.709975 -0.076281
C66   C     C_R   0.918115 0.431427 0.278743 -0.089239
C67   C     C_R   0.908337 0.485173 0.660402 -0.236863
C68   C     C_R   0.919156 0.431344 0.328957 -0.253396
C69   C     C_R   0.089897 0.518997 0.682167 0.067621
C70   C     C_R   0.084107 0.578614 0.330429 0.102369
C71   C     C_R   0.083439 0.517650 0.731894 -0.079422
C72   C     C_R   0.082052 0.578056 0.279799 -0.086240
C73   C     C_R   0.990904 0.500112 0.745821 0.297561
C74   C     C_R   0.999550 0.504473 0.254070 0.304335
Cu1   Cu    Cu3+1 0.081740 0.475690 0.513040 0.966719
Cu2   Cu    Cu3+1 0.918260 0.524310 0.486960 0.953151
H1    H     H_    0.322363 0.770148 0.500142 0.191587
H2    H     H_    0.682940 0.227424 0.515810 0.198299
H3    H     H_    0.805859 0.963087 0.516070 0.149320
H4    H     H_    0.200914 0.021821 0.520426 0.147962
H5    H     H_    0.263545 0.522071 0.467268 0.108825
H6    H     H_    0.731426 0.475550 0.531711 0.161601
H7    H     H_    0.154567 0.351337 0.600884 0.131392
H8    H     H_    0.849827 0.651909 0.400403 0.143877
H9    H     H_    0.699183 0.687194 0.368146 0.217889
H10   H     H_    0.314886 0.336463 0.635921 0.206293
H11   H     H_    0.377068 0.574396 0.423737 0.162641
H12   H     H_    0.642323 0.474761 0.581484 0.186298
H13   H     H_    0.150540 0.530528 0.760201 0.147450
H14   H     H_    0.144265 0.634615 0.260134 0.159560
H15   H     H_    0.004875 0.270043 0.908617 0.191477
H16   H     H_    0.951080 0.717785 0.089457 0.190770
H17   H     H_    0.855637 0.374255 0.347626 0.154257
H18   H     H_    0.839085 0.471725 0.633524 0.183224
H19   H     H_    0.853935 0.374860 0.258877 0.156288
H20   H     H_    0.832221 0.471227 0.720817 0.202063
H21   H     H_    0.036558 0.286273 0.153107 0.192108
H22   H     H_    0.960886 0.723218 0.846670 0.195755
H23   H     H_    0.032914 0.281465 0.068334 0.145116
H24   H     H_    0.962307 0.727106 0.931313 0.146283
H25   H     H_    0.005726 0.267448 0.994007 0.144427
H26   H     H_    0.945204 0.718003 0.003786 0.145135
N1    N     N_R   0.985850 0.497955 0.797006 -0.466809
N2    N     N_R   0.998162 0.504070 0.202372 -0.464902
N3    N     N_R   0.795430 0.560780 0.467350 -0.186572
N4    N     N_R   0.204570 0.439220 0.532650 -0.176755
O1    O     O_R   0.977900 0.338120 0.517190 -0.578552
O2    O     O_R   0.022100 0.661880 0.482810 -0.582653
O3    O     O_R   0.839850 0.379180 0.495160 -0.569832
O4    O     O_R   0.160150 0.620820 0.504840 -0.548414
O5    O     O_R   0.069030 0.479490 0.580750 -0.578464
O6    O     O_R   0.930970 0.520510 0.419250 -0.581570
O7    O     O_R   0.930970 0.520550 0.558720 -0.585964
O8    O     O_R   0.069030 0.479450 0.441280 -0.591631
O9    O     O_2   0.000733 0.339594 0.817872 -0.522775
O10   O     O_2   0.968817 0.654906 0.180965 -0.527022
O11   O     O_2   0.027853 0.353422 0.225304 -0.529621
O12   O     O_2   0.969370 0.655531 0.774521 -0.513178
C75   C     C_3   0.192756 0.541788 0.669296 -0.658962
H27   H     H_    0.255270 0.566787 0.700915 0.236507
H28   H     H_    0.192221 0.471907 0.660199 0.232973
H29   H     H_    0.210623 0.604521 0.636993 0.279751
C76   C     C_3   0.171382 0.660783 0.356991 -0.795332
H30   H     H_    0.224985 0.717451 0.331137 0.270153
H31   H     H_    0.141131 0.702840 0.372921 0.212461
H32   H     H_    0.214836 0.625558 0.387665 0.235668
C77   C     C_3   0.044395 0.851631 0.496071 -0.803498
H33   H     H_    0.004100 0.786914 0.524178 0.249814
H34   H     H_    0.032897 0.919341 0.500045 0.210349
H35   H     H_    0.009148 0.834074 0.457646 0.239240
C78   C     C_3   0.951349 0.149796 0.499338 -0.810257
H36   H     H_    0.966672 0.206427 0.464539 0.235851
H37   H     H_    0.009954 0.181164 0.531239 0.246639
H38   H     H_    0.959485 0.081360 0.493699 0.212190
S1    S     S_3+6 0.453808 0.743467 0.587987 0.006740
O13   O     O_2   0.391748 0.654664 0.559969 -0.302947
O14   O     O_2   0.534831 0.719051 0.625677 -0.231749
O15   O     O_3   0.377007 0.759680 0.618628 -0.527168
H39   H     H_    0.423328 0.814922 0.638555 0.367831
S2    S     S_3+6 0.594939 0.179338 0.600466 -0.031756
O16   O     O_2   0.632131 0.290461 0.577514 -0.407120
O17   O     O_2   0.536321 0.161398 0.641944 -0.225253
O18   O     O_3   0.696155 0.149291 0.625064 -0.515318
H40   H     H_    0.743555 0.204697 0.644701 0.373615
S3    S     S_3+6 0.505459 0.674621 0.351330 0.007171
O19   O     O_2   0.579360 0.785438 0.347869 -0.251696
O20   O     O_2   0.523060 0.626631 0.314078 -0.284488
O21   O     O_3   0.385520 0.668854 0.336822 -0.529187
H41   H     H_    0.342003 0.598644 0.328982 0.351508
S4    S     S_3+6 0.519826 0.391163 0.657536 0.059559
O22   O     O_2   0.494320 0.450485 0.685807 -0.207681
O23   O     O_2   0.457581 0.278593 0.672112 -0.261102
O24   O     O_3   0.645064 0.415701 0.673609 -0.527698
H42   H     H_    0.652006 0.355577 0.667258 0.386310
C79   C     C_3   0.644312 0.799915 0.534490 -0.745251
H43   H     H_    0.581348 0.722276 0.537824 0.275879
H44   H     H_    0.669487 0.812525 0.497848 0.208788
H45   H     H_    0.708062 0.800340 0.565183 0.246918
C80   C     C_3   0.373015 0.162926 0.550299 -0.745467
H46   H     H_    0.437542 0.235446 0.559048 0.277619
H47   H     H_    0.328939 0.183979 0.514601 0.195804
H48   H     H_    0.324639 0.132349 0.580580 0.249923

loop_
_geom_bond_atom_site_label_1
_geom_bond_atom_site_label_2
_ccdc_geom_bond_type
S1    O15   S    
C66   C68   A    
Cu1   O1    S    
Cu2   N3    S    
C22   H22   S    
C79   H44   S    
C8    C26   A    
C14   C18   A    
C24   O6    A    
S2    O18   S    
C62   S4    S    
C78   H38   S    
S3    O19   D    
C60   H12   S    
C76   H30   S    
C47   C49   A    
C27   C33   A    
C24   O8    A    
C12   C68   A    
C47   H9    S    
C32   C77   S    
C74   N2    S    
C35   C37   A    
S2    O17   D    
C34   H1    S    
C14   C15   A    
C9    C22   A    
C76   H31   S    
C29   C37   A    
O18   H40   S    
C66   C74   A    
C65   C73   A    
C30   C38   A    
C3    C18   A    
C60   C62   A    
C11   C23   S    
C69   C71   A    
C61   S3    S    
C31   C78   S    
C45   N1    A    
C1    O3    A    
C70   C76   S    
C65   H20   S    
C52   C54   A    
Cu2   O3    S    
C65   C67   A    
S4    O24   S    
C71   H13   S    
C67   H18   S    
C80   H47   S    
C8    H16   S    
C63   N1    A    
S1    O13   D    
C51   N3    A    
C56   C62   A    
C30   H4    S    
C48   C50   A    
C28   C34   A    
Cu2   O2    S    
S1    O14   D    
C79   H45   S    
C41   C43   A    
C42   C44   A    
C43   C79   S    
S3    O20   D    
C11   C67   A    
C50   H7    S    
C39   C42   A    
C53   C55   A    
C10   C21   A    
C54   C56   A    
C59   C61   A    
C70   C72   A    
C13   C19   A    
C27   C31   A    
C14   C20   A    
C28   C32   A    
S2    O16   D    
C4    C6    A    
C39   C40   A    
C5    C7    A    
C63   O12   S    
C53   C57   A    
C15   C26   A    
C6    C8    A    
C3    C5    A    
C58   C59   A    
C42   S2    S    
C69   C75   S    
C64   O11   S    
C76   H32   S    
C51   C53   A    
C37   C43   A    
C35   C39   A    
Cu1   Cu2   S    
C77   H34   S    
C38   C44   A    
C3    C9    A    
S4    O23   D    
C23   O7    A    
C21   H21   S    
C45   O9    S    
C80   H46   S    
C20   H24   S    
C36   C40   A    
Cu2   O6    S    
C7    H15   S    
Cu2   O7    S    
C80   H48   S    
C29   H3    S    
C5    C45   A    
Cu1   O8    S    
O21   H41   S    
C51   H6    S    
C75   H28   S    
C1    O1    A    
C4    C17   A    
C72   C74   A    
C40   C41   A    
C20   C22   A    
C73   N1    S    
C48   H10   S    
C1    C27   S    
C4    C10   A    
C78   H36   S    
C41   S1    S    
S3    O21   S    
C49   H8    S    
C47   C55   A    
C72   H14   S    
C54   C58   A    
C75   H29   S    
C16   C25   A    
C48   C56   A    
C12   C70   A    
C2    O4    A    
Cu1   O4    S    
C19   H23   S    
C6    C46   A    
C19   C21   A    
C9    C63   A    
C64   N2    A    
C78   H37   S    
C49   N3    A    
C75   H27   S    
C11   C69   A    
C15   C17   A    
C46   O10   S    
C23   O5    A    
C12   C24   S    
Cu1   O5    S    
C68   H17   S    
C7    C25   A    
C13   C17   A    
C10   C64   A    
C36   C38   A    
C77   H35   S    
C29   C31   A    
C26   H26   S    
C30   C32   A    
C25   H25   S    
C57   C58   A    
C46   N2    A    
C55   C61   A    
C2    O2    A    
C33   C35   A    
C34   C36   A    
C52   H5    S    
C33   H2    S    
C59   H11   S    
O15   H39   S    
C52   N4    A    
C57   C60   A    
Cu1   N4    S    
C16   C18   A    
C13   C16   A    
C71   C73   A    
C79   H43   S    
C50   N4    A    
C44   C80   S    
S4    O22   D    
C2    C28   S    
O24   H42   S    
C77   H33   S    
C66   H19   S    
