data_mof_unit_33460.cif
_audit_creation_date              2012-12-10T16:54:02-0500
_audit_creation_method            fapswitch 2.2
_symmetry_space_group_name_H-M    P1
_symmetry_Int_Tables_number       1
_space_group_crystal_system       triclinic
_cell_length_a                    9.741415
_cell_length_b                    10.93541
_cell_length_c                    13.427314
_cell_angle_alpha                 90.385095
_cell_angle_beta                  72.828288
_cell_angle_gamma                 90.308397
_cell_volume                      1366.56395371

loop_
_atom_site_label
_atom_site_type_symbol
_atom_type_description
_atom_site_fract_x
_atom_site_fract_y
_atom_site_fract_z
_atom_type_partial_charge
C1    C     C_R   0.500642 0.734469 0.498901 0.857483
C2    C     C_R   0.434484 0.475354 0.979491 0.082467
C3    C     C_R   0.470104 0.448731 0.871661 0.041226
C4    C     C_R   0.541237 0.460186 0.031292 0.032386
C5    C     C_R   0.676206 0.406544 0.977918 0.151909
C6    C     C_R   0.701208 0.364083 0.874717 0.133877
C7    C     C_R   0.596974 0.383310 0.824116 -0.228165
C8    C     C_R   0.518255 0.499440 0.134586 -0.237943
C9    C     C_R   0.753359 0.429894 0.133892 -0.209794
C10   C     C_R   0.375908 0.486187 0.814657 -0.089238
C11   C     C_2   0.612462 0.067567 0.499891 -0.156037
C12   C     C_R   0.422924 0.493328 0.699847 0.782836
C13   C     C_2   0.494341 0.133490 0.506682 -0.318176
C14   C     C_2   0.610900 0.933609 0.504412 -0.155364
C15   C     C_2   0.500599 0.866441 0.493899 -0.319493
C16   C     C_2   0.042677 0.527046 0.580501 0.023332
C17   C     C_2   0.888573 0.505597 0.583943 -0.100714
C18   C     C_R   0.499105 0.265508 0.501335 0.841982
C19   C     C_R   0.576963 0.497607 0.300211 0.796153
C20   C     C_R   0.781807 0.394453 0.030081 -0.197407
C21   C     C_R   0.619971 0.479694 0.187083 -0.044737
C22   C     C_R   0.237527 0.527397 0.868507 -0.186079
C23   C     C_R   0.195345 0.538182 0.976208 -0.158093
C24   C     C_R   0.292817 0.515173 0.031322 -0.170339
Cu1   Cu    Cu3+1 0.361370 0.499980 0.499980 0.937170
Cu2   Cu    Cu3+1 0.638630 0.500020 0.500020 0.930580
H1    H     H_    0.833758 0.414177 0.173453 0.153366
H2    H     H_    0.389633 0.092154 0.518657 0.148018
H3    H     H_    0.705228 0.889573 0.515090 0.168346
H4    H     H_    0.407296 0.906834 0.479344 0.147928
H5    H     H_    0.062052 0.564078 0.650258 0.115423
H6    H     H_    0.810506 0.496733 0.659740 0.173947
H7    H     H_    0.915202 0.537409 0.434481 0.216847
H8    H     H_    0.885887 0.354969 0.992282 0.154747
H9    H     H_    0.421137 0.545808 0.176852 0.147484
H10   H     H_    0.162164 0.553607 0.827205 0.146136
H11   H     H_    0.252347 0.526339 0.114645 0.119665
H12   H     H_    0.087610 0.568383 0.017085 0.143714
H13   H     H_    0.615007 0.343775 0.747387 0.173640
H14   H     H_    0.714673 0.112700 0.492195 0.166905
N1    N     N_2   0.152660 0.501340 0.501130 -0.133312
N2    N     N_2   0.846520 0.501370 0.501160 -0.293058
O1    O     O_R   0.382960 0.678040 0.499980 -0.573071
O2    O     O_R   0.617100 0.678080 0.500020 -0.569451
O3    O     O_R   0.325800 0.499940 0.650950 -0.584991
O4    O     O_R   0.559930 0.499980 0.650990 -0.585475
O5    O     O_R   0.382900 0.321920 0.499980 -0.589473
O6    O     O_R   0.617040 0.321960 0.500020 -0.573216
O7    O     O_R   0.440070 0.500020 0.349010 -0.587394
O8    O     O_R   0.674200 0.500060 0.349050 -0.585986
C25   C     C_3   0.136377 0.418139 0.419755 -0.487935
H15   H     H_    0.232505 0.360178 0.391319 0.227975
H16   H     H_    0.046540 0.351986 0.448086 0.168723
H17   H     H_    0.128862 0.470570 0.351086 0.147407
C26   C     C_3   0.838145 0.299006 0.816522 -0.900210
H18   H     H_    0.837972 0.270175 0.737066 0.234742
H19   H     H_    0.931654 0.360907 0.807939 0.228230
H20   H     H_    0.851227 0.215693 0.859603 0.240503

loop_
_geom_bond_atom_site_label_1
_geom_bond_atom_site_label_2
_ccdc_geom_bond_type
C2    C4    A    
C26   H18   S    
C13   H2    S    
C6    C7    A    
C1    C15   S    
C23   H12   S    
C22   H10   S    
Cu1   O5    S    
C9    C20   A    
Cu2   O6    S    
C6    C26   S    
C23   C24   A    
C25   H17   S    
C20   H8    S    
C18   O5    A    
Cu1   O1    S    
C26   H19   S    
C24   H11   S    
Cu2   O2    S    
C3    C10   A    
C10   C22   A    
C16   H5    S    
C11   C13   D    
C19   O8    A    
C9    C21   A    
C5    C6    A    
C10   C12   S    
C13   C18   S    
H7    N2    S    
C19   C21   S    
N1    C25   S    
C2    C3    A    
C3    C7    A    
Cu2   O8    S    
Cu2   N2    S    
C2    C24   A    
C11   H14   S    
C11   C14   S    
Cu1   O7    S    
C16   C17   S    
Cu2   O4    S    
C14   H3    S    
C25   H15   S    
Cu1   O3    S    
C9    H1    S    
C15   H4    S    
C12   O4    A    
C26   H20   S    
Cu1   N1    S    
C4    C8    A    
C5    C20   A    
C17   H6    S    
C19   O7    A    
C14   C15   D    
C4    C5    A    
C7    H13   S    
C1    O2    A    
Cu1   Cu2   S    
C17   N2    D    
C16   N1    D    
C1    O1    A    
C22   C23   A    
C18   O6    A    
C12   O3    A    
C25   H16   S    
C8    H9    S    
C8    C21   A    
