data_mof_unit_21381.cif
_audit_creation_date              2012-12-10T17:05:22-0500
_audit_creation_method            fapswitch 2.2
_symmetry_space_group_name_H-M    P1
_symmetry_Int_Tables_number       1
_space_group_crystal_system       triclinic
_cell_length_a                    10.08675
_cell_length_b                    10.7403
_cell_length_c                    15.24768
_cell_angle_alpha                 89.938356
_cell_angle_beta                  70.724399
_cell_angle_gamma                 89.987866
_cell_volume                      1559.25201532

loop_
_atom_site_label
_atom_site_type_symbol
_atom_type_description
_atom_site_fract_x
_atom_site_fract_y
_atom_site_fract_z
_atom_type_partial_charge
C1    C     C_R   0.501001 0.737136 0.498380 0.945959
C2    C     C_R   0.712740 0.654003 0.046173 0.075477
C3    C     C_R   0.571062 0.626641 0.094456 0.096132
C4    C     C_R   0.413876 0.502900 0.675602 0.887372
C5    C     C_R   0.812325 0.640735 0.090924 -0.225405
C6    C     C_R   0.776876 0.584083 0.178330 -0.004524
C7    C     C_R   0.534413 0.574101 0.183650 -0.255597
C8    C     C_2   0.611014 0.066820 0.502327 -0.146563
C9    C     C_2   0.493829 0.131351 0.512361 -0.323706
C10   C     C_2   0.607498 0.932840 0.507919 -0.117531
C11   C     C_2   0.505215 0.868847 0.490844 -0.329669
C12   C     C_R   0.419277 0.613786 0.907292 0.127468
C13   C     C_2   0.067107 0.402101 0.515263 -0.125727
C14   C     C_2   0.919965 0.400921 0.510717 -0.083479
C15   C     C_R   0.498860 0.262885 0.502430 0.931616
C16   C     C_R   0.586752 0.508042 0.324070 0.852540
C17   C     C_R   0.365427 0.529250 0.774906 -0.092395
C18   C     C_R   0.635638 0.550197 0.225962 -0.109039
C19   C     C_R   0.177212 0.564897 0.918367 -0.208960
C20   C     C_R   0.222155 0.528862 0.825962 -0.163876
C21   C     C_R   0.463084 0.567011 0.816823 -0.156096
C22   C     C_R   0.890786 0.556199 0.215608 0.121919
C23   C     C_R   0.274265 0.607001 0.959534 0.165070
C24   C     C_R   0.934039 0.645517 0.267590 -0.105558
C25   C     C_R   0.041000 0.616995 0.303680 -0.187165
C26   C     C_R   0.104808 0.499630 0.288048 -0.130027
C27   C     C_R   0.061431 0.410389 0.236764 -0.113951
C28   C     C_R   0.954477 0.438380 0.200614 -0.141474
C29   C     C_R   0.516696 0.651265 0.951478 -0.085776
C30   C     C_R   0.471067 0.642896 0.049442 0.016087
C31   C     C_R   0.326784 0.649174 0.099054 -0.182120
C32   C     C_R   0.229435 0.636442 0.053457 -0.209378
C33   C     C_R   0.657159 0.691831 0.904779 0.428530
C34   C     C_R   0.753046 0.693411 0.953612 -0.284527
H1    H     H_    0.119644 0.641064 0.092600 0.155579
H2    H     H_    0.898993 0.584065 0.496984 0.161857
H3    H     H_    0.427288 0.546204 0.219363 0.157917
H4    H     H_    0.860651 0.722013 0.918376 0.195989
H5    H     H_    0.067451 0.554940 0.957809 0.139348
H6    H     H_    0.145092 0.498907 0.794990 0.179078
H7    H     H_    0.573449 0.556588 0.779250 0.217725
H8    H     H_    0.289310 0.666033 0.172857 0.155381
H9    H     H_    0.884991 0.736458 0.280037 0.123307
H10   H     H_    0.075319 0.686184 0.343051 0.116461
H11   H     H_    0.188847 0.478077 0.314849 0.146433
H12   H     H_    0.918170 0.672838 0.057091 0.128665
H13   H     H_    0.111041 0.319760 0.224762 0.131756
H14   H     H_    0.921371 0.368681 0.160903 0.129327
H15   H     H_    0.823834 0.708989 0.653156 0.371539
H16   H     H_    0.711751 0.112247 0.490246 0.164819
H17   H     H_    0.390837 0.088770 0.530489 0.155866
H18   H     H_    0.691965 0.886779 0.524821 0.182066
H19   H     H_    0.424327 0.911875 0.468697 0.145716
H20   H     H_    0.107743 0.314748 0.531453 0.165674
H21   H     H_    0.111504 0.580840 0.481652 0.160659
H22   H     H_    0.867388 0.311537 0.518742 0.153214
N1    N     N_2   0.148330 0.498670 0.499030 -0.194246
N2    N     N_2   0.852680 0.498640 0.499000 -0.174348
O1    O     O_R   0.386950 0.680940 0.500010 -0.614576
O2    O     O_2   0.805179 0.874127 0.795810 -0.287973
O3    O     O_3   0.804084 0.664237 0.712952 -0.585244
O4    O     O_R   0.613110 0.680900 0.499990 -0.617833
O5    O     O_R   0.322330 0.500030 0.632270 -0.598619
O6    O     O_R   0.548480 0.499990 0.632240 -0.592203
O7    O     O_R   0.386890 0.319100 0.500010 -0.620563
O8    O     O_R   0.613050 0.319060 0.499990 -0.615116
O9    O     O_R   0.451520 0.500010 0.367760 -0.622730
O10   O     O_R   0.677670 0.499970 0.367730 -0.590055
O11   O     O_2   0.587561 0.812460 0.770082 -0.307165
S1    S     S_3+6 0.711785 0.765688 0.794191 -0.005173
Zn1   Zn    Zn3+2 0.349000 0.500030 0.500020 0.948762
Zn2   Zn    Zn3+2 0.651000 0.499970 0.499980 0.973080

loop_
_geom_bond_atom_site_label_1
_geom_bond_atom_site_label_2
_ccdc_geom_bond_type
O3    S1    S    
C3    C30   A    
C14   H22   S    
C17   C21   A    
C29   C30   A    
C16   O10   A    
C31   H8    S    
C8    H16   S    
C12   C29   A    
C5    H12   S    
C4    O6    A    
O9    Zn1   S    
C31   C32   A    
C11   H19   S    
O2    S1    D    
O10   Zn2   S    
C7    C18   A    
C10   H18   S    
C23   C32   A    
C2    C34   A    
C15   O7    A    
C1    O1    A    
C33   C34   A    
C9    C15   S    
O4    Zn2   S    
C16   O9    A    
C22   C28   A    
C13   C14   S    
N1    Zn1   S    
C5    C6    A    
C4    O5    A    
N2    Zn2   S    
C26   C27   A    
O11   S1    D    
C19   H5    S    
C33   S1    S    
C21   H7    S    
C4    C17   S    
C25   H10   S    
C8    C10   S    
C34   H4    S    
O5    Zn1   S    
C14   N2    D    
C2    C3    A    
C3    C7    A    
H21   N1    S    
C7    H3    S    
C30   C31   A    
C20   H6    S    
C6    C18   A    
C22   C24   A    
C2    C5    A    
H15   O3    S    
C10   C11   D    
H2    N2    S    
C6    C22   S    
C32   H1    S    
C29   C33   A    
C17   C20   A    
C13   N1    D    
C24   C25   A    
C1    O4    A    
C16   C18   S    
C13   H20   S    
C27   H13   S    
C27   C28   A    
C24   H9    S    
C19   C23   A    
C28   H14   S    
C12   C23   A    
C1    C11   S    
C26   H11   S    
C25   C26   A    
O7    Zn1   S    
C15   O8    A    
C12   C21   A    
O8    Zn2   S    
C19   C20   A    
O6    Zn2   S    
O1    Zn1   S    
C8    C9    D    
C9    H17   S    
