data_mof_unit_28762.cif
_audit_creation_date              2012-12-11T15:35:55-0500
_audit_creation_method            fapswitch 2.2
_symmetry_space_group_name_H-M    P1
_symmetry_Int_Tables_number       1
_space_group_crystal_system       triclinic
_cell_length_a                    6.996831
_cell_length_b                    11.819215
_cell_length_c                    36.059314
_cell_angle_alpha                 89.999959
_cell_angle_beta                  90.885054
_cell_angle_gamma                 90.000667
_cell_volume                      2981.64312437

loop_
_atom_site_label
_atom_site_type_symbol
_atom_type_description
_atom_site_fract_x
_atom_site_fract_y
_atom_site_fract_z
_atom_type_partial_charge
O1    O     O_R   0.379730 0.148600 0.662710 -0.538577
O2    O     O_R   0.620270 0.851400 0.337290 -0.538577
O3    O     O_R   0.120270 0.648600 0.337290 -0.538576
O4    O     O_R   0.879730 0.351400 0.662710 -0.538572
O5    O     O_R   0.722480 0.134490 0.741330 -0.540456
O6    O     O_R   0.277520 0.865510 0.258670 -0.540455
O7    O     O_R   0.777520 0.634490 0.258670 -0.540455
O8    O     O_R   0.222480 0.365510 0.741330 -0.540454
O9    O     O_R   0.892880 0.345890 0.741600 -0.535131
O10   O     O_R   0.107120 0.654110 0.258400 -0.535131
O11   O     O_R   0.607120 0.845890 0.258400 -0.535132
O12   O     O_R   0.392880 0.154110 0.741600 -0.535132
C1    C     C_R   0.553261 0.110896 0.753996 0.698783
C2    C     C_R   0.446738 0.889104 0.246004 0.698782
C3    C     C_R   0.946737 0.610897 0.246003 0.698784
C4    C     C_R   0.053263 0.389103 0.753996 0.698786
O13   O     O_R   0.709490 0.135560 0.662990 -0.541107
O14   O     O_R   0.290510 0.864440 0.337010 -0.541104
O15   O     O_R   0.790510 0.635560 0.337010 -0.541103
O16   O     O_R   0.209490 0.364440 0.662990 -0.541106
C5    C     C_R   0.540169 0.108090 0.650739 0.695777
C6    C     C_R   0.459830 0.891911 0.349261 0.695776
C7    C     C_R   0.959830 0.608088 0.349261 0.695774
C8    C     C_R   0.040168 0.391908 0.650738 0.695775
O17   O     O_3   0.552800 0.316610 0.702160 -0.366665
O18   O     O_3   0.447200 0.683390 0.297840 -0.366666
O19   O     O_3   0.947200 0.816610 0.297840 -0.366667
O20   O     O_3   0.052800 0.183390 0.702160 -0.366668
V1    V     V_3+5 0.827630 0.234380 0.702160 1.421524
V2    V     V_3+5 0.172370 0.765620 0.297840 1.421524
V3    V     V_3+5 0.672370 0.734380 0.297840 1.421526
V4    V     V_3+5 0.327630 0.265620 0.702160 1.421529
C9    C     C_R   0.043206 0.660906 0.912318 0.547080
C10   C     C_R   0.956794 0.339094 0.087682 0.547080
C11   C     C_R   0.456800 0.160911 0.087684 0.547084
C12   C     C_R   0.543200 0.839089 0.912315 0.547083
O21   O     O_2   0.063472 0.548741 0.918037 -0.547910
O22   O     O_2   0.936528 0.451259 0.081963 -0.547909
O23   O     O_2   0.436537 0.048745 0.081966 -0.547910
O24   O     O_2   0.563462 0.951254 0.918033 -0.547910
N1    N     N_R   0.036114 0.703485 0.876736 -0.541224
N2    N     N_R   0.963885 0.296515 0.123264 -0.541224
N3    N     N_R   0.463892 0.203492 0.123266 -0.541223
N4    N     N_R   0.536108 0.796507 0.876734 -0.541223
C13   C     C_R   0.027099 0.818851 0.871551 0.526594
C14   C     C_R   0.972900 0.181149 0.128449 0.526594
C15   C     C_R   0.472898 0.318859 0.128450 0.526594
C16   C     C_R   0.527101 0.681141 0.871550 0.526594
C17   C     C_R   0.146735 0.648000 0.813378 -0.049295
C18   C     C_R   0.853265 0.352000 0.186622 -0.049295
C19   C     C_R   0.353276 0.148007 0.186624 -0.049304
C20   C     C_R   0.646724 0.851993 0.813376 -0.049304
C21   C     C_R   0.153619 0.570607 0.784046 -0.193692
C22   C     C_R   0.846381 0.429393 0.215954 -0.193691
C23   C     C_R   0.346389 0.070611 0.215955 -0.193698
C24   C     C_R   0.653611 0.929388 0.784044 -0.193698
C25   C     C_R   0.925019 0.451840 0.814936 -0.194949
C26   C     C_R   0.074981 0.548160 0.185063 -0.194949
C27   C     C_R   0.574993 0.951848 0.185065 -0.194949
C28   C     C_R   0.425007 0.048151 0.814935 -0.194949
C29   C     C_R   0.923710 0.527246 0.844836 -0.053615
C30   C     C_R   0.076290 0.472754 0.155164 -0.053615
C31   C     C_R   0.576306 0.027257 0.155167 -0.053606
C32   C     C_R   0.423694 0.972743 0.844833 -0.053606
C33   C     C_R   0.035650 0.626479 0.844931 0.319279
C34   C     C_R   0.964349 0.373521 0.155069 0.319279
C35   C     C_R   0.464362 0.126488 0.155072 0.319271
C36   C     C_R   0.535637 0.873511 0.844928 0.319271
C37   C     C_R   0.019145 0.850833 0.938190 -0.034966
C38   C     C_R   0.980855 0.149167 0.061810 -0.034966
C39   C     C_R   0.480853 0.350836 0.061810 -0.034966
C40   C     C_R   0.519147 0.649163 0.938189 -0.034966
C41   C     C_R   0.034286 0.733327 0.943358 -0.040891
C42   C     C_R   0.965714 0.266673 0.056642 -0.040891
C43   C     C_R   0.465716 0.233329 0.056644 -0.040894
C44   C     C_R   0.534283 0.766670 0.943356 -0.040894
C45   C     C_R   0.039508 0.690084 0.979423 -0.115120
C46   C     C_R   0.960492 0.309916 0.020577 -0.115120
C47   C     C_R   0.460493 0.190084 0.020579 -0.115123
C48   C     C_R   0.539507 0.809916 0.979421 -0.115123
C49   C     C_R   0.012825 0.893374 0.901878 -0.008649
C50   C     C_R   0.987174 0.106626 0.098122 -0.008649
C51   C     C_R   0.487168 0.393380 0.098122 -0.008641
C52   C     C_R   0.512832 0.606620 0.901877 -0.008640
C53   C     C_R   0.042970 0.471811 0.784606 -0.060031
C54   C     C_R   0.957030 0.528189 0.215393 -0.060029
C55   C     C_R   0.457036 0.971816 0.215395 -0.060031
C56   C     C_R   0.542964 0.028184 0.784605 -0.060031
H1    H     H_    0.837853 0.376180 0.816007 0.120799
H2    H     H_    0.162147 0.623820 0.183993 0.120800
H3    H     H_    0.662160 0.876190 0.183994 0.120802
H4    H     H_    0.337840 0.123810 0.816006 0.120801
H5    H     H_    0.834765 0.507416 0.868013 0.149524
H6    H     H_    0.165235 0.492584 0.131987 0.149524
H7    H     H_    0.665254 0.007429 0.131990 0.149525
H8    H     H_    0.334746 0.992570 0.868010 0.149525
H9    H     H_    0.050031 0.599854 0.984365 0.158334
H10   H     H_    0.949969 0.400146 0.015635 0.158334
H11   H     H_    0.449968 0.099854 0.015637 0.158334
H12   H     H_    0.550033 0.900146 0.984362 0.158334
C57   C     C_R   0.009129 0.955766 0.036737 0.043547
C58   C     C_R   0.990871 0.044234 0.963263 0.043547
C59   C     C_R   0.490879 0.455763 0.963263 0.043555
C60   C     C_R   0.509120 0.544237 0.036736 0.043555
C61   C     C_R   0.982591 0.119136 0.994227 0.012654
C62   C     C_R   0.017409 0.880864 0.005772 0.012654
C63   C     C_R   0.517406 0.619137 0.005772 0.012654
C64   C     C_R   0.482594 0.380863 0.994228 0.012654
C65   C     C_R   0.990562 0.074357 0.030784 0.071391
C66   C     C_R   0.009437 0.925643 0.969216 0.071391
C67   C     C_R   0.509439 0.574356 0.969216 0.071394
C68   C     C_R   0.490561 0.425644 0.030784 0.071393
C69   C     C_R   0.020610 0.916461 0.073775 -0.131745
C70   C     C_R   0.979390 0.083539 0.926225 -0.131745
C71   C     C_R   0.479413 0.416455 0.926226 -0.131753
C72   C     C_R   0.520586 0.583544 0.073774 -0.131752
C73   C     C_R   0.010367 0.990292 0.103655 -0.110525
C74   C     C_R   0.989633 0.009708 0.896345 -0.110525
C75   C     C_R   0.489651 0.490285 0.896346 -0.110533
C76   C     C_R   0.510348 0.509715 0.103654 -0.110533
O25   O     O_2   0.968437 0.136990 0.162840 -0.565696
O26   O     O_2   0.031562 0.863010 0.837160 -0.565696
O27   O     O_2   0.531570 0.636979 0.837159 -0.565695
O28   O     O_2   0.468430 0.363020 0.162841 -0.565695
C77   C     C_R   0.031568 0.761846 0.009938 -0.163180
C78   C     C_R   0.968432 0.238154 0.990062 -0.163180
C79   C     C_R   0.468430 0.261844 0.990063 -0.163177
C80   C     C_R   0.531570 0.738155 0.009936 -0.163178
H13   H     H_    0.755238 0.411628 0.239260 0.127706
H14   H     H_    0.244762 0.588372 0.760740 0.127709
H15   H     H_    0.744757 0.911627 0.760739 0.127707
H16   H     H_    0.255242 0.088373 0.239261 0.127707
H17   H     H_    0.765293 0.277213 0.188347 0.181067
H18   H     H_    0.234706 0.722787 0.811653 0.181067
H19   H     H_    0.734696 0.777208 0.811651 0.181076
H20   H     H_    0.265303 0.222791 0.188349 0.181076
H21   H     H_    0.020712 0.955198 0.131377 0.149872
H22   H     H_    0.979288 0.044802 0.868623 0.149872
H23   H     H_    0.479316 0.455189 0.868623 0.149871
H24   H     H_    0.520684 0.544811 0.131377 0.149871
H25   H     H_    0.039027 0.828777 0.080958 0.110939
H26   H     H_    0.960973 0.171223 0.919042 0.110939
H27   H     H_    0.461017 0.328769 0.919044 0.110939
H28   H     H_    0.538983 0.671231 0.080956 0.110939
H29   H     H_    0.035472 0.720246 0.036467 0.135943
H30   H     H_    0.964528 0.279754 0.963533 0.135943
H31   H     H_    0.464517 0.220243 0.963535 0.135941
H32   H     H_    0.535483 0.779757 0.036465 0.135941
C81   C     C_R   0.967560 0.528948 0.380375 -0.036269
C82   C     C_R   0.032417 0.471040 0.619624 -0.036232
C83   C     C_R   0.532431 0.028954 0.619625 -0.036256
C84   C     C_R   0.467560 0.971050 0.380375 -0.036266
C85   C     C_R   0.916678 0.341693 0.404958 -0.167604
C86   C     C_R   0.082991 0.658321 0.595044 -0.167602
C87   C     C_R   0.583204 0.841694 0.595042 -0.167592
C88   C     C_R   0.416689 0.158302 0.404958 -0.167604
C89   C     C_R   0.925523 0.414774 0.374780 -0.182320
C90   C     C_R   0.074221 0.585239 0.625223 -0.182341
C91   C     C_R   0.574403 0.914774 0.625221 -0.182324
C92   C     C_R   0.425521 0.085223 0.374780 -0.182316
C93   C     C_R   0.999856 0.570462 0.416227 -0.219711
C94   C     C_R   0.000263 0.429510 0.583769 -0.219720
C95   C     C_R   0.500168 0.070472 0.583772 -0.219730
C96   C     C_R   0.499857 0.929536 0.416227 -0.219723
C97   C     C_R   0.986501 0.498810 0.447572 0.080676
C98   C     C_R   0.013446 0.501175 0.552426 0.080689
C99   C     C_R   0.513456 0.998820 0.552428 0.080678
C100  C     C_R   0.486508 0.001185 0.447572 0.080675
C101  C     C_R   0.945001 0.382700 0.441169 0.127632
C102  C     C_R   0.054781 0.617301 0.558830 0.127626
C103  C     C_R   0.554893 0.882707 0.558830 0.127641
C104  C     C_R   0.445021 0.117293 0.441170 0.127631
C105  C     C_R   0.009315 0.538742 0.484874 0.051431
C106  C     C_R   0.990598 0.461243 0.515125 0.051422
C107  C     C_R   0.490618 0.038750 0.515126 0.051432
C108  C     C_R   0.509329 0.961255 0.484874 0.051437
C109  C     C_R   0.950675 0.346422 0.507059 -0.195699
C110  C     C_R   0.049120 0.653577 0.492941 -0.195683
C111  C     C_R   0.549160 0.846428 0.492941 -0.195695
C112  C     C_R   0.450744 0.153572 0.507059 -0.195711
C113  C     C_R   0.928844 0.308390 0.470875 -0.196742
C114  C     C_R   0.070863 0.691617 0.529125 -0.196755
C115  C     C_R   0.570973 0.808394 0.529124 -0.196747
C116  C     C_R   0.428907 0.191603 0.470876 -0.196753
H33   H     H_    0.897299 0.219656 0.466129 0.140827
H34   H     H_    0.102293 0.780362 0.533875 0.140823
H35   H     H_    0.602459 0.719657 0.533870 0.140830
H36   H     H_    0.397384 0.280337 0.466131 0.140829
H37   H     H_    0.971436 0.340281 0.581487 0.098020
H38   H     H_    0.028891 0.659676 0.418503 0.098033
H39   H     H_    0.528893 0.840326 0.418503 0.098037
H40   H     H_    0.471193 0.159687 0.581495 0.098034
H41   H     H_    0.883882 0.253241 0.400049 0.127785
H42   H     H_    0.115652 0.746784 0.599957 0.127785
H43   H     H_    0.615965 0.753242 0.599951 0.127789
H44   H     H_    0.383889 0.246751 0.400050 0.127786
H45   H     H_    0.934276 0.282762 0.528087 0.130245
H46   H     H_    0.065419 0.717252 0.471914 0.130239
H47   H     H_    0.565458 0.782760 0.471913 0.130241
H48   H     H_    0.434412 0.217235 0.528088 0.130245
H49   H     H_    0.101625 0.617447 0.652929 0.104314
H50   H     H_    0.898000 0.382577 0.347077 0.104331
H51   H     H_    0.397992 0.117419 0.347077 0.104327
H52   H     H_    0.601905 0.882575 0.652925 0.104322

loop_
_geom_bond_atom_site_label_1
_geom_bond_atom_site_label_2
_ccdc_geom_bond_type
C25   H1    S    
C26   C30   A    
C17   H18   S    
C84   C92   A    
O1    C5    A    
O13   V1    S    
O3    C7    A    
C10   N2    A    
C40   C44   A    
O15   V3    S    
C16   O27   S    
C28   C56   A    
C105  C106  A    
C102  C114  A    
C16   C52   A    
C90   H49   S    
C62   C77   A    
C11   C43   A    
C18   C22   A    
C17   C33   A    
C61   C78   A    
C87   C103  A    
C112  H48   S    
C32   C36   A    
C103  C115  A    
O20   V1    S    
C88   H44   S    
O9    C4    A    
C63   C80   A    
C86   C90   A    
O10   C3    A    
C85   C89   A    
C60   C72   A    
O4    C8    A    
O11   C2    A    
C109  C113  A    
C24   C56   A    
C57   C65   A    
C31   H7    S    
C57   C69   A    
C86   C102  A    
C58   C61   A    
C59   C67   A    
C19   H20   S    
C15   O28   S    
O10   V2    S    
C47   C79   A    
C12   C44   A    
C72   H28   S    
C81   C93   A    
C48   H12   S    
C108  C111  A    
C82   C90   A    
O16   C8    A    
C25   C53   A    
C46   H10   S    
C112  C116  A    
C14   O25   S    
C45   H9    S    
C95   H40   S    
C76   H24   S    
C15   C51   A    
C96   H39   S    
C11   N3    A    
O5    C1    A    
O4    V1    S    
C20   C36   A    
C12   N4    A    
O9    V1    S    
O17   V4    S    
O7    C3    A    
C110  H46   S    
C40   C67   A    
O11   V3    S    
O18   V3    S    
O8    C4    A    
C14   C50   A    
O12   V4    S    
O19   V2    S    
C23   C55   A    
C21   C53   A    
C92   H51   S    
C73   H21   S    
C26   C54   A    
O20   V4    S    
O16   V4    S    
C111  C115  A    
C28   H4    S    
C78   H30   S    
C82   C94   A    
C6    C84   S    
C98   C106  A    
O7    V3    S    
C30   C34   A    
C87   C91   A    
O8    V4    S    
C12   O24   S    
C37   C49   A    
C32   H8    S    
C22   C54   A    
C113  H33   S    
O15   C7    A    
C80   H32   S    
N1    C33   S    
C48   C80   A    
O19   V3    S    
C49   C74   A    
C88   C104  A    
O1    V4    S    
O13   C5    A    
C72   C76   A    
C71   C75   A    
C116  H36   S    
O2    V3    S    
C83   C91   A    
C51   C76   A    
O3    V2    S    
C11   O23   S    
C31   C35   A    
C38   C42   A    
C59   C71   A    
C58   C70   A    
C38   C65   A    
C115  H35   S    
O6    C2    A    
C18   C34   A    
C37   C66   A    
C104  C116  A    
C107  C108  A    
C88   C92   A    
C95   C99   A    
C39   C68   A    
C97   C101  A    
C58   C66   A    
C70   C74   A    
C60   C63   A    
C37   C41   A    
C26   H2    S    
C106  C109  A    
C101  C113  A    
C40   C52   A    
C8    C82   S    
C10   C42   A    
C3    C54   S    
O14   V2    S    
C96   C100  A    
C9    C41   A    
O6    V2    S    
C98   C102  A    
N3    C15   A    
C83   C95   A    
C30   H6    S    
N2    C14   A    
C4    C53   S    
C69   C73   A    
C27   H3    S    
N4    C36   S    
C43   C47   A    
C46   C78   A    
O5    V1    S    
C70   H26   S    
C45   C77   A    
C60   C68   A    
C62   C66   A    
C47   H11   S    
C57   C62   A    
C100  C108  A    
C22   H13   S    
C61   C65   A    
N1    C13   A    
C109  H45   S    
C10   O22   S    
C63   C67   A    
C13   C49   A    
C44   C48   A    
C93   H38   S    
C84   C96   A    
C18   H17   S    
C2    C55   S    
C29   C33   A    
C25   C29   A    
C107  C112  A    
C89   H50   S    
C13   O26   S    
C110  C114  A    
C27   C31   A    
C111  H47   S    
C99   C103  A    
C28   C32   A    
C9    N1    A    
O14   C6    A    
C75   H23   S    
C77   H29   S    
O2    C6    A    
C39   C43   A    
O17   V1    S    
C91   H52   S    
C19   C35   A    
C20   C24   A    
C105  C110  A    
C52   C75   A    
C17   C21   A    
C1    C56   S    
C114  H34   S    
C71   H27   S    
C69   H25   S    
C9    O21   S    
C94   C98   A    
C99   C107  A    
C19   C23   A    
C5    C83   S    
C64   C79   A    
C7    C81   S    
C38   C50   A    
C27   C55   A    
C24   H15   S    
C87   H43   S    
C86   H42   S    
C64   C68   A    
C100  C104  A    
C85   H41   S    
O12   C1    A    
N3    C35   S    
C23   H16   S    
C42   C46   A    
C85   C101  A    
N2    C34   S    
C20   H19   S    
C41   C45   A    
C59   C64   A    
C39   C51   A    
C21   H14   S    
C50   C73   A    
C81   C89   A    
C74   H22   S    
C29   H5    S    
C97   C105  A    
C94   H37   S    
C93   C97   A    
N4    C16   A    
C79   H31   S    
O18   V2    S    
