data_mof_unit_23482.cif
_audit_creation_date              2012-12-11T14:34:08-0500
_audit_creation_method            fapswitch 2.2
_symmetry_space_group_name_H-M    P1
_symmetry_Int_Tables_number       1
_space_group_crystal_system       triclinic
_cell_length_a                    13.844548
_cell_length_b                    13.980814
_cell_length_c                    27.329632
_cell_angle_alpha                 89.968165
_cell_angle_beta                  90.122522
_cell_angle_gamma                 119.631798
_cell_volume                      4598.05330831

loop_
_atom_site_label
_atom_site_type_symbol
_atom_type_description
_atom_site_fract_x
_atom_site_fract_y
_atom_site_fract_z
_atom_type_partial_charge
C1    C     C_R   0.233931 0.787196 0.568778 0.539413
C2    C     C_1   0.706858 0.862461 0.860170 -0.078370
C3    C     C_1   0.113335 0.881190 0.852489 -0.077753
C4    C     C_1   0.114302 0.230769 0.852176 -0.078134
C5    C     C_1   0.628763 0.814430 0.659053 -0.075942
C6    C     C_1   0.177040 0.819378 0.656301 -0.076224
C7    C     C_1   0.178676 0.358298 0.656358 -0.076368
C8    C     C_1   0.601112 0.796112 0.616763 -0.017755
C9    C     C_1   0.199135 0.806346 0.615175 -0.018046
C10   C     C_1   0.193063 0.393194 0.615227 -0.018306
C11   C     C_R   0.064928 0.150444 0.095939 0.579033
C12   C     C_R   0.212608 0.446530 0.568811 0.542597
C13   C     C_R   0.777192 0.883881 0.088189 0.547775
C14   C     C_R   0.116476 0.893880 0.088327 0.559793
C15   C     C_R   0.069303 0.160404 0.943216 0.540310
C16   C     C_R   0.779620 0.887101 0.950776 0.541862
C17   C     C_R   0.090615 0.929692 0.943361 0.537208
C18   C     C_R   0.618220 0.893900 0.361009 -0.133756
C19   C     C_R   0.098024 0.730571 0.362709 -0.135376
C20   C     C_R   0.265100 0.361402 0.363005 -0.136659
C21   C     C_R   0.643145 0.907986 0.311323 0.016046
C22   C     C_R   0.081599 0.743190 0.313281 0.014167
C23   C     C_R   0.552771 0.765253 0.569038 0.539296
C24   C     C_R   0.242191 0.311987 0.316770 0.013874
C25   C     C_R   0.679192 0.926898 0.209987 0.020244
C26   C     C_R   0.061678 0.760359 0.211876 0.020425
C27   C     C_R   0.202202 0.231130 0.220317 0.020149
C28   C     C_R   0.232122 0.788337 0.431973 0.547437
C29   C     C_R   0.211687 0.444599 0.431414 0.549591
C30   C     C_R   0.555454 0.767006 0.431832 0.547900
C31   C     C_R   0.654030 0.999748 0.234454 -0.135414
C32   C     C_R   0.980822 0.668659 0.237329 -0.124457
C33   C     C_R   0.305449 0.264799 0.242523 -0.120663
C34   C     C_3   0.659132 0.734316 0.790311 -0.212428
C35   C     C_R   0.635568 0.989960 0.284810 -0.125514
C36   C     C_R   0.991897 0.659151 0.287620 -0.126199
C37   C     C_R   0.325441 0.305329 0.290342 -0.126854
C38   C     C_R   0.703421 0.938871 0.159880 -0.149124
C39   C     C_R   0.052053 0.771241 0.161446 -0.134737
C40   C     C_R   0.184299 0.198890 0.171088 -0.128072
C41   C     C_R   0.726132 0.863313 0.136392 -0.001637
C42   C     C_R   0.135082 0.863145 0.136884 -0.003167
C43   C     C_R   0.083293 0.173602 0.148390 -0.005980
C44   C     C_R   0.654507 0.740824 0.363483 -0.130417
C45   C     C_3   0.243891 0.954006 0.783161 -0.212057
C46   C     C_R   0.259610 0.913667 0.363972 -0.129149
C47   C     C_R   0.076236 0.328951 0.368135 -0.130504
C48   C     C_R   0.675949 0.750332 0.313424 0.026086
C49   C     C_R   0.249705 0.925669 0.313965 0.026778
C50   C     C_R   0.051851 0.281950 0.321409 0.024856
C51   C     C_R   0.668579 0.834030 0.287146 0.049003
C52   C     C_R   0.160739 0.838407 0.288352 0.048686
C53   C     C_R   0.136308 0.274528 0.295421 0.048123
C54   C     C_R   0.697579 0.674169 0.288479 0.011247
C55   C     C_R   0.330639 0.019181 0.288414 0.012689
C56   C     C_3   0.054819 0.311042 0.785617 -0.212003
C57   C     C_R   0.947552 0.248333 0.298872 0.008620
C58   C     C_R   0.709291 0.681648 0.237754 -0.106626
C59   C     C_R   0.324485 0.021240 0.237522 -0.107339
C60   C     C_R   0.930319 0.210063 0.250634 -0.101520
C61   C     C_R   0.702146 0.764329 0.212038 -0.004652
C62   C     C_R   0.236821 0.935074 0.212318 -0.002298
C63   C     C_R   0.013855 0.203844 0.224745 0.000743
C64   C     C_3   0.564748 0.853367 0.737371 -0.212962
C65   C     C_3   0.141922 0.733880 0.738739 -0.214594
C66   C     C_3   0.271930 0.390975 0.737135 -0.215107
C67   C     C_3   0.639010 0.721587 0.734313 -0.213107
C68   C     C_R   0.683514 0.841937 0.236435 0.058928
C69   C     C_R   0.152835 0.844714 0.237556 0.057458
C70   C     C_R   0.116870 0.234822 0.247108 0.055841
C71   C     C_R   0.717487 0.772374 0.162076 -0.123823
C72   C     C_R   0.230050 0.940662 0.162062 -0.132766
C73   C     C_R   0.997420 0.172269 0.175810 -0.130149
C74   C     C_R   0.617384 0.806163 0.386272 -0.008328
C75   C     C_R   0.191249 0.813057 0.387086 -0.008769
C76   C     C_R   0.183511 0.373767 0.387927 -0.008838
C77   C     C_3   0.768676 0.924375 0.723135 -0.216208
C78   C     C_3   0.260287 0.938882 0.728298 -0.212817
C79   C     C_3   0.054188 0.847240 0.714038 -0.213826
C80   C     C_3   0.124276 0.200469 0.712719 -0.213622
C81   C     C_3   0.788361 0.937171 0.779232 -0.214335
C82   C     C_3   0.036617 0.862939 0.768823 -0.216022
C83   C     C_3   0.106790 0.166399 0.767308 -0.218290
C84   C     C_1   0.734255 0.873056 0.902531 -0.028820
C85   C     C_1   0.102528 0.901633 0.894241 -0.023995
C86   C     C_1   0.095882 0.199714 0.893978 -0.027834
C87   C     C_3   0.650443 0.828662 0.711988 0.072403
C88   C     C_3   0.158228 0.834286 0.707911 0.072008
C89   C     C_3   0.072275 0.345477 0.730999 -0.212762
C90   C     C_3   0.162245 0.324274 0.707873 0.072276
C91   C     C_3   0.584748 0.865913 0.793515 -0.215523
C92   C     C_3   0.123886 0.750033 0.793567 -0.212604
C93   C     C_3   0.254342 0.356404 0.791816 -0.212392
C94   C     C_3   0.684541 0.850269 0.807270 0.073466
C95   C     C_3   0.128776 0.862161 0.800922 0.072251
C96   C     C_3   0.132454 0.265630 0.800663 0.071824
C97   C     C_3   0.705036 0.582811 0.314583 -0.411768
C98   C     C_3   0.425214 0.115727 0.314142 -0.413169
C99   C     C_3   0.855711 0.257316 0.324365 -0.410740
Cr1   Cr    Cr6+3 0.164410 0.584450 0.499910 1.015910
Cr2   Cr    Cr6+3 0.415550 0.579960 0.499910 1.016493
Cr3   Cr    Cr6+3 0.420040 0.835590 0.499910 1.014153
Cr4   Cr    Cr6+3 0.155170 0.075460 0.019960 1.015108
Cr5   Cr    Cr6+3 0.924540 0.079710 0.019960 1.005386
Cr6   Cr    Cr6+3 0.920290 0.844830 0.019960 1.007632
H1    H     H_    0.601066 0.948821 0.805249 0.112054
H2    H     H_    0.729835 0.720978 0.799808 0.110864
H3    H     H_    0.252347 0.036333 0.789081 0.104442
H4    H     H_    0.966505 0.247271 0.791620 0.108529
H5    H     H_    0.708570 0.008138 0.139802 0.103520
H6    H     H_    0.978715 0.711353 0.141868 0.112746
H7    H     H_    0.250075 0.197750 0.150088 0.119788
H8    H     H_    0.590853 0.945618 0.378848 0.126250
H9    H     H_    0.043224 0.653666 0.380992 0.123655
H10   H     H_    0.347960 0.395374 0.378301 0.123612
H11   H     H_    0.648813 0.064274 0.214701 0.097299
H12   H     H_    0.041918 0.681945 0.805790 0.114298
H13   H     H_    0.910414 0.603424 0.218218 0.099112
H14   H     H_    0.371904 0.263136 0.222385 0.098580
H15   H     H_    0.614819 0.046104 0.303016 0.100332
H16   H     H_    0.931051 0.585647 0.306380 0.099852
H17   H     H_    0.407057 0.334284 0.306204 0.100134
H18   H     H_    0.732488 0.711956 0.143900 0.128935
H19   H     H_    0.294903 0.011484 0.143084 0.123130
H20   H     H_    0.918746 0.150460 0.158347 0.116700
H21   H     H_    0.724858 0.623182 0.218155 0.098746
H22   H     H_    0.387614 0.091001 0.217401 0.094134
H23   H     H_    0.311949 0.325749 0.802309 0.112582
H24   H     H_    0.852792 0.188864 0.232445 0.108809
H25   H     H_    0.571360 0.930295 0.722218 0.112557
H26   H     H_    0.069023 0.657368 0.724821 0.112080
H27   H     H_    0.338094 0.377037 0.721460 0.112464
H28   H     H_    0.656602 0.675942 0.384207 0.135851
H29   H     H_    0.327915 0.978335 0.384159 0.137847
H30   H     H_    0.013475 0.336695 0.388412 0.136919
H31   H     H_    0.831976 0.908321 0.705792 0.108298
H32   H     H_    0.064113 0.919438 0.692726 0.109453
H33   H     H_    0.045308 0.150530 0.692223 0.109881
H34   H     H_    0.478771 0.785656 0.729892 0.108181
H35   H     H_    0.779214 0.002505 0.707524 0.111102
H36   H     H_    0.979454 0.773158 0.699568 0.112187
H37   H     H_    0.187687 0.182920 0.696621 0.110934
H38   H     H_    0.808652 0.021576 0.790543 0.109032
H39   H     H_    0.953474 0.796265 0.780680 0.108743
H40   H     H_    0.161943 0.132978 0.777353 0.107655
H41   H     H_    0.860805 0.927024 0.788743 0.101277
H42   H     H_    0.037217 0.941750 0.773625 0.099452
H43   H     H_    0.019549 0.100640 0.772869 0.101590
H44   H     H_    0.554494 0.651215 0.726813 0.110850
H45   H     H_    0.216062 0.723093 0.735133 0.107274
H46   H     H_    0.336829 0.932543 0.723691 0.110804
H47   H     H_    0.097618 0.434252 0.727973 0.110197
H48   H     H_    0.699982 0.702069 0.717042 0.111818
H49   H     H_    0.272573 0.012594 0.707527 0.112122
H50   H     H_    0.992311 0.298173 0.710875 0.113414
H51   H     H_    0.584370 0.670043 0.809613 0.113124
H52   H     H_    0.310850 0.951742 0.804888 0.115257
H53   H     H_    0.071981 0.383277 0.808752 0.116752
H54   H     H_    0.723731 0.532423 0.288991 0.115823
H55   H     H_    0.772334 0.618194 0.342412 0.130685
H56   H     H_    0.301111 0.480622 0.734239 0.107552
H57   H     H_    0.624636 0.527048 0.332605 0.123154
H58   H     H_    0.479034 0.181791 0.288142 0.114539
H59   H     H_    0.391535 0.151425 0.340880 0.133074
H60   H     H_    0.477963 0.088681 0.333596 0.118157
H61   H     H_    0.781715 0.230278 0.300505 0.117617
H62   H     H_    0.829496 0.204956 0.357648 0.131815
H63   H     H_    0.884988 0.344282 0.334583 0.123438
H64   H     H_    0.508708 0.803940 0.812869 0.111153
H65   H     H_    0.188900 0.746322 0.816187 0.114386
H66   H     H_    0.274908 0.429366 0.815085 0.115378
O1    O     O_R   0.137150 0.468200 0.553200 -0.511907
O2    O     O_R   0.140110 0.470540 0.446010 -0.523660
O3    O     O_R   0.529460 0.669570 0.446010 -0.523454
O4    O     O_R   0.330430 0.859890 0.446010 -0.524036
O5    O     O_R   0.176710 0.690910 0.450560 -0.502362
O6    O     O_R   0.309090 0.485800 0.450560 -0.501100
O7    O     O_R   0.514200 0.823290 0.450560 -0.502653
O8    O     O_3   0.333333 0.666667 0.499990 -0.262206
O9    O     O_R   0.176750 0.985260 0.074180 -0.529980
O10   O     O_R   0.014740 0.191490 0.074180 -0.494735
O11   O     O_R   0.808510 0.823250 0.074180 -0.517390
O12   O     O_R   0.531800 0.668950 0.553200 -0.511757
O13   O     O_R   0.146100 0.172630 0.068980 -0.479932
O14   O     O_R   0.827370 0.973470 0.068980 -0.518154
O15   O     O_R   0.026530 0.853900 0.068980 -0.488022
O16   O     O_3   1.000000 1.000000 0.020040 -0.285831
O17   O     O_R   0.148270 0.170520 0.969620 -0.490625
O18   O     O_R   0.829480 0.977750 0.969620 -0.519875
O19   O     O_R   0.022250 0.851730 0.969620 -0.481942
O20   O     O_R   0.331050 0.862850 0.553200 -0.510604
O21   O     O_R   0.179100 0.982980 0.967000 -0.504666
O22   O     O_R   0.017020 0.196120 0.967000 -0.483815
O23   O     O_R   0.803880 0.820900 0.967000 -0.511861
O24   O     O_R   0.173970 0.688730 0.549930 -0.500866
O25   O     O_R   0.311270 0.485240 0.549930 -0.500072
O26   O     O_R   0.514760 0.826030 0.549930 -0.498907

loop_
_geom_bond_atom_site_label_1
_geom_bond_atom_site_label_2
_ccdc_geom_bond_type
C25   C31   A    
C65   C92   S    
C26   C32   A    
C55   C59   A    
C67   H44   S    
C18   C21   A    
C56   H4    S    
C2    C84   T    
C11   O10   A    
C77   H35   S    
C6    C9    T    
C13   C41   S    
C82   H42   S    
C35   H15   S    
C40   H7    S    
C29   C76   S    
C27   C33   A    
C48   C54   A    
Cr5   O14   S    
C46   C49   A    
C60   C63   A    
C17   C85   S    
C34   H2    S    
C97   H54   S    
C71   H18   S    
C1    O24   A    
C47   C76   A    
C30   C74   S    
C73   H20   S    
C26   C39   A    
C89   H50   S    
Cr1   O1    S    
C83   C96   S    
C59   H22   S    
C57   C99   S    
C16   C84   S    
C8    C23   S    
C6    C88   S    
C20   C76   A    
Cr4   O9    S    
C7    C10   T    
C65   H45   S    
C39   C42   A    
C79   C88   S    
C56   H53   S    
C52   C69   A    
C83   H40   S    
C43   C73   A    
C89   H47   S    
C1    C9    S    
C20   C24   A    
C92   H65   S    
Cr1   O5    S    
Cr5   O22   S    
C54   C97   S    
C11   C43   S    
C45   C78   S    
C77   H31   S    
Cr6   O11   S    
C38   H5    S    
C64   C87   S    
C66   H27   S    
Cr2   O12   S    
Cr2   O25   S    
C14   C42   S    
C99   H61   S    
C61   C71   A    
C58   C61   A    
C39   H6    S    
Cr5   O10   S    
C18   C74   A    
C29   O6    A    
C72   H19   S    
Cr3   O8    S    
C12   O25   A    
C91   H1    S    
Cr2   O3    S    
C11   O13   A    
C25   C68   A    
C80   C83   S    
C53   C70   A    
C18   H8    S    
C46   C75   A    
C65   H26   S    
C58   H21   S    
C78   H46   S    
C98   H58   S    
C47   C50   A    
C99   H62   S    
C40   C43   A    
C17   O21   A    
C4    C96   S    
Cr6   O23   S    
C48   C51   A    
C50   C53   A    
C13   O14   A    
C91   H64   S    
Cr4   O13   S    
C45   H52   S    
C97   H55   S    
C2    C94   S    
C19   C22   A    
Cr4   O16   S    
C38   C41   A    
C12   O1    A    
Cr3   O26   S    
C29   O2    A    
C78   H49   S    
C57   C60   A    
C63   C73   A    
C19   H9    S    
Cr3   O4    S    
C49   C55   A    
C7    C90   S    
C92   C95   S    
C33   C37   A    
C37   H17   S    
C62   C69   A    
C15   O22   A    
Cr6   O15   S    
C34   C67   S    
C92   H12   S    
C13   O11   A    
C14   O15   A    
C23   O12   A    
Cr2   O8    S    
C25   C38   A    
C46   H29   S    
C63   C70   A    
C77   C81   S    
C27   C40   A    
C49   C52   A    
C42   C72   A    
Cr3   O20   S    
C30   O7    A    
C62   C72   A    
C44   C74   A    
C77   C87   S    
C27   C70   A    
C10   C12   S    
C15   C86   S    
C1    O20   A    
C82   H39   S    
C56   C89   S    
C79   H32   S    
C64   H25   S    
C81   H41   S    
C93   C96   S    
C80   H37   S    
C66   C93   S    
Cr3   O7    S    
C31   C35   A    
C3    C85   T    
C5    C8    T    
C45   C95   S    
C32   C36   A    
C31   H11   S    
C21   C51   A    
C65   C88   S    
C22   C52   A    
C99   H63   S    
C54   C58   A    
Cr1   O24   S    
C78   C88   S    
C44   H28   S    
C56   C96   S    
Cr5   O16   S    
C93   H66   S    
C59   C62   A    
C82   C95   S    
C47   H30   S    
C79   C82   S    
C50   C57   A    
Cr6   O19   S    
C28   O5    A    
Cr4   O17   S    
C34   C94   S    
C32   H13   S    
C60   H24   S    
C20   H10   S    
C98   H59   S    
C45   H3    S    
C28   O4    A    
C33   H14   S    
C21   C35   A    
C34   H51   S    
C17   O19   A    
C24   C37   A    
C22   C36   A    
C15   O17   A    
C23   O26   A    
C67   C87   S    
C41   C71   A    
C67   H48   S    
Cr6   O16   S    
C19   C75   A    
C36   H16   S    
C24   C53   A    
C93   H23   S    
C91   C94   S    
C81   C94   S    
Cr1   O8    S    
C61   C68   A    
C79   H36   S    
C80   H33   S    
Cr5   O18   S    
C55   C98   S    
C66   C90   S    
C51   C68   A    
C80   C90   S    
C98   H60   S    
C16   O23   A    
C16   O18   A    
C83   H43   S    
C5    C87   S    
C81   H38   S    
C4    C86   T    
C66   H56   S    
C97   H57   S    
Cr1   O2    S    
C26   C69   A    
C3    C95   S    
Cr4   O21   S    
C64   C91   S    
C89   C90   S    
C28   C75   S    
C30   O3    A    
Cr2   O6    S    
C14   O9    A    
C44   C48   A    
C64   H34   S    
