data_mof_unit_8818.cif
_audit_creation_date              2012-10-26T21:04:04-0400
_audit_creation_method            fapswitch 2.2
_symmetry_space_group_name_H-M    P1
_symmetry_Int_Tables_number       1
_space_group_crystal_system       triclinic
_cell_length_a                    15.08758
_cell_length_b                    13.875329
_cell_length_c                    10.871889
_cell_angle_alpha                 89.985597
_cell_angle_beta                  90.539857
_cell_angle_gamma                 89.852418
_cell_volume                      2275.86841915

loop_
_atom_site_label
_atom_site_type_symbol
_atom_type_description
_atom_site_fract_x
_atom_site_fract_y
_atom_site_fract_z
_atom_type_partial_charge
C1    C     C_R   0.330271 0.500173 0.497132 0.541728
C2    C     C_R   0.422713 0.107654 0.471755 -0.153638
C3    C     C_R   0.575685 0.208533 0.528149 0.037320
C4    C     C_R   0.424341 0.209126 0.471110 0.036317
C5    C     C_R   0.499920 0.054908 0.499434 0.008668
C6    C     C_R   0.485741 0.892778 0.389434 -0.028507
C7    C     C_R   0.513969 0.892954 0.609995 -0.028627
C8    C     C_R   0.484625 0.790943 0.393811 0.039761
C9    C     C_R   0.515304 0.791091 0.606040 0.041364
C10   C     C_R   0.499850 0.946039 0.499599 0.032013
C11   C     C_R   0.499699 0.499888 0.262594 0.547464
C12   C     C_R   0.669950 0.499873 0.504009 0.542521
C13   C     C_R   0.499038 0.499866 0.737394 0.546115
C14   C     C_R   0.503424 0.582843 0.061896 0.016641
C15   C     C_R   0.503602 0.582730 0.938081 0.016515
C16   C     C_R   0.498602 0.498613 0.130050 0.002951
C17   C     C_R   0.497510 0.498604 0.869940 0.004707
C18   C     C_R   0.491821 0.410976 0.064552 -0.180183
C19   C     C_R   0.490490 0.411061 0.935408 -0.180726
C20   C     C_3   0.511958 0.689307 0.929215 -0.275817
C21   C     C_3   0.510199 0.689658 0.070346 -0.275575
C22   C     C_R   0.097940 0.520856 0.606591 -0.128807
C23   C     C_R   0.185998 0.483898 0.384598 -0.014321
C24   C     C_R   0.902592 0.550316 0.410250 -0.130173
C25   C     C_R   0.189950 0.519840 0.604307 -0.140699
C26   C     C_R   0.810565 0.549247 0.413223 -0.141558
C27   C     C_R   0.234167 0.500856 0.494477 0.036141
C28   C     C_R   0.766508 0.499929 0.506847 0.031320
C29   C     C_3   0.476393 0.940371 0.264455 -0.272466
C30   C     C_3   0.381505 0.931579 0.213693 -0.300168
C31   C     C_3   0.374096 0.973552 0.084255 -0.457357
C32   C     C_3   0.522925 0.940851 0.734787 -0.271742
C33   C     C_3   0.617883 0.932712 0.785570 -0.299138
C34   C     C_R   0.815500 0.452409 0.600667 -0.012138
C35   C     C_3   0.624778 0.974449 0.915136 -0.457267
C36   C     C_3   0.230602 0.468451 0.262005 -0.262952
C37   C     C_3   0.253322 0.565339 0.201821 -0.297075
C38   C     C_3   0.270128 0.553810 0.064339 -0.455412
C39   C     C_3   0.772452 0.406050 0.711067 -0.262352
C40   C     C_3   0.746549 0.482532 0.806109 -0.294737
C41   C     C_3   0.721512 0.436173 0.928182 -0.448424
C42   C     C_R   0.093305 0.485106 0.388265 -0.108564
C43   C     C_R   0.908135 0.453867 0.596036 -0.108219
C44   C     C_R   0.049100 0.503128 0.498711 0.017140
C45   C     C_R   0.951847 0.502445 0.501485 0.017134
C46   C     C_R   0.577211 0.107070 0.527076 -0.152460
Cu1   Cu    Cu3+1 0.500000 0.596430 0.500000 0.916971
Cu2   Cu    Cu3+1 0.500000 0.403570 0.500000 0.916799
H1    H     H_    0.487083 0.342703 0.112293 0.137714
H2    H     H_    0.935344 0.589278 0.337343 0.105299
H3    H     H_    0.226879 0.533593 0.688477 0.104387
H4    H     H_    0.773462 0.586333 0.341580 0.112134
H5    H     H_    0.055419 0.471562 0.304873 0.100916
H6    H     H_    0.946526 0.417420 0.666912 0.099987
H7    H     H_    0.638568 0.069593 0.547444 0.092712
H8    H     H_    0.361387 0.070624 0.450868 0.093642
H9    H     H_    0.635895 0.246461 0.551248 0.116876
H10   H     H_    0.364288 0.247565 0.447296 0.124778
H11   H     H_    0.417034 0.932620 0.020262 0.146187
H12   H     H_    0.485136 0.342828 0.887612 0.137235
H13   H     H_    0.304459 0.968337 0.051047 0.140040
H14   H     H_    0.394028 0.050573 0.084297 0.151108
H15   H     H_    0.361112 0.854730 0.210271 0.148054
H16   H     H_    0.334994 0.970558 0.274762 0.159983
H17   H     H_    0.495423 0.017517 0.267431 0.159809
H18   H     H_    0.523222 0.904907 0.200197 0.127301
H19   H     H_    0.603904 0.051289 0.915318 0.150742
H20   H     H_    0.582347 0.932985 0.979010 0.147906
H21   H     H_    0.694474 0.969783 0.948332 0.139626
H22   H     H_    0.639151 0.856048 0.788707 0.149737
H23   H     H_    0.472331 0.751535 0.310475 0.126169
H24   H     H_    0.663980 0.972187 0.724684 0.159167
H25   H     H_    0.503161 0.017886 0.731503 0.159487
H26   H     H_    0.476420 0.905315 0.799210 0.126402
H27   H     H_    0.319471 0.496071 0.047788 0.171444
H28   H     H_    0.207526 0.534955 0.015558 0.142693
H29   H     H_    0.295472 0.622538 0.026089 0.144425
H30   H     H_    0.197786 0.617329 0.213471 0.162200
H31   H     H_    0.313275 0.596093 0.246949 0.177884
H32   H     H_    0.291526 0.424019 0.273195 0.149228
H33   H     H_    0.185582 0.426975 0.200162 0.134107
H34   H     H_    0.527693 0.751839 0.689608 0.127677
H35   H     H_    0.670312 0.380018 0.913367 0.164221
H36   H     H_    0.780741 0.402361 0.971839 0.143753
H37   H     H_    0.695130 0.491949 0.991377 0.153888
H38   H     H_    0.802992 0.532377 0.822914 0.159550
H39   H     H_    0.689613 0.525513 0.770603 0.170124
H40   H     H_    0.713611 0.363355 0.683355 0.156363
H41   H     H_    0.819422 0.354043 0.754655 0.129375
H42   H     H_    0.577041 0.711307 0.891594 0.124085
H43   H     H_    0.448764 0.722791 0.106752 0.122321
H44   H     H_    0.452577 0.723547 0.886322 0.129148
H45   H     H_    0.573380 0.713687 0.113726 0.132362
H46   H     H_    0.064869 0.536226 0.692411 0.104257
N1    N     N_R   0.500000 0.258690 0.500000 -0.218809
N2    N     N_R   0.500000 0.741330 0.500000 -0.239386
O1    O     O_R   0.371460 0.581430 0.500010 -0.496241
O2    O     O_R   0.628540 0.581430 0.499990 -0.496274
O3    O     O_R   0.371470 0.418560 0.500010 -0.516976
O4    O     O_R   0.628530 0.418560 0.499990 -0.515821
O5    O     O_R   0.499990 0.581450 0.319660 -0.518709
O6    O     O_R   0.500010 0.581450 0.680340 -0.516359
O7    O     O_R   0.500010 0.418580 0.319660 -0.504023
O8    O     O_R   0.499990 0.418580 0.680340 -0.504397

loop_
_geom_bond_atom_site_label_1
_geom_bond_atom_site_label_2
_ccdc_geom_bond_type
C7    C10   A    
Cu1   O5    S    
Cu2   N1    S    
C30   H16   S    
C31   H13   S    
C8    N2    A    
C1    O3    A    
C38   H28   S    
C37   H31   S    
C37   C38   S    
Cu1   O2    S    
C12   C28   S    
C24   C45   A    
C14   C21   S    
C36   C37   S    
C24   C26   A    
C42   H5    S    
C32   H26   S    
C30   C31   S    
C31   H11   S    
Cu2   O8    S    
C15   C17   A    
C18   C19   A    
C40   H38   S    
C33   H24   S    
C17   C19   A    
C22   C44   A    
C22   C25   A    
C46   H7    S    
Cu1   N2    S    
C23   C27   A    
C12   O2    A    
C9    H34   S    
C28   C34   A    
Cu1   O6    S    
C30   H15   S    
C22   H46   S    
C31   H14   S    
C42   C44   A    
C39   H40   S    
C38   H27   S    
C24   H2    S    
C15   C20   S    
Cu2   O4    S    
C34   C39   S    
C36   H32   S    
C1    O1    A    
C32   H25   S    
C6    C8    A    
Cu2   O7    S    
C20   H42   S    
C2    C4    A    
C25   H3    S    
C29   C30   S    
C26   H4    S    
C4    N1    A    
C20   H44   S    
C11   C16   S    
C43   H6    S    
C23   C42   A    
Cu1   Cu2   S    
C35   H19   S    
C36   H33   S    
C11   O5    A    
C13   O8    A    
C43   C45   A    
C9    N2    A    
C33   H22   S    
C29   H17   S    
C3    H9    S    
C40   C41   S    
C14   C16   A    
C2    C5    A    
C39   C40   S    
C44   C45   S    
C40   H39   S    
C21   H43   S    
C7    C9    A    
Cu2   O3    S    
C8    H23   S    
C7    C32   S    
C34   C43   A    
C6    C10   A    
C11   O7    A    
C38   H29   S    
C19   H12   S    
C25   C27   A    
C41   H37   S    
C5    C46   A    
C3    C46   A    
C26   C28   A    
Cu1   O1    S    
C13   C17   S    
C32   C33   S    
C5    C10   S    
C2    H8    S    
C41   H36   S    
C21   H45   S    
C35   H20   S    
C33   C35   S    
C12   O4    A    
C29   H18   S    
C6    C29   S    
C20   C21   S    
C35   H21   S    
C16   C18   A    
C23   C36   S    
C4    H10   S    
C1    C27   S    
C14   C15   A    
C3    N1    A    
C13   O6    A    
C37   H30   S    
C39   H41   S    
C18   H1    S    
C41   H35   S    
