data_mof_unit_40268.cif
_audit_creation_date              2012-12-11T15:23:53-0500
_audit_creation_method            fapswitch 2.2
_symmetry_space_group_name_H-M    P1
_symmetry_Int_Tables_number       1
_space_group_crystal_system       triclinic
_cell_length_a                    17.279435
_cell_length_b                    24.289654
_cell_length_c                    14.917761
_cell_angle_alpha                 90.063535
_cell_angle_beta                  124.739174
_cell_angle_gamma                 90.343807
_cell_volume                      5144.96298768

loop_
_atom_site_label
_atom_site_type_symbol
_atom_type_description
_atom_site_fract_x
_atom_site_fract_y
_atom_site_fract_z
_atom_type_partial_charge
C1    C     C_R   0.311028 0.375727 0.910341 -0.225659
C2    C     C_R   0.544143 0.501189 0.716995 -0.002111
C3    C     C_3   0.577086 0.137901 0.540776 -0.211916
C4    C     C_3   0.502464 0.172400 0.538571 -0.962211
C5    C     C_3   0.323745 0.102047 0.200515 0.106707
C6    C     C_3   0.426831 0.093778 0.244423 -0.283446
C7    C     C_3   0.442725 0.099705 0.154151 -0.925280
C8    C     C_3   0.526651 0.318762 0.227359 0.167848
C9    C     C_3   0.501887 0.263182 0.167513 -0.363828
C10   C     C_3   0.590457 0.229945 0.207139 -0.910991
C11   C     C_3   0.474120 0.301205 0.808587 0.192751
C12   C     C_3   0.427833 0.264652 0.707000 -0.244376
C13   C     C_R   0.956076 0.000762 0.283330 0.027784
C14   C     C_3   0.350667 0.228378 0.696597 -0.940935
C15   C     C_3   0.037841 0.814148 0.212236 0.178426
C16   C     C_3   0.073237 0.771978 0.303457 -0.287312
C17   C     C_3   0.163071 0.744171 0.330539 -0.898093
C18   C     C_3   0.985403 0.813641 0.772527 0.164912
C19   C     C_3   0.028737 0.756539 0.814236 -0.358901
C20   C     C_3   0.952661 0.712265 0.773995 -0.926815
C21   C     C_R   0.934443 0.000727 0.633470 -0.007882
C22   C     C_R   0.204813 0.497129 0.631976 -0.231888
C23   C     C_R   0.821681 0.498219 0.332325 -0.219805
C24   C     C_R   0.704989 0.996560 0.631950 -0.224170
C25   C     C_R   0.322153 0.998454 0.330869 -0.225616
C26   C     C_2   0.973761 0.467745 0.391652 -0.314314
C27   C     C_2   0.069267 0.454932 0.478158 -0.084273
C28   C     C_2   0.474002 0.966310 0.391982 -0.313087
C29   C     C_R   0.685380 0.371552 0.089408 -0.244033
C30   C     C_2   0.569327 0.953851 0.479380 -0.076100
C31   C     C_2   0.920398 0.494606 0.415916 0.552691
C32   C     C_2   0.135268 0.494117 0.515030 0.539397
C33   C     C_2   0.420972 0.995083 0.414349 0.550310
C34   C     C_2   0.635783 0.992703 0.515002 0.526032
C35   C     C_R   0.299981 0.769080 0.904985 -0.205182
C36   C     C_R   0.695564 0.770898 0.094621 -0.201865
C37   C     C_R   0.797657 0.267739 0.902867 -0.190566
C38   C     C_R   0.195146 0.271441 0.094020 -0.206065
C39   C     C_R   0.743382 0.309491 0.902443 -0.126502
C40   C     C_R   0.812082 0.873844 0.909479 -0.194211
C41   C     C_R   0.246967 0.315499 0.094860 -0.117267
C42   C     C_R   0.250839 0.814182 0.904104 -0.142060
C43   C     C_R   0.750589 0.812720 0.094881 -0.109985
C44   C     C_R   0.754892 0.324231 0.000197 0.155544
C45   C     C_R   0.237447 0.330319 0.998211 0.150208
C46   C     C_R   0.261205 0.830211 0.000699 0.153991
C47   C     C_R   0.740652 0.826291 0.997482 0.151920
C48   C     C_R   0.835277 0.306965 0.099705 -0.160541
C49   C     C_R   0.160297 0.309929 0.898352 -0.145387
C50   C     C_R   0.338111 0.810346 0.100620 -0.152539
C51   C     C_R   0.187425 0.874353 0.088560 -0.258172
C52   C     C_R   0.661296 0.807472 0.897955 -0.150989
C53   C     C_R   0.388041 0.765838 0.101803 -0.157277
C54   C     C_R   0.605006 0.766736 0.897486 -0.154756
C55   C     C_R   0.890386 0.265972 0.100261 -0.156254
C56   C     C_R   0.107438 0.266703 0.897249 -0.158144
C57   C     C_R   0.441722 0.650878 0.091603 -0.108384
C58   C     C_R   0.552768 0.652346 0.909002 -0.135355
C59   C     C_R   0.944347 0.151834 0.090712 -0.132523
C60   C     C_R   0.055039 0.151666 0.908444 -0.116546
C61   C     C_R   0.361594 0.741290 0.003171 0.144970
C62   C     C_R   0.384219 0.683634 0.001783 0.028119
C63   C     C_R   0.629535 0.743772 0.996473 0.138957
C64   C     C_R   0.864086 0.241728 0.001456 0.139922
C65   C     C_R   0.132144 0.243327 0.995946 0.139745
C66   C     C_R   0.598393 0.552420 0.619144 -0.149276
C67   C     C_R   0.603934 0.552389 0.530386 -0.139121
C68   C     C_R   0.895494 0.051491 0.469473 -0.089356
C69   C     C_R   0.901402 0.051548 0.380955 -0.167457
C70   C     C_R   0.599586 0.502263 0.481099 0.149045
C71   C     C_R   0.588324 0.502312 0.658087 0.139777
C72   C     C_R   0.911702 0.001521 0.342077 0.134887
C73   C     C_R   0.605354 0.686340 0.998120 0.028757
C74   C     C_R   0.899952 0.001422 0.518710 0.173245
C75   C     C_R   0.611384 0.452772 0.535767 -0.119145
C76   C     C_R   0.606176 0.452854 0.624866 -0.168780
C77   C     C_R   0.893595 0.951916 0.374968 -0.170241
C78   C     C_R   0.888088 0.951819 0.463873 -0.121910
C79   C     C_R   0.550678 0.454971 0.304516 -0.032440
C80   C     C_R   0.511341 0.454774 0.740186 -0.085383
C81   C     C_R   0.989075 0.954627 0.260347 -0.123471
C82   C     C_R   0.949721 0.954664 0.695575 -0.016458
C83   C     C_R   0.245567 0.543601 0.696896 0.538530
C84   C     C_R   0.887585 0.184413 0.000694 0.039844
C85   C     C_R   0.769826 0.544321 0.277425 0.515477
C86   C     C_R   0.745901 0.043372 0.696130 0.529198
C87   C     C_R   0.269848 0.044513 0.276560 0.527165
C88   C     C_R   0.546644 0.546260 0.301058 -0.112556
C89   C     C_R   0.517829 0.546524 0.749359 -0.080246
C90   C     C_R   0.982196 0.046258 0.250693 -0.099567
C91   C     C_R   0.953351 0.045971 0.698955 -0.102342
C92   C     C_R   0.252406 0.452541 0.696452 0.341221
C93   C     C_R   0.762276 0.453499 0.289596 0.358948
C94   C     C_R   0.752022 0.952166 0.697125 0.325349
C95   C     C_R   0.108381 0.185725 0.997629 0.015798
C96   C     C_R   0.262769 0.953705 0.289193 0.366879
C97   C     C_R   0.355837 0.652343 0.910379 -0.135586
C98   C     C_R   0.635731 0.654505 0.088762 -0.147181
C99   C     C_R   0.857097 0.152494 0.909738 -0.131059
C100  C     C_R   0.137237 0.154310 0.088555 -0.141265
C101  C     C_R   0.404449 0.370612 0.091913 0.541031
C102  C     C_R   0.590455 0.364701 0.908835 0.483977
C103  C     C_R   0.907487 0.864980 0.089699 0.484607
C104  C     C_R   0.095502 0.871350 0.907542 0.547658
C105  C     C_R   0.313132 0.359976 0.001341 -0.099382
C106  C     C_R   0.565577 0.501221 0.366507 0.017283
C107  C     C_R   0.680624 0.353330 0.998662 -0.082800
C108  C     C_R   0.816092 0.855250 0.999681 -0.079940
C109  C     C_R   0.185927 0.859786 0.997646 -0.103110
C110  C     C_3   0.151580 0.617351 0.664525 0.178382
C111  C     C_3   0.071882 0.636565 0.551247 -0.217543
C112  C     C_3   0.997141 0.668113 0.554028 -0.956851
C113  C     C_3   0.824367 0.606286 0.208516 0.103742
C114  C     C_3   0.927120 0.597553 0.251636 -0.287689
C115  C     C_3   0.945905 0.612755 0.166272 -0.915912
C116  C     C_3   0.653313 0.118903 0.656031 0.181626
Cl1   Cl    Cl    0.959548 0.513896 0.549775 -0.679050
Cl2   Cl    Cl    0.136323 0.543327 0.429039 -0.677341
Cl3   Cl    Cl    0.460936 0.018338 0.546361 -0.677778
Cl4   Cl    Cl    0.639437 0.039318 0.427026 -0.695527
Cl5   Cl    Cl    0.258054 0.387847 0.647153 -0.731586
Cl6   Cl    Cl    0.779387 0.391694 0.360097 -0.693669
Cl7   Cl    Cl    0.755819 0.886484 0.649283 -0.761014
Cl8   Cl    Cl    0.281657 0.891885 0.360196 -0.695241
H1    H     H_    0.252227 0.373310 0.826221 0.184269
H2    H     H_    0.298988 0.334455 0.172286 0.178879
H3    H     H_    0.073655 0.746434 0.785233 0.213982
H4    H     H_    0.073594 0.756556 0.904877 0.203683
H5    H     H_    0.908222 0.720859 0.804273 0.269087
H6    H     H_    0.986184 0.671475 0.804835 0.272102
H7    H     H_    0.907494 0.710780 0.683414 0.272382
H8    H     H_    0.199672 0.832738 0.826567 0.179661
H9    H     H_    0.805248 0.830840 0.172180 0.157431
H10   H     H_    0.851652 0.320765 0.177563 0.136852
H11   H     H_    0.145602 0.322957 0.820961 0.135395
H12   H     H_    0.354725 0.824781 0.178211 0.135841
H13   H     H_    0.646942 0.819812 0.820351 0.137461
H14   H     H_    0.439889 0.747740 0.179787 0.118191
H15   H     H_    0.550147 0.749260 0.819622 0.120593
H16   H     H_    0.945801 0.249439 0.178228 0.118635
H17   H     H_    0.743221 0.366907 0.172511 0.191766
H18   H     H_    0.054849 0.248301 0.819309 0.119670
H19   H     H_    0.591848 0.591646 0.648345 0.114098
H20   H     H_    0.601187 0.591582 0.494546 0.115254
H21   H     H_    0.898046 0.090720 0.505304 0.116814
H22   H     H_    0.908067 0.090816 0.351922 0.115287
H23   H     H_    0.614829 0.413444 0.504369 0.119365
H24   H     H_    0.606631 0.413723 0.659666 0.116180
H25   H     H_    0.893191 0.912770 0.340090 0.118603
H26   H     H_    0.884504 0.912484 0.495116 0.121714
H27   H     H_    0.486525 0.663774 0.175933 0.088839
H28   H     H_    0.752643 0.872162 0.825747 0.185727
H29   H     H_    0.506567 0.664770 0.824849 0.101999
H30   H     H_    0.990729 0.165352 0.174469 0.091640
H31   H     H_    0.010420 0.163625 0.823839 0.096443
H32   H     H_    0.573076 0.413971 0.335192 0.130570
H33   H     H_    0.510623 0.413509 0.714521 0.168525
H34   H     H_    0.990370 0.913505 0.286753 0.159012
H35   H     H_    0.927820 0.913352 0.665046 0.157386
H36   H     H_    0.562212 0.588960 0.325696 0.097633
H37   H     H_    0.529344 0.589445 0.741981 0.095403
H38   H     H_    0.970632 0.089083 0.258046 0.094701
H39   H     H_    0.244782 0.869026 0.171608 0.193459
H40   H     H_    0.937476 0.088481 0.674258 0.114230
H41   H     H_    0.327986 0.668026 0.830057 0.125992
H42   H     H_    0.666931 0.669279 0.171019 0.134847
H43   H     H_    0.829010 0.167635 0.829031 0.121302
H44   H     H_    0.169064 0.169258 0.170812 0.138690
H45   H     H_    0.945491 0.453237 0.309382 0.148811
H46   H     H_    0.074549 0.423927 0.533875 0.184063
H47   H     H_    0.445316 0.949718 0.310958 0.150603
H48   H     H_    0.573811 0.923985 0.536375 0.186097
H49   H     H_    0.176268 0.653452 0.719856 0.102152
H50   H     H_    0.282747 0.753558 0.827657 0.119055
H51   H     H_    0.122756 0.587331 0.695477 0.123979
H52   H     H_    0.100639 0.663415 0.516289 0.213018
H53   H     H_    0.038339 0.599930 0.498355 0.243995
H54   H     H_    0.967988 0.642270 0.589705 0.304165
H55   H     H_    0.938834 0.679430 0.469681 0.283521
H56   H     H_    0.027860 0.706433 0.603058 0.249260
H57   H     H_    0.811046 0.650387 0.185848 0.151750
H58   H     H_    0.778897 0.581310 0.132605 0.104136
H59   H     H_    0.972276 0.623916 0.324348 0.229184
H60   H     H_    0.944568 0.553826 0.272344 0.229536
H61   H     H_    0.711920 0.756496 0.172129 0.120693
H62   H     H_    0.902642 0.586521 0.092351 0.258662
H63   H     H_    0.021426 0.606265 0.200333 0.304160
H64   H     H_    0.929108 0.656721 0.143077 0.249840
H65   H     H_    0.677981 0.155480 0.710159 0.101607
H66   H     H_    0.621196 0.090487 0.685416 0.128159
H67   H     H_    0.609440 0.162623 0.507366 0.215173
H68   H     H_    0.542326 0.101227 0.488387 0.244654
H69   H     H_    0.469559 0.148719 0.572449 0.303054
H70   H     H_    0.446744 0.183687 0.453080 0.283441
H71   H     H_    0.534532 0.210805 0.586869 0.245804
H72   H     H_    0.780189 0.252523 0.825238 0.114274
H73   H     H_    0.308902 0.145199 0.171615 0.147242
H74   H     H_    0.278531 0.074752 0.128049 0.103670
H75   H     H_    0.470731 0.124893 0.308712 0.225328
H76   H     H_    0.448134 0.052142 0.278032 0.233299
H77   H     H_    0.402806 0.067353 0.090876 0.261507
H78   H     H_    0.518795 0.095072 0.189146 0.302749
H79   H     H_    0.419594 0.140811 0.115495 0.250804
H80   H     H_    0.564788 0.310583 0.316112 0.149415
H81   H     H_    0.576376 0.342670 0.217242 0.141188
H82   H     H_    0.454799 0.239416 0.181914 0.216080
H83   H     H_    0.211313 0.256697 0.171233 0.125691
H84   H     H_    0.464299 0.269886 0.078349 0.193716
H85   H     H_    0.639027 0.253546 0.194939 0.272064
H86   H     H_    0.571059 0.190907 0.160054 0.265386
H87   H     H_    0.627046 0.220001 0.294989 0.275945
H88   H     H_    0.419145 0.327162 0.803888 0.164806
H89   H     H_    0.506282 0.274295 0.881904 0.094658
H90   H     H_    0.396735 0.290882 0.633287 0.234336
H91   H     H_    0.482106 0.238003 0.711738 0.195282
H92   H     H_    0.380499 0.201244 0.768847 0.257525
H93   H     H_    0.318878 0.202189 0.622386 0.274609
H94   H     H_    0.688132 0.326566 0.824952 0.156915
H95   H     H_    0.294607 0.254220 0.689523 0.291065
H96   H     H_    0.090176 0.848271 0.241376 0.163292
H97   H     H_    0.029927 0.793384 0.140609 0.106607
H98   H     H_    0.087171 0.792818 0.377755 0.211815
H99   H     H_    0.018073 0.739921 0.277870 0.208533
H100  H     H_    0.149975 0.722024 0.257849 0.258393
H101  H     H_    0.186516 0.713929 0.396967 0.275620
H102  H     H_    0.219961 0.775164 0.358128 0.303107
H103  H     H_    0.938550 0.811896 0.682001 0.160845
H104  H     H_    0.939609 0.824516 0.800320 0.144143
N1    N     N_R   0.395440 0.396300 0.944370 -0.068622
N2    N     N_R   0.474910 0.470990 0.794360 -0.037983
N3    N     N_R   0.025090 0.970990 0.205640 -0.042380
N4    N     N_R   0.974910 0.970990 0.794360 -0.052311
N5    N     N_R   0.320240 0.527820 0.794510 -0.120888
N6    N     N_R   0.679760 0.527820 0.205490 -0.124011
N7    N     N_R   0.820240 0.027820 0.794510 -0.118040
N8    N     N_R   0.179760 0.027820 0.205490 -0.124874
N9    N     N_R   0.524580 0.527810 0.205160 -0.049793
N10   N     N_R   0.475420 0.527810 0.794840 -0.045451
N11   N     N_R   0.024580 0.027810 0.205160 -0.043127
N12   N     N_R   0.604560 0.396300 0.055630 -0.068430
N13   N     N_R   0.975420 0.027810 0.794840 -0.055982
N14   N     N_R   0.320750 0.470990 0.794990 -0.099411
N15   N     N_R   0.679250 0.470990 0.205010 -0.112433
N16   N     N_R   0.820750 0.970990 0.794990 -0.098391
N17   N     N_R   0.179250 0.970990 0.205010 -0.110605
N18   N     N_R   0.393580 0.602500 0.942610 -0.040455
N19   N     N_R   0.606420 0.602500 0.057390 -0.050724
N20   N     N_R   0.893580 0.102500 0.942610 -0.040123
N21   N     N_R   0.106420 0.102500 0.057390 -0.050458
N22   N     N_R   0.451750 0.396300 0.057540 -0.109169
N23   N     N_R   0.895440 0.896300 0.944370 -0.062229
N24   N     N_R   0.548250 0.396300 0.942460 -0.099422
N25   N     N_R   0.951750 0.896300 0.057540 -0.108609
N26   N     N_R   0.048250 0.896300 0.942460 -0.101287
N27   N     N_R   0.104560 0.896300 0.055630 -0.072322
N28   N     N_R   0.449890 0.602500 0.055780 -0.040707
N29   N     N_R   0.550110 0.602500 0.944220 -0.047261
N30   N     N_R   0.949890 0.102500 0.055780 -0.041509
N31   N     N_R   0.050110 0.102500 0.944220 -0.045438
N32   N     N_R   0.525090 0.470990 0.205640 -0.054327
Ni1   Ni    Ni4+2 0.435420 0.434250 0.870220 0.245854
Ni2   Ni    Ni4+2 0.564580 0.434250 0.129780 0.217482
Ni3   Ni    Ni4+2 0.935420 0.934250 0.870220 0.236028
Ni4   Ni    Ni4+2 0.064580 0.934250 0.129780 0.221551
Ni5   Ni    Ni4+2 0.563400 0.564580 0.128670 0.212193
Ni6   Ni    Ni4+2 0.436600 0.564580 0.871330 0.240244
Ni7   Ni    Ni4+2 0.063400 0.064580 0.128670 0.220165
Ni8   Ni    Ni4+2 0.936600 0.064580 0.871330 0.228155
O1    O     O_3   0.227442 0.597481 0.661761 -0.635229
O2    O     O_3   0.805767 0.596981 0.288909 -0.649000
O3    O     O_3   0.730557 0.096823 0.658608 -0.642169
O4    O     O_3   0.306164 0.096497 0.282604 -0.648306
O5    O     O_3   0.444705 0.348919 0.195094 -0.703400
O6    O     O_3   0.543598 0.334359 0.813088 -0.707367
O7    O     O_3   0.950705 0.834596 0.184918 -0.710704
O8    O     O_3   0.056124 0.853667 0.801861 -0.708575

loop_
_geom_bond_atom_site_label_1
_geom_bond_atom_site_label_2
_ccdc_geom_bond_type
C4    H71   S    
C44   C48   A    
N3    Ni4   S    
C116  H66   S    
C82   H35   S    
N4    Ni3   S    
C13   C90   A    
C69   C72   A    
C39   H94   S    
C16   H98   S    
C111  C112  S    
C12   H90   S    
C20   H5    S    
N28   Ni5   S    
C51   N27   A    
C101  N22   A    
C43   H9    S    
C114  C115  S    
C57   C62   A    
C77   C78   A    
C4    H70   S    
C76   H24   S    
C26   C27   S    
N26   N27   A    
C22   C32   S    
C90   N11   A    
C90   H38   S    
C102  N24   A    
C79   N32   A    
C60   N31   A    
C48   H10   S    
C1    H1    S    
C86   O3    S    
C36   H61   S    
C7    H78   S    
C3    H67   S    
C3    C116  S    
C5    C6    S    
C11   H88   S    
C114  H60   S    
N23   N25   A    
C16   C17   S    
C54   C63   A    
C67   H20   S    
C68   C74   A    
C114  H59   S    
C13   C81   A    
C19   H4    S    
C25   C87   A    
C104  N26   A    
C40   H28   S    
N3    N11   A    
C18   C19   S    
C42   C46   A    
C83   O1    S    
C35   C42   A    
C94   N16   A    
C110  C111  S    
N22   Ni2   S    
N9    Ni5   S    
C7    H79   S    
N31   Ni8   S    
C28   H47   S    
C47   C52   A    
N5    Ni6   S    
C92   N14   A    
C10   H86   S    
C113  H57   S    
C83   N5    A    
C26   H45   S    
C52   C54   A    
C68   C69   A    
N8    Ni7   S    
C59   N30   A    
C51   H39   S    
C103  C108  A    
N8    N17   A    
N15   Ni2   S    
C45   C49   A    
C23   C85   A    
C36   C63   A    
C9    C10   S    
C104  O8    S    
C29   N12   A    
C99   H43   S    
N1    N22   A    
C65   C95   S    
C115  H63   S    
N6    N15   A    
C112  H56   S    
C56   H18   S    
C94   Cl7   S    
C66   C67   A    
C79   H32   S    
N2    Ni1   S    
C26   C31   D    
C51   C109  A    
C8    H81   S    
C34   Cl4   S    
C69   H22   S    
C84   C99   A    
C101  O5    S    
C4    H69   S    
C53   C61   A    
N21   N31   A    
C1    N1    A    
N30   Ni7   S    
C89   N10   A    
C89   H37   S    
N19   N29   A    
C59   H30   S    
C45   C105  S    
C6    C7    S    
C18   O8    S    
C101  C105  A    
C73   C98   A    
C50   C53   A    
C38   H83   S    
C96   Cl8   S    
C58   N29   A    
N11   Ni7   S    
C111  H52   S    
C37   H72   S    
C91   N13   A    
N10   Ni6   S    
C113  O2    S    
C38   C41   A    
N32   Ni2   S    
C100  N21   A    
C93   N15   A    
C32   Cl2   S    
C97   N18   A    
C115  H62   S    
C30   C34   D    
C95   C100  A    
C8    C9    S    
N6    Ni5   S    
C5    H73   S    
C66   H19   S    
C63   C73   S    
C14   H93   S    
C75   H23   S    
C110  H51   S    
C21   C74   S    
C24   C34   S    
C55   H16   S    
C85   N6    A    
C79   C106  A    
C80   N2    A    
C23   C31   S    
C85   O2    S    
C15   H97   S    
C2    C89   A    
C75   C76   A    
C11   O6    S    
C31   Cl1   S    
C72   C77   A    
C58   H29   S    
C24   C94   A    
C87   O4    S    
C62   C97   A    
C88   C106  A    
C17   H102  S    
N5    N14   A    
C10   H85   S    
C54   H15   S    
C38   C65   A    
C8    H80   S    
C86   N7    A    
C29   H17   S    
C55   C64   A    
C44   C107  S    
N9    N32   A    
C52   H13   S    
N13   Ni8   S    
C14   H92   S    
C102  C107  A    
C35   C61   A    
N16   Ni3   S    
C2    C71   S    
C102  O6    S    
C15   O7    S    
C27   H46   S    
C30   H48   S    
C98   H42   S    
C18   H104  S    
C66   C71   A    
C11   H89   S    
C112  H55   S    
N20   N30   A    
N24   Ni1   S    
N25   Ni4   S    
C13   C72   S    
C12   C14   S    
C28   C33   D    
C33   Cl3   S    
C53   H14   S    
C74   C78   A    
C103  N25   A    
C14   H95   S    
N2    N10   A    
C39   C44   A    
C77   H25   S    
C3    C4    S    
C116  O3    S    
C113  H58   S    
C25   C96   A    
C96   N17   A    
C37   C64   A    
C78   H26   S    
C116  H65   S    
C112  H54   S    
C113  C114  S    
C21   C91   A    
C110  H49   S    
N18   Ni6   S    
N7    Ni8   S    
C40   N23   A    
C82   N4    A    
C5    O4    S    
C41   C45   A    
C81   H34   S    
C48   C55   A    
C27   C32   D    
C35   H50   S    
C41   H2    S    
N29   Ni6   S    
C8    O5    S    
N12   Ni2   S    
C16   H99   S    
C9    H84   S    
C71   C76   A    
N26   Ni3   S    
C110  O1    S    
C42   H8    S    
C11   C12   S    
N12   N24   A    
C5    H74   S    
N20   Ni8   S    
C56   C65   A    
N1    Ni1   S    
C24   C86   A    
C49   C56   A    
C46   C50   A    
C59   C84   A    
C12   H91   S    
C1    C105  A    
C40   C108  A    
C100  H44   S    
C67   C70   A    
C22   C83   A    
N21   Ni7   S    
C19   C20   S    
C28   C30   S    
C9    H82   S    
C15   H96   S    
C60   H31   S    
C103  O7    S    
N4    N13   A    
C37   C39   A    
C17   H100  S    
C50   H12   S    
C92   Cl5   S    
C6    H76   S    
C115  H64   S    
C80   H33   S    
C6    H75   S    
N18   N28   A    
C57   N28   A    
C97   H41   S    
C88   N9    A    
C57   H27   S    
C19   H3    S    
N14   Ni1   S    
C88   H36   S    
C49   H11   S    
C61   C62   S    
C91   H40   S    
N7    N16   A    
C70   C106  S    
C2    C80   A    
C18   H103  S    
C87   N8    A    
N19   Ni5   S    
C60   C95   A    
C23   C93   A    
C10   H87   S    
C98   N19   A    
N27   Ni4   S    
C21   C82   A    
C64   C84   S    
C7    H77   S    
C47   C108  S    
C81   N3    A    
C46   C109  S    
C25   C33   S    
C70   C75   A    
C111  H53   S    
C22   C92   A    
C104  C109  A    
C29   C107  A    
C36   C43   A    
C20   H6    S    
C20   H7    S    
C17   H101  S    
C99   N20   A    
C3    H68   S    
N17   Ni4   S    
C43   C47   A    
C93   Cl6   S    
C68   H21   S    
C15   C16   S    
C58   C73   A    
N23   Ni3   S    
