data_mof_unit_34651.cif
_audit_creation_date              2012-12-11T16:36:16-0500
_audit_creation_method            fapswitch 2.2
_symmetry_space_group_name_H-M    P1
_symmetry_Int_Tables_number       1
_space_group_crystal_system       triclinic
_cell_length_a                    25.731807
_cell_length_b                    7.276635
_cell_length_c                    23.334316
_cell_angle_alpha                 89.999932
_cell_angle_beta                  104.127103
_cell_angle_gamma                 90.000015
_cell_volume                      4237.00255337

loop_
_atom_site_label
_atom_site_type_symbol
_atom_type_description
_atom_site_fract_x
_atom_site_fract_y
_atom_site_fract_z
_atom_type_partial_charge
O1    O     O_R   0.438720 0.630760 0.439780 -0.537098
O2    O     O_R   0.061280 0.869240 0.060220 -0.536828
O3    O     O_R   0.561280 0.130760 0.560220 -0.537098
O4    O     O_R   0.938720 0.369240 0.939780 -0.536828
O5    O     O_R   0.546380 0.956770 0.446270 -0.533607
O6    O     O_R   0.953620 0.543230 0.053730 -0.538224
O7    O     O_R   0.453620 0.456770 0.553730 -0.533607
O8    O     O_R   0.046380 0.043230 0.946270 -0.538224
C1    C     C_R   0.562167 0.791794 0.434408 0.686410
C2    C     C_R   0.937864 0.708208 0.065638 0.683217
C3    C     C_R   0.437833 0.291794 0.565592 0.686411
C4    C     C_R   0.062136 0.208208 0.934362 0.683218
O9    O     O_R   0.438210 0.960230 0.432810 -0.543073
O10   O     O_R   0.061790 0.539770 0.067190 -0.542554
O11   O     O_R   0.561790 0.460230 0.567190 -0.543073
O12   O     O_R   0.938210 0.039770 0.932810 -0.542553
O13   O     O_R   0.452340 0.134240 0.546660 -0.534411
O14   O     O_R   0.047660 0.365760 0.953340 -0.532397
O15   O     O_R   0.547660 0.634240 0.453340 -0.534411
O16   O     O_R   0.952340 0.865760 0.046660 -0.532397
C5    C     C_R   0.418973 0.791677 0.416611 0.674687
C6    C     C_R   0.081152 0.708327 0.083251 0.674277
C7    C     C_R   0.581027 0.291677 0.583388 0.674687
C8    C     C_R   0.918848 0.208327 0.916749 0.674276
O17   O     O_3   0.504760 0.798440 0.537370 -0.376512
O18   O     O_3   0.995240 0.701560 0.962630 -0.375323
O19   O     O_3   0.495240 0.298440 0.462630 -0.376512
O20   O     O_3   0.004760 0.201560 0.037370 -0.375323
V1    V     V_3+5 0.499120 0.071860 0.493070 1.416380
V2    V     V_3+5 0.000880 0.428140 0.006930 1.407569
V3    V     V_3+5 0.500880 0.571860 0.506930 1.416380
V4    V     V_3+5 0.999120 0.928140 0.993070 1.407569
C9    C     C_R   0.691692 0.102417 0.708743 -0.147198
C10   C     C_R   0.792474 0.393956 0.812079 -0.148674
C11   C     C_R   0.308308 0.602417 0.291257 -0.147198
C12   C     C_R   0.207525 0.893956 0.187921 -0.148674
H1    H     H_    0.701092 0.972474 0.731485 0.101219
H2    H     H_    0.769723 0.520544 0.807032 0.101919
H3    H     H_    0.298908 0.472475 0.268514 0.101219
H4    H     H_    0.230277 0.020544 0.192968 0.101919
C13   C     C_R   0.645157 0.114201 0.662903 -0.157867
C14   C     C_R   0.839129 0.382425 0.857715 -0.154462
C15   C     C_R   0.354843 0.614201 0.337097 -0.157867
C16   C     C_R   0.160871 0.882425 0.142285 -0.154462
H5    H     H_    0.620695 0.992278 0.651396 0.126267
H6    H     H_    0.850959 0.501314 0.885788 0.123056
H7    H     H_    0.379305 0.492279 0.348603 0.126267
H8    H     H_    0.149041 0.001314 0.114212 0.123056
C17   C     C_R   0.630098 0.281001 0.632867 -0.046588
C18   C     C_R   0.869470 0.219382 0.867636 -0.048042
C19   C     C_R   0.369902 0.781001 0.367133 -0.046588
C20   C     C_R   0.130530 0.719382 0.132364 -0.048042
C21   C     C_R   0.662981 0.435732 0.649952 -0.160135
C22   C     C_R   0.851868 0.068266 0.830367 -0.164690
C23   C     C_R   0.337018 0.935732 0.350048 -0.160135
C24   C     C_R   0.148132 0.568265 0.169633 -0.164690
H9    H     H_    0.653019 0.566034 0.627530 0.121146
H10   H     H_    0.874285 0.940834 0.836355 0.126467
H11   H     H_    0.346981 0.066034 0.372469 0.121146
H12   H     H_    0.125715 0.440834 0.163645 0.126467
C25   C     C_R   0.709905 0.423422 0.695379 -0.139916
C26   C     C_R   0.805445 0.080484 0.784214 -0.140100
C27   C     C_R   0.290095 0.923422 0.304621 -0.139916
C28   C     C_R   0.194555 0.580484 0.215786 -0.140099
H13   H     H_    0.734792 0.544560 0.706092 0.102611
H14   H     H_    0.793964 0.962450 0.755712 0.104650
H15   H     H_    0.265208 0.044560 0.293908 0.102611
H16   H     H_    0.206036 0.462450 0.244288 0.104650
C29   C     C_R   0.724987 0.256546 0.725565 0.091380
C30   C     C_R   0.774922 0.243483 0.774436 0.090789
C31   C     C_R   0.275013 0.756546 0.274434 0.091380
C32   C     C_R   0.225078 0.743483 0.225564 0.090789
C33   C     C_R   0.348061 0.210443 0.580713 -0.152172
C34   C     C_R   0.150890 0.294229 0.917071 -0.162092
C35   C     C_R   0.651939 0.710443 0.419287 -0.152172
C36   C     C_R   0.849110 0.794229 0.082929 -0.162092
H17   H     H_    0.336346 0.160244 0.535682 0.109105
H18   H     H_    0.162957 0.347109 0.961756 0.103034
H19   H     H_    0.663654 0.660245 0.464318 0.109105
H20   H     H_    0.837043 0.847109 0.038243 0.103033
C37   C     C_R   0.310814 0.207311 0.615563 -0.096554
C38   C     C_R   0.187307 0.298846 0.881213 -0.138680
C39   C     C_R   0.689186 0.707311 0.384437 -0.096554
C40   C     C_R   0.812693 0.798846 0.118787 -0.138680
H21   H     H_    0.270874 0.155365 0.596607 0.126173
H22   H     H_    0.226987 0.354462 0.899134 0.104753
H23   H     H_    0.729126 0.655365 0.403393 0.126173
H24   H     H_    0.773012 0.854462 0.100865 0.104753
C41   C     C_R   0.324729 0.272794 0.674067 0.134165
C42   C     C_R   0.172888 0.230577 0.823031 0.078880
C43   C     C_R   0.675271 0.772795 0.325933 0.134165
C44   C     C_R   0.827112 0.730577 0.176969 0.078880
C45   C     C_R   0.377296 0.337051 0.697271 -0.058023
C46   C     C_R   0.120663 0.161189 0.801332 -0.127679
C47   C     C_R   0.622704 0.837051 0.302729 -0.058022
C48   C     C_R   0.879337 0.661189 0.198667 -0.127679
H25   H     H_    0.389760 0.382613 0.742744 0.094508
H26   H     H_    0.107505 0.114310 0.756069 0.129852
H27   H     H_    0.610240 0.882614 0.257256 0.094508
H28   H     H_    0.892495 0.614309 0.243931 0.129852
C49   C     C_R   0.413948 0.345940 0.661732 -0.152899
C50   C     C_R   0.084929 0.150787 0.837891 -0.160006
C51   C     C_R   0.586052 0.845941 0.338268 -0.152899
C52   C     C_R   0.915071 0.650787 0.162109 -0.160006
H29   H     H_    0.453788 0.399762 0.680087 0.101527
H30   H     H_    0.045316 0.093768 0.820554 0.112223
H31   H     H_    0.546212 0.899762 0.319913 0.101527
H32   H     H_    0.954684 0.593768 0.179446 0.112223
C53   C     C_R   0.399536 0.282597 0.603251 -0.036286
C54   C     C_R   0.099795 0.217533 0.895943 -0.029195
C55   C     C_R   0.600464 0.782597 0.396749 -0.036286
C56   C     C_R   0.900205 0.717533 0.104056 -0.029196
C57   C     C_R   0.275382 0.420826 0.745242 0.030280
C58   C     C_R   0.220652 0.086141 0.750023 0.005209
C59   C     C_R   0.724618 0.920826 0.254758 0.030280
C60   C     C_R   0.779348 0.586141 0.249977 0.005208
C61   C     C_R   0.239910 0.401793 0.782123 -0.185548
C62   C     C_R   0.256521 0.104603 0.713493 -0.159869
C63   C     C_R   0.760090 0.901792 0.217877 -0.185549
C64   C     C_R   0.743479 0.604603 0.286507 -0.159868
H33   H     H_    0.232496 0.519341 0.807563 0.114278
H34   H     H_    0.263918 0.987566 0.687938 0.191439
H35   H     H_    0.767504 0.019341 0.192437 0.114278
H36   H     H_    0.736082 0.487566 0.312063 0.191439
C65   C     C_R   0.211903 0.237313 0.784836 -0.004521
C66   C     C_R   0.284779 0.268603 0.711067 -0.000229
C67   C     C_R   0.788097 0.737313 0.215164 -0.004521
C68   C     C_R   0.715221 0.768603 0.288932 -0.000229
C69   C     C_2   0.299329 0.605009 0.742244 0.399475
H37   H     H_    0.302879 0.700135 0.778840 0.019063
O21   O     O_2   0.312737 0.656563 0.698185 -0.525570
C70   C     C_2   0.194963 0.905139 0.753203 0.321114
H38   H     H_    0.181144 0.867232 0.791928 0.052423
O22   O     O_2   0.188641 0.796224 0.712270 -0.512521
C71   C     C_2   0.700671 0.105009 0.257756 0.399475
H39   H     H_    0.697121 0.200135 0.221159 0.019063
O23   O     O_2   0.687262 0.156563 0.301815 -0.525569
C72   C     C_2   0.805037 0.405139 0.246797 0.321115
H40   H     H_    0.818856 0.367232 0.208072 0.052423
O24   O     O_2   0.811359 0.296224 0.287730 -0.512521

loop_
_geom_bond_atom_site_label_1
_geom_bond_atom_site_label_2
_ccdc_geom_bond_type
O17   V3    S    
C39   H23   S    
O1    C5    A    
C23   H11   S    
C3    C53   S    
O13   V1    S    
O3    C7    A    
C1    C55   S    
C10   C14   A    
O1    V3    S    
O15   V3    S    
C36   C40   A    
C4    C54   S    
C71   H39   S    
O7    C3    A    
C18   C22   A    
C57   C69   S    
C28   H16   S    
O2    V4    S    
O10   V2    S    
C14   H6    S    
O4    C8    A    
C47   H27   S    
C7    C17   S    
O19   V1    S    
C46   H26   S    
C49   C53   A    
C44   C48   A    
C26   C30   A    
C51   C55   A    
C62   H34   S    
C13   C17   A    
O3    V1    S    
C61   H33   S    
C21   C25   A    
C1    O15   A    
C2    O16   A    
C70   H38   S    
C60   C67   A    
C23   C27   A    
O2    C6    A    
C24   C28   A    
C2    C56   S    
O14   V2    S    
O8    C4    A    
C11   C15   A    
C10   C30   A    
C60   C72   S    
C9    C29   A    
C37   C41   A    
C16   C20   A    
C52   H32   S    
O11   C7    A    
C11   C31   A    
O12   C8    A    
C8    C18   S    
C34   C38   A    
O16   V4    S    
C33   C37   A    
C47   C51   A    
C42   C46   A    
O5    V1    S    
C41   C66   S    
C49   H29   S    
C27   H15   S    
O7    V3    S    
C43   C68   S    
C26   H14   S    
C20   C24   A    
O8    V4    S    
C36   H20   S    
C12   H4    S    
C72   H40   S    
C45   C49   A    
C52   C56   A    
C58   C65   A    
C21   H9    S    
O18   V4    S    
C57   C66   A    
C22   C26   A    
C38   H22   S    
C9    H1    S    
C59   C68   A    
C60   C64   A    
C11   H3    S    
O5    C1    A    
C25   H13   S    
C36   C56   A    
O9    C5    A    
C33   C53   A    
C58   C62   A    
C72   O24   D    
C14   C18   A    
C57   C61   A    
O6    V2    S    
C27   C31   A    
C59   C63   A    
C48   C52   A    
C50   C54   A    
C44   C67   S    
C45   H25   S    
C5    C19   S    
C6    C20   S    
C69   H37   S    
C22   H10   S    
O9    V1    S    
C71   O23   D    
C3    O13   A    
C13   H5    S    
C10   H2    S    
C58   C70   S    
C40   H24   S    
C15   H7    S    
C34   C54   A    
C64   C68   A    
O11   V3    S    
C63   H35   S    
O12   V4    S    
C39   C43   A    
C35   C55   A    
C38   C42   A    
C25   C29   A    
O10   C6    A    
O20   V2    S    
C9    C13   A    
C31   C32   S    
C62   C66   A    
C16   H8    S    
C35   C39   A    
C59   C71   S    
C15   C19   A    
C17   C21   A    
C48   H28   S    
C42   C65   S    
C50   H30   S    
C19   C23   A    
C28   C32   A    
C41   C45   A    
C29   C30   S    
O4    V2    S    
C12   C16   A    
O6    C2    A    
C43   C47   A    
C12   C32   A    
C24   H12   S    
C46   C50   A    
C70   O22   D    
C34   H18   S    
C4    O14   A    
C33   H17   S    
C51   H31   S    
C40   C44   A    
C61   C65   A    
C35   H19   S    
C37   H21   S    
C64   H36   S    
C69   O21   D    
C63   C67   A    
