data_mof_unit_57170.cif
_audit_creation_date              2012-12-10T16:57:04-0500
_audit_creation_method            fapswitch 2.2
_symmetry_space_group_name_H-M    P1
_symmetry_Int_Tables_number       1
_space_group_crystal_system       triclinic
_cell_length_a                    7.740479
_cell_length_b                    8.635277
_cell_length_c                    16.619249
_cell_angle_alpha                 91.409162
_cell_angle_beta                  82.246586
_cell_angle_gamma                 93.326758
_cell_volume                      1098.68201308

loop_
_atom_site_label
_atom_site_type_symbol
_atom_type_description
_atom_site_fract_x
_atom_site_fract_y
_atom_site_fract_z
_atom_type_partial_charge
C1    C     C_R   0.545814 0.794094 0.498601 0.916775
C2    C     C_R   0.370205 0.441032 0.226247 -0.272649
C3    C     C_R   0.672897 0.640597 0.841669 0.224806
C4    C     C_R   0.360206 0.455902 0.143965 0.208645
C5    C     C_R   0.526865 0.702092 0.888959 0.037375
C6    C     C_R   0.500538 0.530944 0.094628 0.124219
C7    C     C_R   0.367278 0.709133 0.857148 0.127890
C8    C     C_R   0.656398 0.576714 0.126284 0.094229
C9    C     C_R   0.350118 0.638987 0.781873 -0.232237
C10   C     C_R   0.665969 0.556581 0.208423 -0.278474
C11   C     C_2   0.523099 0.697697 0.976529 -0.238457
C12   C     C_R   0.454956 0.205516 0.502997 0.913694
C13   C     C_2   0.482298 0.559416 0.010329 -0.136488
C14   C     C_3   0.204314 0.245603 0.082313 -0.831851
C15   C     C_3   0.894868 0.486750 0.885981 -0.757964
C16   C     C_3   0.880927 0.029569 0.473141 -0.710368
C17   C     C_3   0.322557 0.977359 0.656742 -0.773452
C18   C     C_2   0.570596 0.955514 0.489356 -0.033042
C19   C     C_2   0.436364 0.044923 0.518474 -0.038216
C20   C     C_R   0.482305 0.512395 0.654149 0.881407
C21   C     C_R   0.519212 0.495221 0.345772 0.880326
C22   C     C_R   0.491657 0.568313 0.737108 -0.134524
C23   C     C_R   0.520972 0.494137 0.258624 -0.077029
C24   C     C_R   0.653692 0.574738 0.766196 -0.230467
H1    H     H_    0.766939 0.528304 0.730275 0.171861
H2    H     H_    0.181875 0.865515 0.865966 0.174823
H3    H     H_    0.837765 0.752302 0.099488 0.175773
H4    H     H_    0.909320 0.573106 0.076784 0.202116
H5    H     H_    0.092682 0.424354 0.151464 0.222548
H6    H     H_    0.084711 0.218215 0.053389 0.242363
H7    H     H_    0.205477 0.164803 0.133271 0.241592
H8    H     H_    0.319781 0.227953 0.036256 0.239827
H9    H     H_    0.856031 0.718992 0.916563 0.251133
H10   H     H_    0.022793 0.498409 0.909365 0.260286
H11   H     H_    0.911495 0.416121 0.829049 0.230922
H12   H     H_    0.259035 0.389474 0.265131 0.152261
H13   H     H_    0.798953 0.425737 0.931945 0.243302
H14   H     H_    0.739288 0.952237 0.381515 0.212405
H15   H     H_    0.984070 0.090961 0.430770 0.215111
H16   H     H_    0.927570 0.914701 0.485930 0.235854
H17   H     H_    0.860421 0.098575 0.530610 0.247069
H18   H     H_    0.175603 0.043822 0.569758 0.235315
H19   H     H_    0.204867 0.925177 0.694164 0.232219
H20   H     H_    0.353830 0.094528 0.681944 0.225088
H21   H     H_    0.432934 0.902262 0.660319 0.240154
H22   H     H_    0.783471 0.596086 0.233423 0.155869
H23   H     H_    0.226584 0.641593 0.758179 0.183968
H24   H     H_    0.434177 0.463538 0.974284 0.166059
H25   H     H_    0.568265 0.797946 0.010238 0.159260
H26   H     H_    0.023165 0.382981 0.439163 0.188339
H27   H     H_    0.977071 0.617683 0.560572 0.190154
H28   H     H_    0.251615 0.835235 0.954411 0.188056
N1    N     N_2   0.953500 0.457650 0.478520 -0.175306
N2    N     N_2   0.046500 0.542350 0.521480 -0.174342
N3    N     N_3   0.218396 0.778558 0.901937 -0.460515
N4    N     N_3   0.804543 0.643455 0.075239 -0.471400
N5    N     N_2   0.204559 0.404351 0.112212 -0.314675
N6    N     N_2   0.837760 0.639013 0.871012 -0.306126
N7    N     N_2   0.721384 0.011994 0.436277 -0.294531
N8    N     N_2   0.288795 0.988752 0.573586 -0.292343
O1    O     O_R   0.388470 0.738640 0.505270 -0.588776
O2    O     O_R   0.611530 0.261360 0.494730 -0.580768
O3    O     O_R   0.679650 0.711510 0.491500 -0.633682
O4    O     O_R   0.320350 0.288490 0.508500 -0.643747
O5    O     O_R   0.337210 0.515200 0.623500 -0.611303
O6    O     O_R   0.662790 0.484800 0.376500 -0.614076
O7    O     O_R   0.628380 0.488060 0.609730 -0.631320
O8    O     O_R   0.371620 0.511940 0.390270 -0.627289
Zn1   Zn    Zn3+2 0.305580 0.518120 0.509190 0.936496
Zn2   Zn    Zn3+2 0.694420 0.481880 0.490810 0.935826

loop_
_geom_bond_atom_site_label_1
_geom_bond_atom_site_label_2
_ccdc_geom_bond_type
C4    N5    S    
C10   H22   S    
C13   H24   S    
C2    C4    A    
C17   H19   S    
C5    C11   S    
H9    N6    S    
C11   H25   S    
C19   N8    S    
C12   O2    A    
C20   O5    A    
C15   H10   S    
C20   O7    A    
H28   N3    S    
C7    N3    S    
C14   H7    S    
H27   N2    S    
H2    N3    S    
O7    Zn2   S    
H4    N4    S    
C17   H20   S    
C14   H6    S    
O4    Zn1   S    
C6    C13   S    
C11   C13   D    
C8    N4    S    
C3    C24   A    
O6    Zn2   S    
N2    Zn1   S    
C12   O4    A    
C16   H16   S    
O5    Zn1   S    
N1    Zn2   S    
C1    O3    A    
C12   C19   S    
C15   H11   S    
C20   C22   S    
C9    H23   S    
C21   C23   S    
C21   O8    A    
C21   O6    A    
C15   N6    S    
C22   C24   A    
C9    C22   A    
H26   N1    S    
H5    N5    S    
C17   N8    S    
H18   N8    S    
H14   N7    S    
C3    N6    S    
C7    C9    A    
C18   N7    S    
C2    H12   S    
C24   H1    S    
O2    Zn2   S    
C8    C10   A    
C4    C6    A    
O1    Zn1   S    
C2    C23   A    
C5    C7    A    
C14   N5    S    
C1    C18   S    
H3    N4    S    
C18   C19   D    
C10   C23   A    
C6    C8    A    
C16   H15   S    
N1    N2    D    
C14   H8    S    
C16   H17   S    
O8    Zn1   S    
C15   H13   S    
C17   H21   S    
O3    Zn2   S    
C3    C5    A    
C16   N7    S    
C1    O1    A    
