data_mof_unit_13572.cif
_audit_creation_date              2012-10-26T18:28:20-0400
_audit_creation_method            fapswitch 2.2
_symmetry_space_group_name_H-M    P1
_symmetry_Int_Tables_number       1
_space_group_crystal_system       triclinic
_cell_length_a                    27.779642
_cell_length_b                    10.999417
_cell_length_c                    9.973606
_cell_angle_alpha                 110.957247
_cell_angle_beta                  98.388081
_cell_angle_gamma                 92.817877
_cell_volume                      2798.49925518

loop_
_atom_site_label
_atom_site_type_symbol
_atom_type_description
_atom_site_fract_x
_atom_site_fract_y
_atom_site_fract_z
_atom_type_partial_charge
C1    C     C_R   0.497066 0.254331 0.440490 0.553495
C2    C     C_R   0.868893 0.375757 0.479519 0.022983
C3    C     C_R   0.354687 0.498356 0.501794 0.002012
C4    C     C_R   0.645259 0.495992 0.498971 -0.012229
C5    C     C_R   0.970580 0.372474 0.473052 0.017767
C6    C     C_R   0.028118 0.608009 0.511828 0.017239
C7    C     C_R   0.976521 0.605655 0.502040 0.017846
C8    C     C_R   0.021353 0.371394 0.466925 0.017794
C9    C     C_R   0.948266 0.488946 0.487355 0.032882
C10   C     C_R   0.050083 0.490104 0.490736 0.033285
C11   C     C_R   0.941206 0.261155 0.467090 -0.142433
C12   C     C_R   0.504382 0.745841 0.559152 0.557684
C13   C     C_R   0.058841 0.724989 0.544010 -0.142537
C14   C     C_R   0.891422 0.263047 0.470258 -0.114504
C15   C     C_R   0.109099 0.725119 0.549789 -0.113372
C16   C     C_R   0.407644 0.499599 0.500472 0.554025
C17   C     C_R   0.592329 0.499040 0.499464 0.540054
C18   C     C_R   0.044598 0.255207 0.437122 -0.142750
C19   C     C_R   0.951927 0.716207 0.505732 -0.143729
C20   C     C_2   0.495455 0.114117 0.406369 -0.119981
C21   C     C_2   0.509885 0.886051 0.590925 -0.098312
C22   C     C_2   0.510779 0.069042 0.510817 -0.147826
C23   C     C_R   0.101408 0.490970 0.493755 -0.028074
C24   C     C_2   0.504405 0.929803 0.481401 -0.137801
C25   C     C_2   0.508915 0.498437 0.077341 0.166997
C26   C     C_2   0.500228 0.476227 0.916704 0.164314
C27   C     C_R   0.174214 0.376943 0.469850 0.385878
C28   C     C_R   0.823631 0.600236 0.497459 0.381901
C29   C     C_R   0.181438 0.607766 0.527666 0.390087
C30   C     C_R   0.818614 0.378622 0.482716 0.387629
C31   C     C_R   0.271974 0.490288 0.378967 -0.067319
C32   C     C_R   0.712568 0.442922 0.366703 -0.059541
C33   C     C_R   0.322014 0.492182 0.377613 -0.138742
C34   C     C_R   0.897116 0.488878 0.487531 -0.027535
C35   C     C_R   0.662599 0.443801 0.367239 -0.131232
C36   C     C_R   0.336402 0.502554 0.627306 -0.119612
C37   C     C_R   0.678724 0.543208 0.631168 -0.114757
C38   C     C_R   0.286059 0.500525 0.629969 0.040957
C39   C     C_R   0.729444 0.540428 0.632730 0.045426
C40   C     C_R   0.253705 0.493998 0.503796 0.257466
C41   C     C_R   0.745986 0.491571 0.497831 0.245178
C42   C     C_2   0.474896 0.345645 0.821328 0.607992
C43   C     C_2   0.558653 0.559317 0.155764 0.606935
C44   C     C_2   0.535436 0.688840 0.952493 0.731043
C45   C     C_R   0.123501 0.373960 0.466954 0.021468
C46   C     C_2   0.428117 0.416108 0.074055 0.724832
C47   C     C_3   0.268142 0.503554 0.767258 -0.244709
C48   C     C_3   0.282355 0.638018 0.890276 -0.306127
C49   C     C_3   0.265667 0.639616 0.030045 -0.434750
C50   C     C_3   0.766839 0.587195 0.773595 -0.246559
C51   C     C_3   0.745660 0.626766 0.915463 -0.314867
C52   C     C_3   0.786237 0.663890 0.048671 -0.426576
C53   C     C_R   0.874091 0.602047 0.496101 0.021348
C54   C     C_R   0.094628 0.256758 0.437183 -0.114670
C55   C     C_R   0.901754 0.714181 0.502879 -0.119900
C56   C     C_R   0.130764 0.608864 0.523657 0.022762
Cu1   Cu    Cu3+1 0.508480 0.521810 0.644910 1.077730
Cu2   Cu    Cu3+1 0.491520 0.478190 0.355090 1.081808
H1    H     H_    0.361229 0.506534 0.723545 0.181715
H2    H     H_    0.247142 0.485874 0.282525 0.122571
H3    H     H_    0.870638 0.175305 0.465840 0.166156
H4    H     H_    0.130966 0.817368 0.575021 0.168374
H5    H     H_    0.955728 0.171306 0.463569 0.105893
H6    H     H_    0.045407 0.819379 0.569023 0.108872
H7    H     H_    0.025021 0.160258 0.410122 0.107164
H8    H     H_    0.970231 0.805685 0.507959 0.105674
H9    H     H_    0.494016 0.862769 0.368638 0.204278
H10   H     H_    0.527234 0.135311 0.619693 0.205625
H11   H     H_    0.416667 0.239509 0.671988 0.334359
H12   H     H_    0.664799 0.582385 0.732011 0.152947
H13   H     H_    0.601030 0.710798 0.315796 0.335137
H14   H     H_    0.520578 0.852060 0.108405 0.329896
H15   H     H_    0.368443 0.468457 0.975422 0.316455
H16   H     H_    0.225239 0.617855 0.011477 0.163176
H17   H     H_    0.283167 0.565919 0.067415 0.151212
H18   H     H_    0.276379 0.737951 0.117024 0.175309
H19   H     H_    0.322724 0.663028 0.913348 0.186561
H20   H     H_    0.265070 0.713973 0.856421 0.205581
H21   H     H_    0.227810 0.480526 0.747891 0.172409
H22   H     H_    0.284322 0.426597 0.801662 0.150772
H23   H     H_    0.519193 0.953645 0.703673 0.151299
H24   H     H_    0.807288 0.579426 0.043113 0.160331
H25   H     H_    0.811491 0.747948 0.054799 0.162080
H26   H     H_    0.769895 0.692407 0.149301 0.189013
H27   H     H_    0.724796 0.712487 0.926259 0.186526
H28   H     H_    0.720812 0.543646 0.913805 0.186406
H29   H     H_    0.789975 0.506921 0.770728 0.169744
H30   H     H_    0.790907 0.672243 0.776645 0.176233
H31   H     H_    0.480518 0.047334 0.295963 0.127019
H32   H     H_    0.110626 0.165131 0.414019 0.165313
H33   H     H_    0.884747 0.801655 0.506705 0.162305
H34   H     H_    0.637554 0.401879 0.264645 0.186554
H35   H     H_    0.335060 0.489189 0.279425 0.152568
H36   H     H_    0.725525 0.403630 0.263931 0.135619
N1    N     N_R   0.201981 0.492924 0.501112 -0.404190
N2    N     N_R   0.797254 0.490122 0.492719 -0.405484
N3    N     N_2   0.478780 0.445430 0.137360 -0.251649
N4    N     N_2   0.521220 0.554570 0.862640 -0.257456
O1    O     O_R   0.504520 0.332330 0.577400 -0.492827
O2    O     O_2   0.801072 0.707665 0.504197 -0.503227
O3    O     O_2   0.791282 0.271290 0.476674 -0.491778
O4    O     O_2   0.210012 0.720367 0.557821 -0.497244
O5    O     O_2   0.490106 0.247974 0.836186 -0.552130
O6    O     O_R   0.431062 0.333976 0.726997 -0.662740
O7    O     O_2   0.594172 0.511403 0.107118 -0.553625
O8    O     O_R   0.565218 0.677635 0.275163 -0.659360
O9    O     O_2   0.571936 0.745456 0.936940 -0.488642
O10   O     O_R   0.506670 0.757287 0.052837 -0.695771
O11   O     O_2   0.404914 0.320442 0.077825 -0.483609
O12   O     O_R   0.495480 0.667670 0.422600 -0.470184
O13   O     O_R   0.404490 0.499312 0.014212 -0.707307
O14   O     O_R   0.490210 0.295500 0.332650 -0.477555
O15   O     O_R   0.509790 0.704500 0.667350 -0.482299
O16   O     O_R   0.437420 0.518430 0.622370 -0.468949
O17   O     O_R   0.562580 0.481570 0.377630 -0.493513
O18   O     O_R   0.423110 0.481600 0.377610 -0.494552
O19   O     O_R   0.576890 0.518400 0.622390 -0.494333
O20   O     O_2   0.195722 0.265219 0.442481 -0.491091

loop_
_geom_bond_atom_site_label_1
_geom_bond_atom_site_label_2
_ccdc_geom_bond_type
C48   H19   S    
C32   H36   S    
C23   C45   A    
C27   N1    A    
C47   H21   S    
C36   H1    S    
C42   O5    D    
C1    O1    A    
C12   O12   A    
C28   O2    S    
C23   C56   A    
C39   C41   A    
C18   H7    S    
C17   O17   A    
Cu2   O14   S    
C54   H32   S    
C11   H5    S    
C1    O14   A    
C11   C14   A    
C27   O20   S    
C41   N2    S    
C3    C33   A    
Cu1   O1    S    
C31   C40   A    
C19   H8    S    
C43   O7    D    
C48   H20   S    
C52   H26   S    
C55   H33   S    
C24   H9    S    
C44   N4    S    
H14   O10   S    
C30   N2    A    
C32   C41   A    
C49   H17   S    
C17   O19   A    
C35   H34   S    
C27   C45   A    
C53   C55   A    
C4    C35   A    
C46   O13   S    
Cu2   O18   S    
C25   C43   S    
Cu2   N3    S    
C47   H22   S    
C16   O18   A    
C51   H28   S    
H15   O13   S    
C44   O10   S    
C51   C52   S    
C32   C35   A    
C29   N1    A    
Cu1   O15   S    
C25   C26   S    
C14   H3    S    
C12   C21   S    
C8    C18   A    
C42   O6    S    
C43   O8    S    
C31   H2    S    
C52   H25   S    
C5    C9    A    
C33   H35   S    
C47   C48   S    
C31   C33   A    
C50   C51   S    
C49   H18   S    
C52   H24   S    
C22   H10   S    
C38   C47   S    
C6    C7    A    
C50   H29   S    
C26   N4    D    
C4    C17   S    
C25   N3    D    
C48   C49   S    
C46   N3    S    
C21   H23   S    
C45   C54   A    
C7    C19   A    
C13   C15   A    
Cu2   O17   S    
C22   C24   S    
C46   O11   D    
C21   C24   D    
C40   N1    S    
C26   C42   S    
Cu1   O19   S    
C12   O15   A    
C44   O9    D    
C19   C55   A    
C7    C9    A    
C1    C20   S    
Cu2   O12   S    
C20   C22   D    
C16   O16   A    
C6    C10   A    
C5    C8    A    
C28   C53   A    
C5    C11   A    
Cu1   O16   S    
C29   C56   A    
C50   H30   S    
C10   C23   A    
C20   H31   S    
C2    C30   A    
C28   N2    A    
C15   C56   A    
C36   C38   A    
C37   C39   A    
C6    C13   A    
C38   C40   A    
C2    C34   A    
Cu1   Cu2   S    
C9    C34   A    
C13   H6    S    
C3    C36   A    
Cu1   N4    S    
C30   O3    S    
C15   H4    S    
C29   O4    S    
C2    C14   A    
C18   C54   A    
C39   C50   S    
C4    C37   A    
C34   C53   A    
C8    C10   A    
H13   O8    S    
C49   H16   S    
C51   H27   S    
C37   H12   S    
C3    C16   S    
H11   O6    S    
