data_mof_unit_37283.cif
_audit_creation_date              2012-12-10T17:45:23-0500
_audit_creation_method            fapswitch 2.2
_symmetry_space_group_name_H-M    P1
_symmetry_Int_Tables_number       1
_space_group_crystal_system       triclinic
_cell_length_a                    15.013635
_cell_length_b                    13.854199
_cell_length_c                    23.509723
_cell_angle_alpha                 89.874734
_cell_angle_beta                  91.311637
_cell_angle_gamma                 90.479464
_cell_volume                      4888.60455087

loop_
_atom_site_label
_atom_site_type_symbol
_atom_type_description
_atom_site_fract_x
_atom_site_fract_y
_atom_site_fract_z
_atom_type_partial_charge
C1    C     C_R   0.328970 0.499910 0.500895 0.817811
C2    C     C_R   0.671006 0.500093 0.499317 0.795852
C3    C     C_R   0.564092 0.430759 0.242423 -0.284244
C4    C     C_R   0.463295 0.421926 0.760752 -0.301258
C5    C     C_R   0.559697 0.431870 0.301619 0.343461
C6    C     C_R   0.458636 0.424353 0.701134 0.390472
C7    C     C_R   0.505872 0.500547 0.328315 -0.337527
C8    C     C_R   0.503972 0.499082 0.672206 -0.325180
C9    C     C_R   0.459402 0.569901 0.294822 0.225336
C10   C     C_R   0.549239 0.572685 0.703918 0.190272
C11   C     C_R   0.478538 0.578742 0.236531 0.362953
C12   C     C_R   0.535465 0.579370 0.763046 0.381361
C13   C     C_R   0.524481 0.503662 0.209749 0.140144
C14   C     C_R   0.498819 0.499452 0.791688 0.142665
C15   C     C_R   0.812945 0.551485 0.457910 -0.249176
C16   C     C_R   0.187305 0.442592 0.540695 -0.245932
C17   C     C_R   0.767577 0.499582 0.499363 -0.025794
C18   C     C_R   0.232369 0.500728 0.501982 -0.088480
C19   C     C_R   0.814216 0.444894 0.540096 -0.173157
C20   C     C_R   0.185256 0.561851 0.465020 -0.177989
C21   C     C_R   0.907087 0.445627 0.541530 0.073727
C22   C     C_R   0.092718 0.557864 0.462275 0.042721
C23   C     C_R   0.500468 0.500074 0.391012 0.940460
C24   C     C_R   0.502034 0.499831 0.609117 0.892317
C25   C     C_R   0.953259 0.499908 0.500663 -0.006546
C26   C     C_R   0.046674 0.500826 0.501868 -0.005116
C27   C     C_R   0.906043 0.551400 0.457730 0.029982
C28   C     C_R   0.094191 0.445330 0.542775 0.036825
C29   C     C_R   0.954360 0.393613 0.583355 -0.306453
C30   C     C_R   0.045917 0.607330 0.419332 -0.287158
C31   C     C_R   0.047852 0.394896 0.585109 0.462300
C32   C     C_R   0.953045 0.599626 0.414842 0.431264
C33   C     C_R   0.478050 0.794803 0.548338 0.546230
C34   C     C_R   0.485985 0.204375 0.450064 0.481165
C35   C     C_R   0.519976 0.795831 0.451535 0.538189
C36   C     C_R   0.512869 0.203966 0.550014 0.503344
C37   C     C_R   0.507306 0.897593 0.449266 -0.107733
C38   C     C_R   0.501334 0.102037 0.551340 -0.082122
C39   C     C_R   0.488348 0.896767 0.550772 -0.081522
C40   C     C_R   0.495403 0.102407 0.448862 -0.101154
C41   C     C_R   0.498086 0.948413 0.500075 0.001744
C42   C     C_R   0.498203 0.051035 0.500101 0.019371
C43   C     C_R   0.506562 0.949765 0.397704 -0.135836
C44   C     C_R   0.496024 0.049557 0.602648 -0.195420
C45   C     C_R   0.486600 0.948529 0.602246 -0.132576
C46   C     C_R   0.498476 0.050542 0.397450 -0.169397
C47   C     C_R   0.584063 0.489879 0.880270 0.614465
C48   C     C_R   0.441718 0.480668 0.121274 0.614766
C49   C     C_R   0.424972 0.488684 0.882288 0.617704
C50   C     C_R   0.599901 0.499931 0.119401 0.619522
C51   C     C_R   0.427554 0.483829 0.941912 -0.028712
C52   C     C_R   0.597929 0.494737 0.059752 -0.028691
C53   C     C_R   0.510783 0.487175 0.970809 -0.014627
C54   C     C_R   0.514922 0.487362 0.030812 -0.015773
C55   C     C_R   0.589859 0.490457 0.939859 -0.030333
C56   C     C_R   0.436004 0.480279 0.061732 -0.028053
C57   C     C_R   0.349202 0.476903 0.973228 -0.156870
C58   C     C_R   0.676455 0.498112 0.028430 -0.158522
C59   C     C_R   0.353451 0.474028 0.032541 -0.135918
C60   C     C_R   0.672500 0.494905 0.969088 -0.137285
Cu1   Cu    Cu3+1 0.500000 0.597420 0.500000 1.064827
Cu2   Cu    Cu3+1 0.500000 0.402580 0.500000 1.000627
H1    H     H_    0.284424 0.473596 0.952046 0.186772
H2    H     H_    0.741132 0.503217 0.049633 0.183918
H3    H     H_    0.510803 0.912766 0.357360 0.197775
H4    H     H_    0.497441 0.086478 0.643188 0.175819
H5    H     H_    0.480737 0.910947 0.642442 0.205666
H6    H     H_    0.496794 0.087828 0.356908 0.185096
H7    H     H_    0.291794 0.468690 0.055418 0.192318
H8    H     H_    0.734274 0.497632 0.946210 0.192897
H9    H     H_    0.598141 0.372388 0.221670 0.188549
H10   H     H_    0.437844 0.360153 0.783657 0.175989
H11   H     H_    0.775484 0.590025 0.425333 0.155401
H12   H     H_    0.225285 0.397703 0.569964 0.171348
H13   H     H_    0.778143 0.403567 0.571354 0.111718
H14   H     H_    0.220491 0.610467 0.437194 0.215657
H15   H     H_    0.918912 0.352179 0.614843 0.154715
H16   H     H_    0.081495 0.647870 0.387407 0.183654
N1    N     N_R   0.502571 0.493148 0.852770 -0.419766
N2    N     N_R   0.522285 0.494908 0.148797 -0.419150
N3    N     N_R   0.500000 0.743810 0.500000 -0.268710
N4    N     N_R   0.500000 0.256190 0.500000 -0.279813
O1    O     O_R   0.370260 0.582280 0.500010 -0.590877
O2    O     O_R   0.629740 0.417720 0.499990 -0.626535
O3    O     O_R   0.629740 0.582280 0.499990 -0.546495
O4    O     O_R   0.370260 0.417720 0.500010 -0.593852
O5    O     O_R   0.499980 0.582290 0.417880 -0.502113
O6    O     O_R   0.500020 0.417710 0.582120 -0.514181
O7    O     O_R   0.500020 0.582290 0.582120 -0.504775
O8    O     O_R   0.499980 0.417710 0.417880 -0.504988
O9    O     O_2   0.659206 0.485992 0.849961 -0.509038
O10   O     O_2   0.367309 0.467169 0.151562 -0.514911
O11   O     O_2   0.345716 0.490168 0.854050 -0.551267
O12   O     O_2   0.678372 0.511185 0.147742 -0.560903
O13   O     O_3   0.094601 0.344570 0.626982 -0.627755
C61   C     C_3   0.086594 0.391001 0.680288 0.042242
H17   H     H_    0.113905 0.341261 0.713280 0.177013
H18   H     H_    0.015831 0.403339 0.691241 0.150622
C62   C     C_3   0.139837 0.486380 0.683154 -0.429899
H19   H     H_    0.207950 0.475477 0.667115 0.211854
H20   H     H_    0.106377 0.541375 0.655850 0.221412
C63   C     C_3   0.146964 0.524850 0.743846 -0.808882
H21   H     H_    0.079541 0.537844 0.760594 0.263522
H22   H     H_    0.184879 0.594027 0.744256 0.267399
H23   H     H_    0.182570 0.472524 0.771885 0.270201
O14   O     O_3   0.908757 0.636368 0.367450 -0.620940
C64   C     C_3   0.917492 0.569468 0.322548 0.022712
H24   H     H_    0.890250 0.497412 0.334703 0.138687
H25   H     H_    0.988801 0.561906 0.311230 0.166741
C65   C     C_3   0.865680 0.604657 0.270018 -0.340962
H26   H     H_    0.793738 0.608124 0.279683 0.228047
H27   H     H_    0.889676 0.677996 0.258311 0.241270
C66   C     C_3   0.877539 0.537017 0.219675 -0.820478
H28   H     H_    0.949230 0.530209 0.209845 0.252656
H29   H     H_    0.842205 0.566716 0.181628 0.294769
H30   H     H_    0.849499 0.464477 0.229283 0.251457
O15   O     O_3   0.444702 0.747963 0.595237 -0.557447
C67   C     C_3   0.351138 0.736007 0.588989 0.093132
H31   H     H_    0.335081 0.659279 0.598440 0.167146
H32   H     H_    0.323760 0.751581 0.545307 0.126905
C68   C     C_3   0.303871 0.798854 0.632148 -0.396915
H33   H     H_    0.332913 0.785819 0.675386 0.255759
H34   H     H_    0.313494 0.876190 0.621198 0.218521
C69   C     C_3   0.204188 0.776409 0.632531 -0.871638
H35   H     H_    0.173545 0.789722 0.589802 0.260755
H36   H     H_    0.171595 0.823529 0.663879 0.269202
H37   H     H_    0.192627 0.699934 0.644743 0.252676
O16   O     O_3   0.462833 0.250283 0.399910 -0.547434
C70   C     C_3   0.369255 0.244895 0.392150 0.059383
H38   H     H_    0.335967 0.287416 0.425517 0.172006
H39   H     H_    0.344564 0.168824 0.393865 0.126970
C71   C     C_3   0.343788 0.286291 0.333803 -0.287402
H40   H     H_    0.369176 0.361396 0.330496 0.242452
H41   H     H_    0.375011 0.242673 0.300124 0.230677
C72   C     C_3   0.242960 0.286221 0.324059 -0.913560
H42   H     H_    0.216200 0.211283 0.325435 0.265171
H43   H     H_    0.226749 0.317797 0.281660 0.275124
H44   H     H_    0.210538 0.330133 0.357098 0.254530
O17   O     O_3   0.548053 0.748916 0.403579 -0.549123
C73   C     C_3   0.638665 0.770760 0.393981 0.018234
H45   H     H_    0.681358 0.722213 0.420196 0.158892
H46   H     H_    0.657598 0.846488 0.405196 0.136411
C74   C     C_3   0.656808 0.754682 0.330988 -0.309062
H47   H     H_    0.659937 0.675942 0.322377 0.196214
H48   H     H_    0.601376 0.785038 0.304626 0.270175
C75   C     C_3   0.743305 0.803813 0.313516 -0.884449
H49   H     H_    0.738447 0.883243 0.318809 0.256152
H50   H     H_    0.755564 0.788484 0.268053 0.265813
H51   H     H_    0.800085 0.777012 0.339913 0.294966
O18   O     O_3   0.539238 0.249047 0.599870 -0.551616
C76   C     C_3   0.633023 0.262235 0.601145 0.113134
H52   H     H_    0.647253 0.335508 0.618315 0.161662
H53   H     H_    0.664266 0.258945 0.558492 0.118680
C77   C     C_3   0.677120 0.188515 0.641066 -0.390904
H54   H     H_    0.644246 0.189767 0.682949 0.245230
H55   H     H_    0.669495 0.115092 0.622673 0.230882
C78   C     C_3   0.776226 0.210383 0.649855 -0.891758
H56   H     H_    0.810522 0.208396 0.608504 0.253432
H57   H     H_    0.806476 0.155381 0.678585 0.278028
H58   H     H_    0.785974 0.282666 0.669509 0.249798
O19   O     O_3   0.597657 0.357371 0.332659 -0.547273
C79   C     C_3   0.689840 0.375162 0.339944 0.072799
H59   H     H_    0.702058 0.444869 0.362559 0.109508
H60   H     H_    0.723051 0.377143 0.298036 0.142679
C80   C     C_3   0.729809 0.293325 0.375743 -0.290729
H61   H     H_    0.699046 0.292529 0.418310 0.233502
H62   H     H_    0.714592 0.223157 0.354660 0.225853
C81   C     C_3   0.830573 0.304166 0.383205 -0.944850
H63   H     H_    0.862824 0.304834 0.341151 0.255958
H64   H     H_    0.857069 0.242589 0.408512 0.266427
H65   H     H_    0.847462 0.371858 0.406144 0.261587
O20   O     O_3   0.420649 0.348540 0.670016 -0.550608
C82   C     C_3   0.336250 0.319205 0.689868 0.056502
H66   H     H_    0.288467 0.321977 0.653227 0.174548
H67   H     H_    0.308545 0.366633 0.723277 0.140721
C83   C     C_3   0.340888 0.214635 0.710626 -0.325524
H68   H     H_    0.361674 0.167771 0.675100 0.230628
H69   H     H_    0.391190 0.208331 0.745775 0.217992
C84   C     C_3   0.250827 0.179273 0.731465 -0.891674
H70   H     H_    0.228970 0.224353 0.767505 0.256146
H71   H     H_    0.256537 0.103345 0.746224 0.264435
H72   H     H_    0.200051 0.182352 0.696403 0.273152
S1    S     S_3+6 0.361337 0.622801 0.321611 0.060774
O21   O     O_2   0.383617 0.713307 0.354063 -0.206326
O22   O     O_2   0.295720 0.646849 0.274564 -0.218217
O23   O     O_3   0.313350 0.542772 0.365291 -0.609434
H73   H     H_    0.270750 0.505639 0.340946 0.348894
S2    S     S_3+6 0.638581 0.639376 0.673465 0.094812
O24   O     O_2   0.605499 0.733535 0.649918 -0.190326
O25   O     O_2   0.710380 0.660009 0.717427 -0.205991
O26   O     O_3   0.684315 0.576162 0.620958 -0.539313
H74   H     H_    0.706850 0.516746 0.639626 0.311099
S3    S     S_3+6 0.452457 0.685458 0.197560 0.062204
O27   O     O_2   0.364557 0.673144 0.166435 -0.218063
O28   O     O_2   0.447641 0.770387 0.237009 -0.253431
O29   O     O_3   0.532168 0.707131 0.149961 -0.545809
H75   H     H_    0.509482 0.761530 0.126546 0.375542
S4    S     S_3+6 0.556335 0.688851 0.800851 0.073647
O30   O     O_2   0.649073 0.688566 0.826302 -0.217712
O31   O     O_2   0.546338 0.774038 0.761613 -0.241117
O32   O     O_3   0.483037 0.699751 0.853454 -0.543181
H76   H     H_    0.504755 0.755603 0.876213 0.374428

loop_
_geom_bond_atom_site_label_1
_geom_bond_atom_site_label_2
_ccdc_geom_bond_type
C16   C28   A    
C72   H44   S    
C33   O15   S    
C78   H56   S    
C34   O16   S    
C74   C75   S    
C63   H21   S    
C41   C42   A    
C44   H4    S    
O13   C61   S    
C73   C74   S    
C47   N1    A    
C36   O18   S    
O16   C70   S    
O19   C79   S    
C35   N3    A    
C81   H65   S    
C72   H42   S    
C39   C41   A    
C6    O20   S    
C82   H66   S    
O20   C82   S    
C40   C46   A    
Cu2   O4    S    
C1    C18   S    
C80   H61   S    
C2    O3    A    
S2    O26   S    
C34   C40   A    
C1    O1    A    
S2    O25   D    
C35   C37   A    
C73   H46   S    
C75   H49   S    
C69   H36   S    
S1    O22   D    
Cu1   O3    S    
C31   O13   S    
C81   H64   S    
C57   C59   A    
O14   C64   S    
C58   C60   A    
C74   H47   S    
C75   H51   S    
C61   C62   S    
C74   H48   S    
C20   H14   S    
C63   H23   S    
C7    C9    A    
O32   H76   S    
C76   C77   S    
C50   C52   A    
C67   H31   S    
C68   C69   S    
Cu2   O2    S    
Cu1   O5    S    
C65   H27   S    
C35   O17   S    
C65   H26   S    
C2    O2    A    
C83   C84   S    
Cu1   O7    S    
C71   H40   S    
C49   C51   A    
C61   H18   S    
C45   H5    S    
C10   S2    S    
C76   H52   S    
S4    O30   D    
C51   C57   A    
C23   O5    A    
C77   H55   S    
C3    C13   A    
C39   C45   A    
C84   H72   S    
C40   C42   A    
Cu2   N4    S    
C13   N2    S    
C78   H57   S    
C32   O14   S    
C55   C60   A    
C24   O7    A    
C2    C17   S    
C4    C14   A    
C64   H25   S    
C80   H62   S    
C10   C12   A    
C52   C54   A    
C38   C44   A    
C57   H1    S    
C75   H50   S    
C53   C55   A    
C58   H2    S    
C54   C56   A    
O26   H74   S    
C84   H71   S    
C71   C72   S    
C73   H45   S    
C77   C78   S    
C4    C6    A    
Cu1   O1    S    
S1    O23   S    
C36   N4    A    
C5    C7    A    
C50   O12   S    
C6    C8    A    
S3    O28   D    
C25   C26   A    
C53   C54   A    
C21   C29   A    
C49   N1    A    
S2    O24   D    
C51   C53   A    
C67   C68   S    
C5    O19   S    
C37   C43   A    
C3    H9    S    
S1    O21   D    
C46   H6    S    
C19   C21   A    
C9    S1    S    
C79   C80   S    
C9    C11   A    
C15   C27   A    
C62   H19   S    
C60   H8    S    
C43   H3    S    
S3    O29   S    
C61   H17   S    
S4    O32   S    
C77   H54   S    
C23   O8    A    
C16   C18   A    
C33   C39   A    
C14   N1    S    
C70   H39   S    
C63   H22   S    
C24   O6    A    
C65   C66   S    
C68   H33   S    
C82   H67   S    
C52   C58   A    
C59   H7    S    
C69   H37   S    
C71   H41   S    
C81   H63   S    
C15   H11   S    
C12   C14   A    
C80   C81   S    
C48   O10   S    
C64   C65   S    
C16   H12   S    
C25   C27   A    
C64   H24   S    
C17   C19   A    
C4    H10   S    
C44   C45   A    
C47   C55   A    
C66   H28   S    
C82   C83   S    
C1    O4    A    
C72   H43   S    
C21   C25   A    
C83   H68   S    
C22   C30   A    
C62   H20   S    
C27   C32   A    
C47   O9    S    
C28   C31   A    
C11   S3    S    
C20   C22   A    
O29   H75   S    
C3    C5    A    
C50   N2    A    
O17   C73   S    
C66   H30   S    
C15   C17   A    
C48   C56   A    
C78   H58   S    
C79   H59   S    
C26   C28   A    
C56   C59   A    
C70   C71   S    
C36   C38   A    
C70   H38   S    
C29   C31   A    
C79   H60   S    
Cu1   N3    S    
O15   C67   S    
C30   C32   A    
C11   C13   A    
C48   N2    A    
Cu2   O6    S    
C19   H13   S    
C7    C23   S    
Cu2   O8    S    
C83   H69   S    
C8    C24   S    
C18   C20   A    
C76   H53   S    
C37   C41   A    
Cu1   Cu2   S    
C43   C46   A    
C67   H32   S    
C68   H34   S    
C84   H70   S    
C30   H16   S    
C38   C42   A    
C62   C63   S    
C29   H15   S    
C8    C10   A    
S3    O27   D    
C22   C26   A    
C12   S4    S    
O18   C76   S    
S4    O31   D    
C34   N4    A    
C49   O11   S    
O23   H73   S    
C33   N3    A    
C69   H35   S    
C66   H29   S    
