data_mof_unit_64576.cif
_audit_creation_date              2012-12-10T18:14:20-0500
_audit_creation_method            fapswitch 2.2
_symmetry_space_group_name_H-M    P1
_symmetry_Int_Tables_number       1
_space_group_crystal_system       triclinic
_cell_length_a                    42.296979
_cell_length_b                    29.205919
_cell_length_c                    30.580047
_cell_angle_alpha                 89.999334
_cell_angle_beta                  136.328418
_cell_angle_gamma                 90.000502
_cell_volume                      26085.3693708

loop_
_atom_site_label
_atom_site_type_symbol
_atom_type_description
_atom_site_fract_x
_atom_site_fract_y
_atom_site_fract_z
_atom_type_partial_charge
C1    C     C_R   0.586686 0.500000 0.587103 0.918237
C2    C     C_1   0.000866 0.000014 0.335625 0.005746
C3    C     C_3   0.524877 0.543827 0.246368 -0.446630
C4    C     C_3   0.027423 0.957712 0.248908 -0.446431
C5    C     C_3   0.024254 0.044172 0.245747 -0.446676
C6    C     C_1   0.500123 0.500004 0.120845 -0.201941
C7    C     C_1   0.000123 0.000007 0.120845 -0.201941
C8    C     C_3   0.501160 0.500018 0.289870 0.112222
C9    C     C_3   0.001160 0.000028 0.289870 0.112222
C10   C     C_3   0.500706 0.500015 0.205614 0.194040
C11   C     C_3   0.000706 0.000023 0.205614 0.194041
C12   C     C_1   0.500388 0.500003 0.373311 -0.159726
C13   C     C_1   0.000388 0.000004 0.373311 -0.159724
C14   C     C_1   0.637268 0.500000 0.637584 -0.205086
C15   C     C_1   0.137268 1.000000 0.637584 -0.205091
C16   C     C_1   0.679405 0.500000 0.679643 0.017891
C17   C     C_1   0.179405 1.000000 0.679643 0.017887
C18   C     C_1   0.729139 0.500000 0.729293 0.017282
C19   C     C_1   0.229139 1.000000 0.729293 0.017278
C20   C     C_1   0.771275 0.500000 0.771366 0.014466
C21   C     C_R   0.086686 0.000000 0.587103 0.918230
C22   C     C_1   0.271275 1.000000 0.771366 0.014463
C23   C     C_1   0.821010 0.500000 0.821040 0.010492
C24   C     C_1   0.321010 1.000000 0.821040 0.010490
C25   C     C_R   0.499812 0.500000 0.417460 0.949259
C26   C     C_R   0.999812 0.000001 0.417460 0.949253
C27   C     C_1   0.863147 0.500000 0.863147 -0.209220
C28   C     C_1   0.363147 1.000000 0.863147 -0.209222
C29   C     C_1   0.499975 0.499999 0.636031 -0.218295
C30   C     C_1   0.999975 0.999999 0.636031 -0.218295
C31   C     C_1   0.499979 0.499999 0.677211 0.018048
C32   C     C_3   0.450847 0.498892 0.172730 -0.416788
C33   C     C_1   0.999979 0.999999 0.677211 0.018049
C34   C     C_1   0.499985 0.499999 0.726218 0.005971
C35   C     C_1   0.999985 0.999999 0.726218 0.005971
C36   C     C_1   0.499990 0.500000 0.767401 0.006032
C37   C     C_1   0.999990 1.000000 0.767401 0.006032
C38   C     C_1   0.499997 0.500000 0.816409 0.018079
C39   C     C_1   0.999997 1.000000 0.816409 0.018079
C40   C     C_1   0.500004 0.500000 0.857593 -0.217887
C41   C     C_1   0.000004 1.000000 0.857593 -0.217888
C42   C     C_1   0.362677 0.500000 0.362989 -0.219609
C43   C     C_3   0.950868 0.998194 0.172751 -0.416794
C44   C     C_1   0.862677 0.000000 0.362989 -0.219607
C45   C     C_1   0.320542 0.500000 0.320796 0.005500
C46   C     C_1   0.820542 0.000000 0.320796 0.005501
C47   C     C_1   0.270811 0.500000 0.271006 0.008595
C48   C     C_1   0.770811 1.000000 0.271006 0.008596
C49   C     C_R   0.413255 0.500000 0.413650 0.902344
C50   C     C_R   0.913255 0.000000 0.413650 0.902345
C51   C     C_1   0.228677 0.500000 0.228828 0.008590
C52   C     C_1   0.728677 1.000000 0.228828 0.008591
C53   C     C_1   0.178946 0.500000 0.179051 0.006669
C54   C     C_3   0.451096 0.498893 0.223206 -0.647273
C55   C     C_1   0.678946 0.000000 0.179051 0.006670
C56   C     C_1   0.136811 0.500000 0.136881 -0.211675
C57   C     C_1   0.636811 0.000000 0.136881 -0.211675
C58   C     C_R   0.500031 0.586641 0.994572 0.907141
C59   C     C_R   0.500031 0.413359 0.994572 0.907089
C60   C     C_R   0.000031 0.086641 0.994572 0.907165
C61   C     C_R   0.000031 0.913359 0.994572 0.907065
C62   C     C_R   0.500036 0.499997 0.076029 0.948096
C63   C     C_R   0.000036 0.999996 0.076029 0.948096
C64   C     C_R   0.500018 0.500000 0.907491 0.891711
C65   C     C_3   0.951117 0.998196 0.223226 -0.647269
C66   C     C_R   0.000018 0.000000 0.907491 0.891711
C67   C     C_R   0.000015 0.413718 0.999133 0.897031
C68   C     C_R   0.000015 0.586282 0.999133 0.897022
C69   C     C_R   0.500015 0.913718 0.999133 0.897020
C70   C     C_R   0.500015 0.086282 0.999133 0.897033
C71   C     C_R   0.913729 0.500000 0.913731 0.897478
C72   C     C_R   0.413729 1.000000 0.913731 0.897478
C73   C     C_R   0.086232 0.500000 0.086271 0.896901
C74   C     C_R   0.586232 0.000000 0.086271 0.896902
C75   C     C_1   0.500041 0.637228 0.995412 -0.219257
C76   C     C_1   0.500363 0.500010 0.159251 -0.049788
C77   C     C_1   0.500041 0.362772 0.995411 -0.219301
C78   C     C_1   0.000041 0.137228 0.995412 -0.219221
C79   C     C_1   0.000041 0.862772 0.995411 -0.219337
C80   C     C_R   0.499972 0.500000 0.586143 0.888917
C81   C     C_R   0.999972 1.000000 0.586143 0.888917
C82   C     C_1   0.500043 0.679366 0.996156 0.007178
C83   C     C_1   0.500043 0.320634 0.996155 0.007129
C84   C     C_1   0.000043 0.179366 0.996156 0.007221
C85   C     C_1   0.000043 0.820634 0.996155 0.007087
C86   C     C_1   0.500041 0.729104 0.997038 0.009748
C87   C     C_1   0.000363 0.000016 0.159251 -0.049788
C88   C     C_1   0.500042 0.270896 0.997037 0.009710
C89   C     C_1   0.000041 0.229104 0.997038 0.009791
C90   C     C_1   0.000042 0.770896 0.997037 0.009668
C91   C     C_1   0.000037 0.271242 0.997748 0.009554
C92   C     C_1   0.000038 0.728758 0.997747 0.009453
C93   C     C_1   0.500038 0.771241 0.997748 0.009514
C94   C     C_1   0.500038 0.228758 0.997747 0.009492
C95   C     C_1   0.000031 0.320982 0.998488 0.007666
C96   C     C_1   0.000031 0.679018 0.998487 0.007589
C97   C     C_1   0.500031 0.820982 0.998488 0.007631
C98   C     C_1   0.500866 0.500009 0.335625 0.005747
C99   C     C_1   0.500031 0.179018 0.998487 0.007622
C100  C     C_1   0.000024 0.363125 0.998946 -0.210863
C101  C     C_1   0.000025 0.636875 0.998945 -0.210918
C102  C     C_1   0.500024 0.863125 0.998946 -0.210891
C103  C     C_1   0.500025 0.136875 0.998945 -0.210892
C104  C     C_3   0.524676 0.544217 0.296456 0.552274
C105  C     C_3   0.526638 0.456923 0.298414 0.552123
C106  C     C_3   0.024048 0.044556 0.295830 0.552320
C107  C     C_3   0.027245 0.957299 0.299020 0.552074
C108  C     C_3   0.526822 0.457330 0.248308 -0.446479
F1    F     F_    0.569154 0.547586 0.356567 -0.600644
F2    F     F_    0.571223 0.455553 0.358631 -0.600745
F3    F     F_    0.068474 0.048554 0.355888 -0.600607
F4    F     F_    0.071845 0.956560 0.359252 -0.600778
H1    H     H_    0.560720 0.545076 0.269853 0.222985
H2    H     H_    0.506939 0.574859 0.215985 0.139018
H3    H     H_    0.011350 0.925676 0.220385 0.138986
H4    H     H_    0.005879 0.074948 0.214928 0.139031
H5    H     H_    0.431874 0.529225 0.216240 0.208009
H6    H     H_    0.433256 0.467726 0.217619 0.208089
H7    H     H_    0.931467 0.028252 0.215835 0.207988
H8    H     H_    0.933720 0.966779 0.218081 0.208110
H9    H     H_    0.431563 0.529248 0.141325 0.196365
H10   H     H_    0.432946 0.467703 0.142705 0.196302
H11   H     H_    0.931156 0.028274 0.140920 0.196389
H12   H     H_    0.562684 0.457696 0.271813 0.223029
H13   H     H_    0.933410 0.966755 0.143168 0.196278
H14   H     H_    0.060076 0.045929 0.269211 0.222972
H15   H     H_    0.063277 0.958585 0.272404 0.223041
H16   H     H_    0.508841 0.425478 0.292257 0.060209
H17   H     H_    0.505484 0.574829 0.288907 0.060155
H18   H     H_    0.009895 0.925604 0.293308 0.060219
H19   H     H_    0.004424 0.074893 0.287851 0.060143
H20   H     H_    0.510297 0.425525 0.219334 0.138997
O1    O     O_R   0.563110 0.535630 0.563620 -0.593904
O2    O     O_R   0.500010 0.063160 0.964010 -0.592240
O3    O     O_R   1.000000 0.436830 0.034310 -0.593870
O4    O     O_R   0.000000 0.563170 0.034310 -0.593938
O5    O     O_R   0.500000 0.936830 0.034310 -0.593884
O6    O     O_R   0.500000 0.063170 0.034310 -0.593925
O7    O     O_R   0.936840 0.500000 0.901700 -0.590582
O8    O     O_R   0.436840 0.000000 0.901700 -0.590583
O9    O     O_R   0.936840 0.500000 0.972000 -0.594773
O10   O     O_R   0.436840 0.000000 0.972000 -0.594773
O11   O     O_R   0.063130 0.500000 0.028000 -0.593230
O12   O     O_R   0.563110 0.464370 0.563620 -0.594162
O13   O     O_R   0.563130 0.000000 0.028000 -0.593229
O14   O     O_R   0.063120 0.500000 0.098300 -0.593433
O15   O     O_R   0.563120 0.000000 0.098300 -0.593433
O16   O     O_R   0.499970 0.535640 0.438200 -0.609751
O17   O     O_R   0.499970 0.464360 0.438200 -0.610614
O18   O     O_R   0.999970 0.035640 0.438200 -0.609470
O19   O     O_R   0.999970 0.964360 0.438200 -0.610887
O20   O     O_R   0.436830 0.535630 0.437320 -0.598079
O21   O     O_R   0.436830 0.464370 0.437320 -0.598084
O22   O     O_R   0.936830 0.035630 0.437320 -0.598062
O23   O     O_R   0.063110 0.035630 0.563620 -0.593817
O24   O     O_R   0.936830 0.964370 0.437320 -0.598099
O25   O     O_R   0.499970 0.535630 0.562740 -0.592671
O26   O     O_R   0.499970 0.464370 0.562740 -0.592649
O27   O     O_R   0.999970 0.035630 0.562740 -0.592663
O28   O     O_R   0.999970 0.964370 0.562740 -0.592656
O29   O     O_R   0.535670 0.563060 0.029670 -0.595466
O30   O     O_R   0.535670 0.436940 0.029670 -0.595511
O31   O     O_R   0.035670 0.063060 0.029670 -0.595452
O32   O     O_R   0.035670 0.936940 0.029670 -0.595526
O33   O     O_R   0.464380 0.563080 0.958370 -0.596887
O34   O     O_R   0.063110 0.964370 0.563620 -0.594251
O35   O     O_R   0.464380 0.436920 0.958370 -0.596864
O36   O     O_R   0.964380 0.063080 0.958370 -0.596881
O37   O     O_R   0.964380 0.936920 0.958370 -0.596870
O38   O     O_R   0.535670 0.500000 0.091080 -0.608392
O39   O     O_R   0.035670 0.000000 0.091080 -0.608394
O40   O     O_R   0.464370 0.500000 0.019780 -0.613691
O41   O     O_R   0.964370 0.000000 0.019780 -0.613690
O42   O     O_R   0.535670 0.500000 0.966540 -0.592975
O43   O     O_R   0.035670 0.000000 0.966540 -0.592975
O44   O     O_R   0.464380 0.500000 0.895240 -0.592575
O45   O     O_R   0.964380 0.000000 0.895240 -0.592575
O46   O     O_R   0.000010 0.436840 0.964010 -0.592272
O47   O     O_R   0.000010 0.563160 0.964010 -0.592242
O48   O     O_R   0.500010 0.936840 0.964010 -0.592275
Zn1   Zn    Zn3+2 0.499970 0.547590 0.500630 0.982107
Zn2   Zn    Zn3+2 0.499990 0.000000 0.953050 0.978611
Zn3   Zn    Zn3+2 0.999980 0.500000 0.046950 0.971918
Zn4   Zn    Zn3+2 0.499980 0.000000 0.046950 0.971916
Zn5   Zn    Zn3+2 0.499970 0.452410 0.500630 0.981386
Zn6   Zn    Zn3+2 0.999970 0.047590 0.500630 0.982374
Zn7   Zn    Zn3+2 0.999970 0.952410 0.500630 0.981126
Zn8   Zn    Zn3+2 0.547630 0.500000 0.040770 0.977129
Zn9   Zn    Zn3+2 0.047630 0.000000 0.040770 0.977126
Zn10  Zn    Zn3+2 0.452420 0.500000 0.945550 0.971162
Zn11  Zn    Zn3+2 0.952420 0.000000 0.945550 0.971163
Zn12  Zn    Zn3+2 0.999990 0.500000 0.953050 0.978613

loop_
_geom_bond_atom_site_label_1
_geom_bond_atom_site_label_2
_ccdc_geom_bond_type
C3    C104  S    
O15   Zn4   S    
O10   Zn4   S    
C105  F2    S    
O17   Zn5   S    
O45   Zn11  S    
C43   H11   S    
C61   O32   A    
C107  F4    S    
C4    H3    S    
C99   C103  T    
O3    Zn3   S    
C80   O26   A    
C8    C105  S    
C43   H13   S    
C27   C71   S    
C39   C41   T    
O5    Zn4   S    
C69   C102  S    
C72   O10   A    
O22   Zn6   S    
C60   C78   S    
C60   O36   A    
O36   Zn11  S    
O14   Zn3   S    
C81   O27   A    
C1    O12   A    
O27   Zn6   S    
C49   O21   A    
C26   O19   A    
C35   C37   T    
C108  H12   S    
C5    C11   S    
O29   Zn8   S    
C69   O48   A    
C104  F1    S    
O24   Zn7   S    
C77   C83   T    
C63   O39   A    
C92   C96   S    
C60   O31   A    
O39   Zn9   S    
C18   C20   T    
C25   O17   A    
C58   O33   A    
C2    C13   T    
C8    C98   S    
C74   O13   A    
O42   Zn8   S    
C10   C76   S    
C7    C87   T    
O47   Zn12  S    
C50   O24   A    
O16   Zn1   S    
C5    H14   S    
O11   Zn12  S    
O23   Zn6   S    
C11   C43   S    
C23   C27   T    
C64   O44   A    
O6    Zn4   S    
C12   C98   T    
C97   C102  T    
C49   O20   A    
C52   C55   S    
C106  F3    S    
C83   C88   S    
C30   C33   T    
C81   O28   A    
C96   C101  T    
C59   C77   S    
C28   C72   S    
O25   Zn1   S    
O2    Zn2   S    
C107  H18   S    
C1    O1    A    
C32   C54   S    
C105  C108  S    
C44   C46   T    
C58   C75   S    
C63   O41   A    
C88   C94   T    
C5    C106  S    
C45   C47   S    
C69   O5    A    
C106  H19   S    
C62   O38   A    
C66   O45   A    
C46   C48   S    
C108  H20   S    
C10   C108  S    
O34   Zn7   S    
C32   H10   S    
C74   O15   A    
C68   O4    A    
C19   C22   T    
C68   C101  S    
O7    Zn12  S    
C3    H1    S    
C8    C54   S    
C70   C103  S    
C17   C19   S    
C47   C51   T    
O40   Zn10  S    
C9    C106  S    
O12   Zn5   S    
O13   Zn2   S    
C67   O46   A    
O8    Zn2   S    
C21   O34   A    
O9    Zn3   S    
C42   C45   T    
C4    C107  S    
C57   C74   S    
O19   Zn7   S    
O43   Zn9   S    
C67   O3    A    
C86   C93   T    
C10   C32   S    
O46   Zn12  S    
O44   Zn10  S    
C38   C40   T    
C20   C23   S    
C48   C52   T    
C43   C65   S    
C26   O18   A    
O33   Zn10  S    
C21   O23   A    
C31   C34   S    
O31   Zn9   S    
C16   C18   S    
C4    C11   S    
C8    C104  S    
C7    C63   S    
C67   C100  S    
O1    Zn1   S    
C70   O6    A    
C104  H17   S    
C55   C57   T    
C5    H4    S    
C14   C16   T    
C13   C26   S    
C54   H5    S    
C61   O37   A    
C84   C89   S    
O37   Zn11  S    
C72   O8    A    
C64   O42   A    
O32   Zn9   S    
O26   Zn5   S    
C93   C97   S    
C79   C85   T    
C59   O35   A    
C73   O11   A    
C53   C56   T    
C44   C50   S    
C15   C17   T    
O35   Zn10  S    
C56   C73   S    
O48   Zn2   S    
C4    H15   S    
C95   C100  T    
C32   H9    S    
C24   C28   T    
C3    H2    S    
O18   Zn6   S    
C71   O7    A    
C85   C90   S    
C75   C82   T    
C6    C76   T    
C41   C66   S    
C9    C107  S    
C62   O40   A    
C73   O14   A    
C68   O47   A    
C40   C64   S    
C71   O9    A    
C12   C25   S    
C6    C62   S    
C30   C81   S    
C54   H6    S    
C90   C92   T    
C37   C39   S    
C59   O30   A    
C82   C86   S    
C61   C79   S    
O30   Zn8   S    
C58   O29   A    
C80   O25   A    
C29   C80   S    
O21   Zn5   S    
C94   C99   S    
C50   O22   A    
C3    C10   S    
O4    Zn3   S    
C36   C38   S    
C33   C35   S    
C65   H8    S    
O41   Zn11  S    
C25   O16   A    
C22   C24   S    
C105  H16   S    
C66   O43   A    
C9    C65   S    
C65   H7    S    
C42   C49   S    
C91   C95   S    
C78   C84   T    
C15   C21   S    
C34   C36   T    
C29   C31   T    
C89   C91   T    
C11   C87   S    
O38   Zn8   S    
C70   O2    A    
C1    C14   S    
O28   Zn7   S    
C51   C53   S    
O20   Zn1   S    
C2    C9    S    
