data_mof_unit_59470.cif
_audit_creation_date              2012-12-10T20:31:03-0500
_audit_creation_method            fapswitch 2.2
_symmetry_space_group_name_H-M    P1
_symmetry_Int_Tables_number       1
_space_group_crystal_system       triclinic
_cell_length_a                    15.017342
_cell_length_b                    10.670198
_cell_length_c                    9.845295
_cell_angle_alpha                 90.109808
_cell_angle_beta                  89.997054
_cell_angle_gamma                 90.195634
_cell_volume                      1577.578409

loop_
_atom_site_label
_atom_site_type_symbol
_atom_type_description
_atom_site_fract_x
_atom_site_fract_y
_atom_site_fract_z
_atom_type_partial_charge
C1    C     C_R   0.505324 0.259962 0.499623 0.923733
C2    C     C_R   0.907230 0.507552 0.375370 0.114369
C3    C     C_R   0.953605 0.498911 0.747970 -0.208274
C4    C     C_R   0.046121 0.499605 0.747954 -0.214930
C5    C     C_R   0.092479 0.502653 0.624605 0.120005
C6    C     C_R   0.046174 0.505715 0.500034 0.061549
C7    C     C_R   0.092519 0.509157 0.375476 0.119502
C8    C     C_R   0.046169 0.512362 0.252141 -0.213835
C9    C     C_R   0.953641 0.511477 0.252087 -0.205152
C10   C     C_R   0.184564 0.502014 0.623570 -0.259104
C11   C     C_R   0.230487 0.503802 0.500014 -0.075236
C12   C     C_R   0.326494 0.500961 0.500013 0.891109
C13   C     C_R   0.184629 0.508691 0.376498 -0.254200
C14   C     C_R   0.512108 0.064131 0.622229 0.106361
C15   C     C_R   0.522540 0.128575 0.500245 -0.215855
C16   C     C_R   0.551493 0.062770 0.383278 0.381876
C17   C     C_R   0.548794 0.932799 0.385000 -0.264901
C18   C     C_R   0.519302 0.870977 0.502072 -0.179305
C19   C     C_R   0.510794 0.936566 0.623216 0.135642
C20   C     C_3   0.439693 0.930645 0.729135 -0.456762
C21   C     C_3   0.441124 0.072682 0.728384 -0.466084
C22   C     C_R   0.461524 0.403446 0.071215 0.317105
C23   C     C_R   0.503210 0.740022 0.500215 0.906505
C24   C     C_R   0.545162 0.588931 0.072221 -0.132588
C25   C     C_R   0.545183 0.588932 0.928098 -0.137632
C26   C     C_R   0.461107 0.403781 0.928448 0.233357
C27   C     C_3   0.365214 0.367293 0.924012 -0.542431
C28   C     C_3   0.366248 0.365120 0.077901 -0.520083
C29   C     C_R   0.673446 0.500346 0.499978 0.898202
C30   C     C_R   0.815118 0.505892 0.376278 -0.234786
C31   C     C_R   0.769333 0.501806 0.499961 -0.073358
C32   C     C_R   0.815120 0.499747 0.623673 -0.250917
C33   C     C_R   0.907220 0.501288 0.624642 0.117373
C34   C     C_R   0.953534 0.504997 0.500017 0.060281
H1    H     H_    0.779281 0.507822 0.280654 0.169563
H2    H     H_    0.564878 0.881222 0.293329 0.193270
H3    H     H_    0.376313 0.889898 0.690346 0.200100
H4    H     H_    0.464311 0.889742 0.825832 0.211901
H5    H     H_    0.378454 0.114684 0.689427 0.194218
H6    H     H_    0.466795 0.113559 0.824721 0.223429
H7    H     H_    0.580196 0.662028 0.126848 0.150380
H8    H     H_    0.580219 0.662033 0.873767 0.154358
H9    H     H_    0.322611 0.442813 0.882524 0.212616
H10   H     H_    0.354272 0.273470 0.878170 0.207374
H11   H     H_    0.323397 0.438310 0.123769 0.206095
H12   H     H_    0.779293 0.496744 0.719285 0.167369
H13   H     H_    0.357827 0.269613 0.121036 0.221648
H14   H     H_    0.918399 0.496206 0.844047 0.145025
H15   H     H_    0.081355 0.497335 0.844014 0.142200
H16   H     H_    0.220161 0.499860 0.719027 0.153252
H17   H     H_    0.220296 0.512107 0.281074 0.152933
H18   H     H_    0.081416 0.515038 0.156091 0.141833
H19   H     H_    0.918448 0.513574 0.155996 0.144753
N1    N     N_R   0.499390 0.499140 0.142800 -0.114059
N2    N     N_R   0.499390 0.499180 0.857150 -0.114027
O1    O     O_R   0.500010 0.316790 0.614690 -0.620418
O2    O     O_R   0.500000 0.316760 0.385350 -0.564710
O3    O     O_R   0.367850 0.499990 0.614680 -0.628191
O4    O     O_R   0.367840 0.499950 0.385340 -0.630740
O5    O     O_R   0.500000 0.683240 0.614650 -0.622241
O6    O     O_R   0.499990 0.683210 0.385310 -0.630394
O7    O     O_R   0.632160 0.500050 0.614660 -0.629308
O8    O     O_R   0.632150 0.500010 0.385320 -0.614551
Zn1   Zn    Zn3+2 0.500010 0.500020 0.653130 0.950196
Zn2   Zn    Zn3+2 0.499990 0.499980 0.346870 0.979423
Cl1   Cl    Cl    0.586662 0.135145 0.231256 -0.634834

loop_
_geom_bond_atom_site_label_1
_geom_bond_atom_site_label_2
_ccdc_geom_bond_type
C25   H8    S    
C2    C9    A    
C7    C13   A    
C11   C12   S    
O1    Zn1   S    
C28   H13   S    
C6    C7    A    
C1    C15   S    
C17   H2    S    
C1    O2    A    
C20   H4    S    
C8    H18   S    
C19   C20   S    
C21   H5    S    
O5    Zn1   S    
C4    H15   S    
C2    C30   A    
C12   O3    A    
N2    Zn1   S    
C2    C34   A    
O8    Zn2   S    
C17   C18   A    
C24   C25   A    
C5    C10   A    
C22   N1    A    
N1    Zn2   S    
C22   C28   S    
C4    C5    A    
O4    Zn2   S    
C20   H3    S    
C11   C13   A    
C30   C31   A    
C26   C27   S    
C5    C6    A    
C21   H6    S    
C24   H7    S    
C30   H1    S    
C15   C16   A    
C14   C19   A    
C14   C21   S    
C29   O8    A    
C26   N2    A    
C33   C34   A    
O6    Zn2   S    
O3    Zn1   S    
C23   O5    A    
C28   H11   S    
C9    H19   S    
C10   C11   A    
C3    C33   A    
C24   N1    A    
C18   C23   S    
C10   H16   S    
C27   H9    S    
C3    H14   S    
C23   O6    A    
C16   Cl1   S    
C20   C21   S    
C6    C34   A    
C29   C31   S    
C7    C8    A    
C22   C26   A    
C27   C28   S    
C13   H17   S    
C29   O7    A    
C18   C19   A    
O7    Zn1   S    
C32   C33   A    
C14   C15   A    
C12   O4    A    
C32   H12   S    
C27   H10   S    
C1    O1    A    
C31   C32   A    
C3    C4    A    
C25   N2    A    
C16   C17   A    
O2    Zn2   S    
C8    C9    A    
