data_mof_unit_16845.cif
_audit_creation_date              2013-03-05T16:03:21-0500
_audit_creation_method            fapswitch 2.2
_symmetry_space_group_name_H-M    P1
_symmetry_Int_Tables_number       1
_space_group_crystal_system       triclinic
_cell_length_a                    27.7905
_cell_length_b                    11.725165
_cell_length_c                    10.441912
_cell_angle_alpha                 89.721965
_cell_angle_beta                  90.187333
_cell_angle_gamma                 90.206859
_cell_volume                      3402.3979801

loop_
_atom_site_label
_atom_site_type_symbol
_atom_site_description
_atom_site_fract_x
_atom_site_fract_y
_atom_site_fract_z
_atom_type_partial_charge
O1    O     O_R   0.500000 0.337200 0.605810 -0.582674
O2    O     O_R   0.500000 0.662800 0.394190 -0.568201
O3    O     O_R   0.500000 0.662800 0.605810 -0.562110
O4    O     O_R   0.500000 0.337200 0.394190 -0.568308
C1    C     C_R   0.500003 0.283259 0.500247 0.806703
C2    C     C_R   0.500021 0.716743 0.499758 0.841317
O5    O     O_R   0.430260 0.500000 0.605800 -0.523942
O6    O     O_R   0.569740 0.500000 0.394200 -0.524865
O7    O     O_R   0.569740 0.500000 0.605800 -0.573617
O8    O     O_R   0.430260 0.500000 0.394200 -0.597911
C3    C     C_R   0.406916 0.502090 0.499983 0.929226
C4    C     C_R   0.592909 0.497530 0.500251 0.897352
Cu1   Cu    Cu3+1 0.500000 0.500000 0.625300 1.028060
Cu2   Cu    Cu3+1 0.500000 0.500000 0.374700 1.019913
C5    C     C_R   0.177435 0.385035 0.553723 0.613689
C6    C     C_R   0.821467 0.580870 0.573488 0.659622
C7    C     C_R   0.177732 0.588365 0.564356 0.607772
C8    C     C_R   0.823715 0.402415 0.464661 0.568315
O9    O     O_2   0.202466 0.287088 0.544523 -0.477122
O10   O     O_2   0.794900 0.667006 0.620655 -0.482700
O11   O     O_2   0.203252 0.686410 0.567413 -0.485193
O12   O     O_2   0.799446 0.318086 0.405116 -0.553191
N1    N     N_R   0.201594 0.486842 0.554212 -0.427152
N2    N     N_R   0.798773 0.492157 0.514034 -0.413549
C9    C     C_R   0.273798 0.454334 0.422598 0.425488
C10   C     C_R   0.721073 0.436322 0.605388 0.394209
C11   C     C_R   0.282371 0.530224 0.638203 0.364384
C12   C     C_R   0.723278 0.543530 0.405194 0.314810
C13   C     C_R   0.324085 0.458393 0.406805 0.192927
C14   C     C_R   0.670784 0.432453 0.600215 0.218521
C15   C     C_R   0.331686 0.550982 0.615119 0.226334
C16   C     C_R   0.672393 0.549442 0.404949 0.249039
C17   C     C_R   0.253138 0.488662 0.538968 0.044468
C18   C     C_R   0.747148 0.490998 0.508108 0.081913
C19   C     C_R   0.101518 0.486658 0.564598 -0.192234
C20   C     C_R   0.898408 0.488940 0.537205 -0.190487
C21   C     C_R   0.126826 0.382350 0.560060 -0.124474
C22   C     C_R   0.872026 0.582492 0.584953 -0.123025
C23   C     C_R   0.127056 0.591031 0.569398 -0.117886
C24   C     C_R   0.874132 0.397076 0.477557 -0.111395
C25   C     C_R   0.100741 0.278751 0.562607 0.498160
C26   C     C_R   0.896802 0.673124 0.645143 0.473062
C27   C     C_R   0.101251 0.694698 0.575694 0.493138
C28   C     C_R   0.900871 0.303143 0.432490 0.490208
C29   C     C_R   0.353523 0.506385 0.504136 -0.294567
C30   C     C_R   0.646027 0.491457 0.500938 -0.296203
C31   C     C_R   0.974962 0.387420 0.518195 0.018884
C32   C     C_R   0.025036 0.588958 0.583446 0.021071
C33   C     C_R   0.974071 0.585580 0.591484 0.024317
C34   C     C_R   0.025200 0.383582 0.541333 0.020929
C35   C     C_R   0.949213 0.487293 0.548996 0.067473
C36   C     C_R   0.050514 0.486452 0.563448 0.068275
C37   C     C_R   0.950035 0.296042 0.461164 -0.311611
C38   C     C_R   0.051190 0.691812 0.590931 -0.312143
C39   C     C_R   0.947194 0.676678 0.641177 -0.313533
C40   C     C_R   0.050852 0.280328 0.544842 -0.316516
H1    H     H_    0.968604 0.220007 0.431486 0.146210
H2    H     H_    0.033273 0.772527 0.602115 0.142510
H3    H     H_    0.964644 0.749866 0.683022 0.141959
H4    H     H_    0.032619 0.198910 0.540928 0.145780
C41   C     C_1   0.500026 0.161922 0.500613 -0.155137
C42   C     C_1   0.500028 0.838083 0.499411 -0.149740
C43   C     C_1   0.500036 0.059717 0.500325 0.017749
C44   C     C_1   0.500034 0.940290 0.499716 0.019446
N3    N     N_1   0.500000 0.500000 0.186410 -0.135859
N4    N     N_1   0.500000 0.500000 0.813590 -0.129797
C45   C     C_1   0.499993 0.499997 0.071986 0.106584
C46   C     C_1   0.499993 0.499997 0.928013 0.119045
O13   O     O_3   0.359327 0.613679 0.700119 -0.704432
H5    H     H_    0.337976 0.654712 0.759984 0.353474
O14   O     O_3   0.647669 0.614152 0.315451 -0.698794
H6    H     H_    0.670421 0.665100 0.269815 0.355931
O15   O     O_3   0.343132 0.409966 0.298465 -0.692401
H7    H     H_    0.364533 0.467643 0.258783 0.334224
O16   O     O_3   0.647302 0.370738 0.694100 -0.687800
H8    H     H_    0.618127 0.335923 0.655899 0.323162
O17   O     O_3   0.261690 0.553114 0.756216 -0.575921
C47   C     C_3   0.280442 0.477977 0.851027 0.040604
H9    H     H_    0.275835 0.519052 0.945717 0.155634
H10   H     H_    0.319792 0.462656 0.841336 0.171269
C48   C     C_3   0.253165 0.364038 0.852296 -0.406446
H11   H     H_    0.216631 0.377036 0.892415 0.212943
H12   H     H_    0.249342 0.331481 0.753390 0.256589
C49   C     C_3   0.279830 0.273850 0.930852 -0.855135
H13   H     H_    0.314099 0.251256 0.882904 0.265012
H14   H     H_    0.257330 0.195747 0.938836 0.264227
H15   H     H_    0.288148 0.305285 0.028462 0.271311
O18   O     O_3   0.750353 0.595997 0.310614 -0.588272
C50   C     C_3   0.749720 0.526946 0.199975 0.051624
H16   H     H_    0.713050 0.524618 0.156877 0.170668
H17   H     H_    0.761067 0.438072 0.222546 0.173083
C51   C     C_3   0.784728 0.576655 0.101870 -0.377631
H18   H     H_    0.776091 0.667973 0.085160 0.244673
H19   H     H_    0.822017 0.570723 0.140136 0.218967
C52   C     C_3   0.781716 0.513417 0.974691 -0.822536
H20   H     H_    0.788019 0.420899 0.989611 0.251508
H21   H     H_    0.809391 0.547172 0.907904 0.257039
H22   H     H_    0.745671 0.525642 0.930569 0.296943
O19   O     O_3   0.244790 0.403382 0.330920 -0.539953
C53   C     C_3   0.240249 0.473977 0.221296 0.103753
H23   H     H_    0.234669 0.416840 0.138366 0.178448
H24   H     H_    0.272863 0.526373 0.200230 0.128393
C54   C     C_3   0.196105 0.550823 0.232014 -0.423606
H25   H     H_    0.164513 0.499428 0.263227 0.237102
H26   H     H_    0.203269 0.617609 0.304534 0.219677
C55   C     C_3   0.184541 0.608056 0.103934 -0.876982
H27   H     H_    0.214807 0.664083 0.073799 0.267233
H28   H     H_    0.151613 0.660490 0.113236 0.259331
H29   H     H_    0.177904 0.542901 0.028983 0.260357
O20   O     O_3   0.745327 0.390470 0.709304 -0.583884
C56   C     C_3   0.751319 0.271732 0.692686 0.115575
H30   H     H_    0.749795 0.244492 0.590475 0.168278
H31   H     H_    0.722266 0.225679 0.744724 0.178716
C57   C     C_3   0.799934 0.237238 0.749613 -0.378234
H32   H     H_    0.828234 0.298094 0.717551 0.233642
H33   H     H_    0.797922 0.240768 0.855758 0.218008
C58   C     C_3   0.814285 0.117430 0.709007 -0.841576
H34   H     H_    0.786716 0.054586 0.740518 0.252853
H35   H     H_    0.849436 0.095400 0.753270 0.246432
H36   H     H_    0.818146 0.113311 0.603262 0.299282
O21   O     O_3   0.124006 0.174985 0.576155 -0.581591
C59   C     C_3   0.114716 0.128413 0.699388 0.051439
H37   H     H_    0.121003 0.035112 0.694797 0.189783
H38   H     H_    0.076621 0.138892 0.730244 0.116504
C60   C     C_3   0.149056 0.178471 0.799888 -0.332074
H39   H     H_    0.186812 0.164171 0.769463 0.259811
H40   H     H_    0.142969 0.271711 0.808257 0.198854
C61   C     C_3   0.141434 0.123296 0.930986 -0.908450
H41   H     H_    0.103945 0.137091 0.963917 0.255084
H42   H     H_    0.166462 0.162154 0.001625 0.265304
H43   H     H_    0.148640 0.030272 0.926469 0.268620
O22   O     O_3   0.871609 0.761539 0.701528 -0.560368
C62   C     C_3   0.883018 0.767595 0.833606 0.062130
H44   H     H_    0.916909 0.816948 0.846831 0.137136
H45   H     H_    0.887167 0.681242 0.877959 0.122858
C63   C     C_3   0.842535 0.828964 0.903468 -0.297346
H46   H     H_    0.836177 0.913019 0.857641 0.230140
H47   H     H_    0.808902 0.777873 0.895954 0.239981
C64   C     C_3   0.854933 0.847516 0.044391 -0.941561
H48   H     H_    0.862551 0.764827 0.092470 0.260089
H49   H     H_    0.824131 0.888606 0.093208 0.271929
H50   H     H_    0.886932 0.904019 0.053349 0.252169
O23   O     O_3   0.125345 0.798685 0.577513 -0.573970
C65   C     C_3   0.113328 0.865462 0.468318 0.063699
H51   H     H_    0.125263 0.954101 0.487406 0.209727
H52   H     H_    0.073918 0.870094 0.450195 0.112766
C66   C     C_3   0.139551 0.824246 0.348244 -0.341804
H53   H     H_    0.178890 0.821529 0.367146 0.263373
H54   H     H_    0.126906 0.737079 0.323737 0.200795
C67   C     C_3   0.130137 0.903406 0.234410 -0.896522
H55   H     H_    0.091109 0.905142 0.211213 0.250395
H56   H     H_    0.150011 0.872497 0.149389 0.260517
H57   H     H_    0.142635 0.991322 0.256220 0.278641
O24   O     O_3   0.878173 0.213398 0.370149 -0.569538
C68   C     C_3   0.894512 0.204974 0.241942 0.086356
H58   H     H_    0.884215 0.119082 0.206422 0.168860
H59   H     H_    0.934380 0.210066 0.233688 0.113311
C69   C     C_3   0.870727 0.294641 0.154934 -0.332495
H60   H     H_    0.831048 0.282749 0.156311 0.245051
H61   H     H_    0.879174 0.381718 0.190204 0.208013
C70   C     C_3   0.888601 0.284596 0.017358 -0.957314
H62   H     H_    0.928239 0.296624 0.013742 0.262488
H63   H     H_    0.871595 0.351350 0.956801 0.259707
H64   H     H_    0.879234 0.199528 0.977879 0.261420

loop_
_geom_bond_atom_site_label_1
_geom_bond_atom_site_label_2
_geom_bond_distance
_ccdc_geom_bond_type
O5    Cu1   1.948114 S    
N4    C46   1.194798 T    
C39   H3    1.077832 S    
C68   H59   1.112948 S    
O15   H7    0.989314 S    
C27   O23   1.389077 S    
C52   H20   1.109633 S    
C49   H15   1.108881 S    
C66   H53   1.110830 S    
O3    C2    1.272614 A    
C61   H41   1.110827 S    
C48   C49   1.527573 S    
C48   H11   1.110894 S    
C52   H22   1.110657 S    
O17   C47   1.421018 S    
C11   C17   1.402754 A    
C32   C38   1.408183 A    
C7    N1    1.369438 A    
C21   C25   1.412506 A    
O1    C1    1.273497 A    
C51   H18   1.110969 S    
C66   H54   1.110363 S    
C49   H14   1.109984 S    
C22   C26   1.413056 A    
C32   C36   1.413873 A    
C58   H35   1.110100 S    
C19   C23   1.413500 A    
C64   H50   1.110964 S    
C47   H10   1.113861 S    
C13   O15   1.376483 S    
C55   H27   1.110752 S    
O23   C65   1.419635 S    
C7    C23   1.409926 A    
C25   O21   1.386270 S    
C41   C43   1.198392 T    
O7    Cu1   1.949435 S    
O20   C56   1.414329 S    
C5    C21   1.408469 A    
C42   C44   1.198404 T    
C54   H25   1.111894 S    
C69   C70   1.526780 S    
C70   H63   1.109825 S    
C28   C37   1.400459 A    
C10   C18   1.401093 A    
C56   H30   1.116155 S    
O22   C62   1.416170 S    
C33   C35   1.413977 A    
C67   H57   1.110981 S    
C12   O18   1.384040 S    
C62   C63   1.527069 S    
C34   C36   1.413711 A    
C31   C34   1.416944 A    
C10   O20   1.383089 S    
O3    Cu1   1.918693 S    
C6    O10   1.349160 S    
C31   C37   1.407332 A    
C5    N1    1.367467 A    
C60   H39   1.110833 S    
C12   C18   1.402186 A    
C6    N2    1.365316 A    
Cu1   Cu2   2.616743 S    
C68   C69   1.536080 S    
C69   H61   1.111090 S    
C56   C57   1.529241 S    
O2    C2    1.273553 A    
C65   C66   1.533304 S    
C53   H24   1.115020 S    
C48   H12   1.107437 S    
C9    O19   1.385719 S    
C70   H62   1.110787 S    
C16   O14   1.383406 S    
Cu1   N4    1.966109 S    
C9    C13   1.408329 A    
C11   C15   1.412366 A    
C45   C46   1.503347 S    
C12   C16   1.416053 A    
C66   C67   1.527028 S    
C49   H13   1.110874 S    
C65   H52   1.112332 S    
O8    Cu2   1.949438 S    
C58   H36   1.111030 S    
C37   H1    1.078976 S    
C47   H9    1.109880 S    
C63   H46   1.108007 S    
C31   C35   1.413514 A    
N1    C17   1.441819 S    
C33   C39   1.407751 A    
C53   C54   1.529472 S    
C34   C40   1.407455 A    
C40   H4    1.080056 S    
C13   C29   1.419740 A    
C63   C64   1.526633 S    
C5    O9    1.348829 S    
O16   H8    0.990050 S    
C25   C40   1.398351 A    
C26   C39   1.401627 A    
C60   C61   1.526308 S    
C27   C38   1.401096 A    
O5    C3    1.279642 A    
O19   C53   1.414916 S    
C20   C24   1.414847 A    
O6    C4    1.279409 A    
C51   H19   1.111704 S    
O21   C59   1.419509 S    
C1    C41   1.422681 S    
C56   H31   1.111578 S    
C50   C51   1.527176 S    
O24   C68   1.419048 S    
C20   C35   1.417057 A    
C4    C30   1.478142 S    
C32   C33   1.419509 A    
C10   C14   1.398984 A    
C62   H44   1.112190 S    
C54   H26   1.109016 S    
C8    N2    1.366135 A    
C3    C29   1.485639 S    
C50   H17   1.113725 S    
C59   H38   1.115021 S    
C61   H43   1.110923 S    
C19   C36   1.417429 A    
C70   H64   1.110859 S    
C63   H47   1.111121 S    
C62   H45   1.117538 S    
C38   H2    1.078001 S    
C8    C24   1.408713 A    
O6    Cu2   1.948111 S    
C19   C21   1.414106 A    
C8    O12   1.348155 S    
C16   C30   1.413623 A    
C14   C30   1.420711 A    
O4    C1    1.272653 A    
C11   O17   1.389172 S    
C61   H42   1.110428 S    
C57   H33   1.110929 S    
C64   H48   1.110370 S    
C52   H21   1.110473 S    
C57   H32   1.111369 S    
N3    C45   1.194807 T    
C65   H51   1.108589 S    
C28   O24   1.388545 S    
C2    C42   1.422724 S    
C59   C60   1.533584 S    
C20   C22   1.415216 A    
C59   H37   1.109744 S    
O14   H6    0.990063 S    
C15   O13   1.384213 S    
C58   H34   1.110603 S    
C14   O16   1.380012 S    
C64   H49   1.110366 S    
C47   C48   1.533679 S    
C69   H60   1.111116 S    
C55   H28   1.109047 S    
C53   H23   1.107581 S    
Cu2   N3    1.966108 S    
C54   C55   1.527189 S    
C67   H56   1.110091 S    
C51   C52   1.526026 S    
O4    Cu2   1.918693 S    
O13   H5    0.990815 S    
O2    Cu2   1.920657 S    
O7    C4    1.278752 A    
N2    C18   1.435840 S    
C57   C58   1.524190 S    
O8    C3    1.283206 A    
C43   C44   1.400352 S    
C24   C28   1.414176 A    
O1    Cu1   1.920657 S    
O18   C50   1.413981 S    
C23   C27   1.415432 A    
C15   C29   1.413326 A    
C6    C22   1.409848 A    
C68   H58   1.111103 S    
C60   H40   1.110773 S    
C67   H55   1.110796 S    
C26   O22   1.387583 S    
C50   H16   1.112988 S    
C9    C17   1.406828 A    
C55   H29   1.110855 S    
C7    O11   1.349022 S    
