data_mof_unit_31558.cif
_audit_creation_date              2013-03-05T16:50:05-0500
_audit_creation_method            fapswitch 2.2
_symmetry_space_group_name_H-M    P1
_symmetry_Int_Tables_number       1
_space_group_crystal_system       triclinic
_cell_length_a                    27.817693
_cell_length_b                    10.827418
_cell_length_c                    26.518686
_cell_angle_alpha                 90.517865
_cell_angle_beta                  90.609259
_cell_angle_gamma                 90.588277
_cell_volume                      7986.0567778

loop_
_atom_site_label
_atom_site_type_symbol
_atom_site_description
_atom_site_fract_x
_atom_site_fract_y
_atom_site_fract_z
_atom_type_partial_charge
O1    O     O_R   0.500000 0.319660 0.542350 -0.594568
O2    O     O_R   0.500000 0.680340 0.457650 -0.539908
O3    O     O_R   0.500000 0.319630 0.457650 -0.585694
O4    O     O_R   0.500000 0.680370 0.542350 -0.571501
C1    C     C_R   0.498257 0.262203 0.499657 0.779054
C2    C     C_R   0.501261 0.738066 0.500326 0.800816
O5    O     O_R   0.430260 0.500030 0.542340 -0.559790
O6    O     O_R   0.569740 0.499970 0.457660 -0.548792
O7    O     O_R   0.430270 0.500010 0.457650 -0.560621
O8    O     O_R   0.569730 0.499990 0.542350 -0.539972
C3    C     C_R   0.407241 0.500938 0.499810 0.819533
C4    C     C_R   0.592474 0.500391 0.500077 0.831662
Cu1   Cu    Cu3+1 0.500000 0.500020 0.550150 0.982861
Cu2   Cu    Cu3+1 0.500000 0.499980 0.449850 1.002887
O9    O     O_2   0.414639 0.566974 0.787346 -0.570051
O10   O     O_2   0.582350 0.464257 0.212473 -0.545187
C5    C     C_R   0.408901 0.510665 0.055805 -0.203607
C6    C     C_R   0.575893 0.403490 0.944308 -0.203808
H1    H     H_    0.432490 0.406329 0.625297 0.209128
H2    H     H_    0.544011 0.341412 0.371898 0.180054
C7    C     C_R   0.177448 0.394084 0.508809 0.594679
C8    C     C_R   0.822332 0.616339 0.493559 0.596268
O11   O     O_2   0.202895 0.294201 0.522502 -0.485777
O12   O     O_2   0.797429 0.721402 0.487233 -0.496105
N1    N     N_R   0.201438 0.497931 0.493549 -0.462294
N2    N     N_R   0.797829 0.506566 0.498107 -0.457697
C9    C     C_R   0.177441 0.600798 0.478437 0.538950
C10   C     C_R   0.821739 0.397383 0.502747 0.537721
C11   C     C_R   0.277013 0.501699 0.541843 -0.184354
C12   C     C_R   0.720151 0.432655 0.463029 -0.171766
C13   C     C_R   0.327299 0.505301 0.544319 0.461594
C14   C     C_R   0.669937 0.426950 0.464301 0.459352
C15   C     C_R   0.329370 0.503452 0.452587 -0.313177
C16   C     C_R   0.670960 0.576147 0.533347 -0.323672
C17   C     C_R   0.279296 0.502340 0.450665 -0.113335
C18   C     C_R   0.721032 0.577043 0.533404 -0.119746
C19   C     C_R   0.252997 0.500513 0.495265 0.284293
C20   C     C_R   0.746027 0.505646 0.498130 0.269869
C21   C     C_R   0.101417 0.498263 0.495870 -0.123370
C22   C     C_R   0.898127 0.507283 0.498850 -0.123686
C23   C     C_R   0.126685 0.391528 0.510326 -0.205581
C24   C     C_R   0.873167 0.619704 0.494822 -0.200783
C25   C     C_R   0.100737 0.287253 0.527150 0.427464
C26   C     C_R   0.899525 0.731813 0.493127 0.427430
C27   C     C_R   0.127120 0.602986 0.479261 0.033883
C28   C     C_R   0.872045 0.395404 0.502147 0.026547
C29   C     C_R   0.354069 0.502941 0.499167 -0.141217
C30   C     C_R   0.645114 0.500030 0.499609 -0.129266
H3    H     H_    0.348738 0.504243 0.417448 0.178645
H4    H     H_    0.652301 0.636537 0.559063 0.194696
H5    H     H_    0.260884 0.501858 0.414480 0.152413
H6    H     H_    0.740416 0.634209 0.560643 0.165037
C31   C     C_R   0.973621 0.392715 0.505982 0.114979
C32   C     C_R   0.025849 0.611487 0.486347 0.124154
C33   C     C_R   0.975338 0.617503 0.493462 -0.141668
C34   C     C_R   0.024505 0.393428 0.511536 -0.142472
C35   C     C_R   0.949134 0.505987 0.499379 0.005652
C36   C     C_R   0.050480 0.500819 0.497832 0.005567
C37   C     C_R   0.946425 0.281994 0.504971 -0.164045
C38   C     C_R   0.052408 0.711024 0.466352 -0.170222
C39   C     C_R   0.896581 0.283472 0.504019 -0.182931
C40   C     C_R   0.102152 0.707418 0.463508 -0.197486
H7    H     H_    0.373977 0.521379 0.038522 0.140223
H8    H     H_    0.608577 0.370903 0.961561 0.140770
H9    H     H_    0.426615 0.395140 0.717217 0.188934
H10   H     H_    0.541889 0.323585 0.279371 0.195206
O13   O     O_2   0.796867 0.290816 0.508571 -0.552370
O14   O     O_2   0.202312 0.701429 0.463431 -0.549777
C41   C     C_R   0.050485 0.291667 0.531073 0.355582
C42   C     C_R   0.950005 0.730835 0.495895 0.349410
H11   H     H_    0.877340 0.195957 0.504194 0.196566
H12   H     H_    0.120968 0.787121 0.448704 0.176376
H13   H     H_    0.962950 0.192424 0.502880 0.208166
H14   H     H_    0.035291 0.791228 0.450722 0.191916
H15   H     H_    0.391901 0.264991 0.297533 0.175796
H16   H     H_    0.615213 0.812320 0.708654 0.142667
C43   C     C_R   0.391192 0.242425 0.377836 -0.220959
C44   C     C_R   0.618404 0.835425 0.628473 -0.166182
H17   H     H_    0.359771 0.299043 0.382719 0.155070
H18   H     H_    0.656535 0.817078 0.626868 0.145450
C45   C     C_R   0.413318 0.189111 0.419676 -0.091405
C46   C     C_R   0.592916 0.861974 0.584351 -0.137744
H19   H     H_    0.398749 0.205208 0.456855 0.124084
H20   H     H_    0.611784 0.866823 0.548887 0.128941
C47   C     C_R   0.454306 0.116273 0.413553 0.068601
C48   C     C_R   0.543837 0.888592 0.586466 0.087771
C49   C     C_R   0.472079 0.094920 0.364883 -0.282482
C50   C     C_R   0.520188 0.885997 0.632945 -0.245165
C51   C     C_R   0.448992 0.146011 0.322149 0.544069
C52   C     C_R   0.545435 0.855270 0.677758 0.534640
C53   C     C_R   0.409275 0.222263 0.329575 -0.160341
C54   C     C_R   0.594907 0.833175 0.674784 -0.114748
C55   C     C_R   0.481005 0.931592 0.459140 -0.231292
C56   C     C_R   0.516864 0.069146 0.540730 -0.241896
H21   H     H_    0.465989 0.878246 0.427891 0.204252
H22   H     H_    0.532004 0.122505 0.572020 0.165939
C57   C     C_R   0.501238 0.871995 0.500809 -0.092287
C58   C     C_R   0.496907 0.128580 0.499144 -0.084079
C59   C     C_R   0.519451 0.941707 0.542108 0.018431
C60   C     C_R   0.478183 0.059524 0.457830 0.020743
H23   H     H_    0.379368 0.583673 0.873455 0.184325
H24   H     H_    0.616111 0.436153 0.126533 0.186218
H25   H     H_    0.378254 0.576481 0.963221 0.140220
H26   H     H_    0.615489 0.428003 0.036825 0.140654
C61   C     C_R   0.454793 0.488775 0.188056 0.558284
C62   C     C_R   0.531773 0.438497 0.812187 0.552641
O15   O     O_2   0.413273 0.494171 0.213793 -0.564098
O16   O     O_2   0.569452 0.393226 0.786534 -0.561850
N3    N     N_R   0.497882 0.480587 0.213746 -0.431327
N4    N     N_R   0.492503 0.483079 0.786415 -0.430268
C63   C     C_R   0.539940 0.468480 0.187434 0.549754
C64   C     C_R   0.452861 0.521647 0.812542 0.540334
C65   C     C_R   0.523540 0.399333 0.297523 -0.186512
C66   C     C_R   0.457342 0.441045 0.700747 -0.250360
C67   C     C_R   0.524384 0.408820 0.350252 -0.031234
C68   C     C_R   0.460844 0.447623 0.648037 -0.053874
C69   C     C_R   0.473712 0.583875 0.347888 0.669382
C70   C     C_R   0.537794 0.541157 0.654976 0.643445
C71   C     C_R   0.474992 0.581776 0.294488 -0.341422
C72   C     C_R   0.533384 0.545999 0.707924 -0.290306
C73   C     C_R   0.498909 0.487114 0.268715 0.296428
C74   C     C_R   0.493831 0.491836 0.731606 0.284005
C75   C     C_R   0.495908 0.475938 0.107468 -0.043595
C76   C     C_R   0.492829 0.476645 0.892614 -0.042909
C77   C     C_R   0.453258 0.490509 0.134778 -0.027821
C78   C     C_R   0.533203 0.438315 0.865392 -0.024533
C79   C     C_R   0.409909 0.505909 0.108363 -0.146445
C80   C     C_R   0.574188 0.400039 0.891780 -0.143039
C81   C     C_R   0.539500 0.462495 0.134160 -0.028680
C82   C     C_R   0.451921 0.516263 0.865843 -0.023876
N5    N     N_R   0.500000 0.499970 0.374520 -0.208698
N6    N     N_R   0.500000 0.500030 0.625480 -0.214087
H27   H     H_    0.457415 0.653017 0.272963 0.164496
H28   H     H_    0.561782 0.587918 0.730683 0.179896
H29   H     H_    0.376358 0.515861 0.128293 0.183684
H30   H     H_    0.605618 0.368360 0.871868 0.184943
C83   C     C_R   0.451270 0.506166 0.973451 0.040105
C84   C     C_R   0.537852 0.451783 0.026613 0.040429
C85   C     C_R   0.536210 0.443527 0.972872 0.040472
C86   C     C_R   0.451257 0.497827 0.027204 0.039939
C87   C     C_R   0.493414 0.475370 0.946510 0.072680
C88   C     C_R   0.494991 0.475081 0.053564 0.073127
C89   C     C_R   0.410713 0.545700 0.945440 -0.203154
C90   C     C_R   0.581124 0.439127 0.054584 -0.203803
C91   C     C_R   0.411268 0.551577 0.892881 -0.146739
C92   C     C_R   0.581892 0.445424 0.107125 -0.143504
O17   O     O_3   0.027887 0.197203 0.556722 -0.594128
C93   C     C_3   0.021630 0.235154 0.607207 -0.279673
H31   H     H_    0.997802 0.316873 0.609786 0.161406
H32   H     H_    0.056797 0.255240 0.626143 0.182206
H33   H     H_    0.004063 0.158723 0.627899 0.179349
O18   O     O_3   0.973630 0.842616 0.503539 -0.593592
C94   C     C_3   0.982825 0.858156 0.555612 -0.264468
H34   H     H_    0.006765 0.784728 0.570327 0.154305
H35   H     H_    0.948789 0.860578 0.577290 0.177228
H36   H     H_    0.001605 0.947951 0.561703 0.221332
H37   H     H_    0.504186 0.040319 0.360878 0.139639
H38   H     H_    0.482765 0.912074 0.633766 0.128475
O19   O     O_3   0.465367 0.132000 0.273033 -0.584399
C95   C     C_3   0.484695 0.013832 0.264156 -0.315158
H39   H     H_    0.462437 0.938810 0.280885 0.155581
H40   H     H_    0.522459 0.010086 0.278037 0.168034
H41   H     H_    0.485319 0.997059 0.222844 0.201058
O20   O     O_3   0.525186 0.853128 0.725626 -0.592067
C96   C     C_3   0.475150 0.830000 0.724609 -0.282582
H42   H     H_    0.465047 0.752723 0.698451 0.158170
H43   H     H_    0.455377 0.915467 0.715062 0.163304
H44   H     H_    0.463940 0.802305 0.762930 0.220758
O21   O     O_3   0.448747 0.673309 0.374402 -0.572139
C97   C     C_3   0.402576 0.692930 0.353535 -0.363047
H45   H     H_    0.384712 0.605484 0.340571 0.169023
H46   H     H_    0.404537 0.760445 0.322334 0.168528
H47   H     H_    0.379660 0.733820 0.383184 0.200431
O22   O     O_3   0.580522 0.576562 0.633176 -0.571976
C98   C     C_3   0.616865 0.493494 0.648176 -0.308761
H48   H     H_    0.607917 0.397363 0.635780 0.176593
H49   H     H_    0.623953 0.496884 0.689475 0.170148
H50   H     H_    0.651152 0.520252 0.630472 0.181997
O23   O     O_3   0.124433 0.184069 0.544669 -0.517755
C99   C     C_3   0.121465 0.090567 0.507293 -0.182394
H51   H     H_    0.137033 0.122108 0.471032 0.144229
H52   H     H_    0.083785 0.057855 0.501257 0.164140
H53   H     H_    0.142698 0.010401 0.520180 0.193927
O24   O     O_3   0.876216 0.844150 0.494496 -0.519937
C100  C     C_3   0.877335 0.896268 0.445935 -0.187080
H54   H     H_    0.860951 0.832856 0.417095 0.149583
H55   H     H_    0.914558 0.922161 0.435038 0.159767
H56   H     H_    0.855859 0.982029 0.446361 0.185792
O25   O     O_3   0.645376 0.354105 0.429335 -0.570592
C101  C     C_3   0.637336 0.236882 0.450588 -0.298892
H57   H     H_    0.615152 0.243148 0.485203 0.138477
H58   H     H_    0.671884 0.189931 0.459013 0.180499
H59   H     H_    0.617087 0.178741 0.422831 0.187611
O26   O     O_3   0.349835 0.503172 0.590984 -0.580214
C102  C     C_3   0.350854 0.624230 0.611077 -0.288175
H60   H     H_    0.313946 0.657776 0.618740 0.161282
H61   H     H_    0.370056 0.689220 0.585722 0.157458
H62   H     H_    0.370825 0.623482 0.647512 0.198291
H63   H     H_    0.739064 0.378982 0.435017 0.168377
H64   H     H_    0.256511 0.500195 0.576338 0.156789

loop_
_geom_bond_atom_site_label_1
_geom_bond_atom_site_label_2
_geom_bond_distance
_ccdc_geom_bond_type
C96   H42   1.113896 S    
C102  H61   1.114034 S    
H10   C65   1.082390 S    
C23   C25   1.412100 A    
H9    C66   1.082374 S    
C3    C29   1.479412 S    
O17   C93   1.409973 S    
C93   H33   1.109205 S    
C4    C30   1.464542 S    
N3    C73   1.458723 S    
C69   C71   1.416904 A    
C31   C37   1.410874 A    
C98   H49   1.110942 S    
C32   C38   1.410951 A    
C22   C28   1.409503 A    
C61   O15   1.349308 S    
C10   C28   1.400021 A    
C71   H27   1.081515 S    
C97   H46   1.110422 S    
O1    C1    1.287115 A    
C26   O24   1.384595 S    
H1    C68   1.078629 S    
O20   C96   1.411635 S    
C17   C19   1.397493 A    
C79   H29   1.083292 S    
C83   C87   1.420413 A    
C80   H30   1.083331 S    
C32   C36   1.420239 A    
C48   C50   1.403650 A    
C1    C58   1.446833 S    
C75   C77   1.406077 A    
C97   H45   1.114642 S    
C56   C58   1.394860 A    
C15   H3    1.081412 S    
C27   C40   1.397836 A    
O24   C100  1.411180 S    
C12   C20   1.403531 A    
C38   C40   1.387543 A    
C57   C59   1.411115 A    
O21   C97   1.411921 S    
O4    Cu1   1.965507 S    
O22   C98   1.416264 S    
C7    N1    1.368202 A    
C9    O14   1.349969 S    
C101  H59   1.109472 S    
N1    C19   1.434451 S    
C63   C81   1.413566 A    
C101  H58   1.113313 S    
O19   C95   1.411686 S    
C72   C74   1.398920 A    
O6    Cu2   1.948840 S    
H26   C90   1.077527 S    
C26   C42   1.405518 A    
C50   H38   1.081826 S    
C94   H35   1.113276 S    
C37   H13   1.078728 S    
C16   C18   1.392801 A    
C18   H6    1.082773 S    
C99   H53   1.109344 S    
H15   C53   1.082856 S    
C21   C27   1.410663 A    
C102  H62   1.109537 S    
C6    C80   1.393422 A    
C39   H11   1.083568 S    
C47   C49   1.405059 A    
O26   C102  1.410336 S    
C83   C89   1.416241 A    
C55   H21   1.083428 S    
C13   C29   1.416940 A    
Cu1   Cu2   2.659823 S    
C75   C81   1.407096 A    
C82   C91   1.400122 A    
C14   C30   1.411106 A    
O2    C2    1.287859 A    
C24   C26   1.412985 A    
O2    Cu2   1.961897 S    
C45   H19   1.083276 S    
C99   H52   1.112423 S    
C45   C47   1.403018 A    
C51   O19   1.391930 S    
C98   H50   1.104709 S    
C70   C72   1.411332 A    
Cu2   N5    1.997652 S    
C71   C73   1.404031 A    
C83   C86   1.429128 A    
C37   C39   1.386774 A    
C16   H4    1.080953 S    
C100  H55   1.111815 S    
C28   C39   1.398019 A    
C76   C82   1.407595 A    
C95   H41   1.109221 S    
C10   O13   1.350189 S    
C42   O18   1.383556 S    
C93   H31   1.113022 S    
C90   C92   1.394282 A    
C84   C88   1.420225 A    
C31   C35   1.420319 A    
N2    C20   1.440937 S    
C100  H56   1.109344 S    
C67   N5    1.363756 A    
C44   C54   1.397612 A    
C46   C48   1.399852 A    
C21   C36   1.418996 A    
C49   H37   1.081774 S    
C52   O20   1.394531 S    
C95   H40   1.110686 S    
N4    C74   1.458256 S    
O5    C3    1.291170 A    
O7    Cu2   1.952917 S    
C2    C57   1.450056 S    
C101  H57   1.113484 S    
H2    C67   1.081369 S    
O7    C3    1.294464 A    
C44   C46   1.395360 A    
C52   C54   1.402162 A    
C98   H48   1.113613 S    
C68   N6    1.368762 A    
C43   C45   1.395522 A    
O6    C4    1.284505 A    
C11   H64   1.083280 S    
H23   C91   1.083283 S    
C43   H17   1.080995 S    
C40   H12   1.083526 S    
C25   O23   1.384388 S    
C94   H36   1.108698 S    
C56   H22   1.085631 S    
C48   C59   1.475763 S    
C44   H18   1.082375 S    
C55   C60   1.388931 A    
C70   O22   1.379562 S    
C81   C92   1.399583 A    
O3    Cu2   1.965509 S    
O8    C4    1.293115 A    
H16   C54   1.082735 S    
C7    C23   1.413115 A    
O4    C2    1.283111 A    
C50   C52   1.417878 A    
C9    C27   1.400660 A    
C34   C41   1.422458 A    
C96   H44   1.109135 S    
C46   H20   1.083283 S    
C33   C35   1.414798 A    
C17   H5    1.082842 S    
C41   O17   1.382898 S    
C8    O12   1.348798 S    
C76   C87   1.429345 A    
O1    Cu1   1.961897 S    
C18   C20   1.402806 A    
C55   C57   1.400487 A    
C99   H51   1.113814 S    
C76   C78   1.405750 A    
C62   N4    1.376359 A    
C31   C34   1.421507 A    
O25   C101  1.410098 S    
C89   C91   1.396059 A    
C61   N3    1.376471 A    
C32   C33   1.421771 A    
C43   C53   1.396252 A    
C78   C80   1.399733 A    
C22   C35   1.419024 A    
N2    C10   1.368249 A    
O9    C64   1.348829 S    
C5    C79   1.395185 A    
C93   H32   1.113409 S    
C22   C24   1.411851 A    
O3    C1    1.281769 A    
O8    Cu1   1.952914 S    
H25   C89   1.077544 S    
C13   O26   1.381775 S    
C66   C68   1.404635 A    
C86   C88   1.421441 A    
O23   C99   1.411583 S    
N1    C9    1.365419 A    
C62   C78   1.411089 A    
C16   C30   1.399104 A    
C58   C60   1.412719 A    
C61   C77   1.413343 A    
C95   H39   1.114464 S    
C7    O11   1.349020 S    
C11   C13   1.399801 A    
C47   C60   1.483985 S    
C84   C90   1.415698 A    
H24   C92   1.083309 S    
C12   C14   1.398350 A    
C85   C87   1.421255 A    
C6    H8    1.077560 S    
C100  H54   1.113877 S    
C8    C24   1.414221 A    
C62   O16   1.349569 S    
C56   C59   1.383241 A    
C15   C29   1.407147 A    
N3    C63   1.375386 A    
C75   C88   1.429367 A    
C38   H14   1.078632 S    
C15   C17   1.393236 A    
Cu1   N6    1.997652 S    
C34   C36   1.414977 A    
C14   O25   1.382364 S    
C12   H63   1.083113 S    
C5    C86   1.415390 A    
C72   H28   1.082531 S    
C6    C85   1.414885 A    
C69   N5    1.368608 A    
N4    C64   1.375121 A    
C33   C42   1.422606 A    
C70   N6    1.371867 A    
C84   C85   1.427346 A    
C102  H60   1.112702 S    
C66   C74   1.401840 A    
C69   O21   1.387890 S    
O5    Cu1   1.948840 S    
C65   C73   1.404203 A    
O18   C94   1.409971 S    
C21   C23   1.412634 A    
C96   H43   1.111162 S    
C51   C53   1.400536 A    
C8    N2    1.370968 A    
C11   C19   1.397910 A    
C77   C79   1.400332 A    
C49   C51   1.416283 A    
C64   C82   1.415697 A    
C94   H34   1.113033 S    
C25   C41   1.404125 A    
C5    H7    1.077576 S    
O10   C63   1.349021 S    
C65   C67   1.401094 A    
C97   H47   1.109398 S    
