data_mof_unit_27704.cif
_audit_creation_date              2012-12-11T17:17:10-0500
_audit_creation_method            fapswitch 2.2
_symmetry_space_group_name_H-M    P1
_symmetry_Int_Tables_number       1
_space_group_crystal_system       triclinic
_cell_length_a                    6.94349
_cell_length_b                    13.373366
_cell_length_c                    14.667679
_cell_angle_alpha                 98.825031
_cell_angle_beta                  89.746576
_cell_angle_gamma                 90.324584
_cell_volume                      1345.85437904

loop_
_atom_site_label
_atom_site_type_symbol
_atom_type_description
_atom_site_fract_x
_atom_site_fract_y
_atom_site_fract_z
_atom_type_partial_charge
O1    O     O_R   0.354890 0.151580 0.148210 -0.534778
O2    O     O_R   0.645110 0.848420 0.851790 -0.534778
O3    O     O_R   0.682370 0.152980 0.336770 -0.542419
O4    O     O_R   0.317630 0.847020 0.663230 -0.542418
O5    O     O_R   0.854980 0.348430 0.351800 -0.535494
O6    O     O_R   0.145020 0.651570 0.648200 -0.535494
C1    C     C_R   0.513250 0.131293 0.366416 0.676985
C2    C     C_R   0.486750 0.868707 0.633584 0.676985
O7    O     O_R   0.684450 0.139580 0.148000 -0.538267
O8    O     O_R   0.315550 0.860420 0.852000 -0.538267
O9    O     O_R   0.857080 0.334940 0.161680 -0.538801
O10   O     O_R   0.142920 0.665060 0.838320 -0.538801
C3    C     C_R   0.515541 0.112686 0.114022 0.733187
C4    C     C_R   0.484459 0.887314 0.885977 0.733187
O11   O     O_R   0.352790 0.165070 0.338330 -0.540544
O12   O     O_R   0.647210 0.834930 0.661670 -0.540544
O13   O     O_3   0.522170 0.314120 0.254710 -0.368519
O14   O     O_3   0.477830 0.685880 0.745290 -0.368519
V1    V     V_3+5 0.796120 0.238110 0.249130 1.410101
V2    V     V_3+5 0.203880 0.761890 0.750870 1.410101
O15   O     O_R   0.186930 0.347040 0.163240 -0.543534
O16   O     O_R   0.813070 0.652960 0.836760 -0.543534
C5    C     C_R   0.018668 0.368781 0.133590 0.676804
C6    C     C_R   0.981332 0.631219 0.866410 0.676804
O17   O     O_R   0.184850 0.360440 0.352010 -0.537748
O18   O     O_R   0.815150 0.639560 0.647990 -0.537748
C7    C     C_R   0.015814 0.387326 0.385984 0.732365
C8    C     C_R   0.984185 0.612674 0.614016 0.732365
V3    V     V_3+5 0.296410 0.261900 0.250880 1.411244
V4    V     V_3+5 0.703590 0.738100 0.749120 1.411244
O19   O     O_3   0.020490 0.185890 0.245290 -0.368658
O20   O     O_3   0.979510 0.814110 0.754710 -0.368658
C9    C     C_1   0.005127 0.466907 0.466343 -0.196232
C10   C     C_1   0.994873 0.533092 0.533657 -0.196232
C11   C     C_3   0.078958 0.589802 0.033768 -0.142257
C12   C     C_3   0.921042 0.410197 0.966232 -0.142257
C13   C     C_3   0.903861 0.540859 0.076175 -0.142674
C14   C     C_3   0.096139 0.459141 0.923825 -0.142674
H1    H     H_    0.824727 0.574127 0.139430 0.099502
H2    H     H_    0.175272 0.425873 0.860570 0.099502
H3    H     H_    0.144084 0.664313 0.061137 0.098994
H4    H     H_    0.855916 0.335687 0.938863 0.098994
C15   C     C_3   0.009958 0.438893 0.062736 -0.004421
C16   C     C_3   0.990042 0.561107 0.937264 -0.004421
C17   C     C_3   0.185248 0.487022 0.021131 -0.115506
C18   C     C_3   0.814752 0.512978 0.978869 -0.115506
H5    H     H_    0.338132 0.476085 0.038944 0.106318
H6    H     H_    0.661868 0.523914 0.961056 0.106318
C19   C     C_3   0.319248 0.025946 0.481567 -0.115955
C20   C     C_3   0.680752 0.974054 0.518433 -0.115954
C21   C     C_3   0.398383 0.916553 0.467670 -0.141935
C22   C     C_3   0.601616 0.083447 0.532330 -0.141935
H7    H     H_    0.170059 0.047479 0.466099 0.108666
H8    H     H_    0.829941 0.952521 0.533901 0.108666
C23   C     C_3   0.495976 0.938735 0.562733 -0.004350
C24   C     C_3   0.504024 0.061265 0.437266 -0.004350
C25   C     C_3   0.416801 0.047300 0.577440 -0.143055
C26   C     C_3   0.583199 0.952700 0.422560 -0.143055
C27   C     C_1   0.504948 0.033100 0.033660 -0.196379
C28   C     C_1   0.495052 0.966900 0.966340 -0.196379
H9    H     H_    0.314593 0.847214 0.441491 0.098568
H10   H     H_    0.685407 0.152786 0.558509 0.098568
H11   H     H_    0.348442 0.085876 0.641812 0.098791
H12   H     H_    0.651558 0.914124 0.358188 0.098791

loop_
_geom_bond_atom_site_label_1
_geom_bond_atom_site_label_2
_ccdc_geom_bond_type
C14   H2    S    
O13   V3    S    
C12   H4    S    
C21   H9    S    
O4    C2    A    
V1    O19   S    
C5    C15   S    
C7    C9    S    
O9    V1    S    
C20   H8    S    
C11   C13   S    
O3    C1    A    
O12   V4    S    
C19   C25   S    
O7    C3    A    
C14   C17   S    
O5    C7    A    
O7    V1    S    
O6    C8    A    
O8    V2    S    
C19   C21   S    
C20   C22   S    
O3    V1    S    
O14   V4    S    
C21   C23   S    
C1    O11   A    
C8    C10   S    
C27   C28   T    
C2    O12   A    
O17   V3    S    
C1    C24   S    
O2    C4    A    
C2    C23   S    
C16   C18   S    
O11   V3    S    
C17   H5    S    
C26   H12   S    
C18   H6    S    
C20   C26   S    
O8    C4    A    
O15   V3    S    
C13   C15   S    
C14   C16   S    
O10   V2    S    
O1    V3    S    
C9    C10   T    
C21   C26   S    
C12   C18   S    
C11   C16   S    
C15   C17   S    
O5    V1    S    
O18   V4    S    
C23   C25   S    
C6    C16   S    
O16   C6    A    
O1    C3    A    
C12   C14   S    
C11   C17   S    
C4    C28   S    
V2    O20   S    
O16   V4    S    
C25   H11   S    
C3    C27   S    
O17   C7    A    
C19   C24   S    
O6    V2    S    
O10   C6    A    
O18   C8    A    
C20   C23   S    
O2    V4    S    
O15   C5    A    
V3    O19   S    
C22   H10   S    
V4    O20   S    
C19   H7    S    
O9    C5    A    
O13   V1    S    
C24   C26   S    
O14   V2    S    
C11   H3    S    
C22   C25   S    
O4    V2    S    
C13   H1    S    
C12   C15   S    
C13   C18   S    
C22   C24   S    
