data_mof_unit_64473.cif
_audit_creation_date              2012-12-10T19:51:52-0500
_audit_creation_method            fapswitch 2.2
_symmetry_space_group_name_H-M    P1
_symmetry_Int_Tables_number       1
_space_group_crystal_system       triclinic
_cell_length_a                    26.051287
_cell_length_b                    26.016621
_cell_length_c                    22.221741
_cell_angle_alpha                 89.999856
_cell_angle_beta                  125.944419
_cell_angle_gamma                 90.000043
_cell_volume                      12193.3089441

loop_
_atom_site_label
_atom_site_type_symbol
_atom_type_description
_atom_site_fract_x
_atom_site_fract_y
_atom_site_fract_z
_atom_type_partial_charge
C1    C     C_R   0.650296 0.749975 0.300631 0.826203
C2    C     C_R   0.650297 0.250026 0.300631 0.826306
C3    C     C_R   0.150297 0.249974 0.300631 0.826287
C4    C     C_R   0.150297 0.750026 0.300631 0.826284
C5    C     C_3   0.646158 0.470788 0.474996 -0.455264
C6    C     C_3   0.646158 0.529212 0.474996 -0.455222
C7    C     C_3   0.146174 0.970788 0.475042 -0.455239
C8    C     C_3   0.146175 0.029213 0.475042 -0.455210
C9    C     C_3   0.510539 0.201320 0.024900 -0.187095
C10   C     C_3   0.506130 0.798325 0.024889 -0.187704
C11   C     C_3   0.012005 0.701284 0.024903 -0.186482
C12   C     C_3   0.011148 0.298697 0.024900 -0.186726
C13   C     C_3   0.944970 0.725829 0.975152 -0.257460
C14   C     C_3   0.944558 0.273415 0.975150 -0.257547
C15   C     C_3   0.444267 0.227123 0.975148 -0.257837
C16   C     C_3   0.442366 0.768864 0.975136 -0.256803
C17   C     C_1   0.889337 0.749905 0.778802 -0.102671
C18   C     C_1   0.889337 0.250094 0.778802 -0.102619
C19   C     C_1   0.389337 0.249906 0.778802 -0.102592
C20   C     C_1   0.389338 0.750092 0.778801 -0.102603
C21   C     C_1   0.610577 0.250054 0.221220 -0.091140
C22   C     C_1   0.610574 0.749952 0.221220 -0.091158
C23   C     C_1   0.110578 0.750056 0.221220 -0.091390
C24   C     C_1   0.110578 0.249945 0.221220 -0.091283
C25   C     C_3   0.029517 0.725399 0.975249 -0.179058
C26   C     C_3   0.029075 0.275334 0.975249 -0.178690
C27   C     C_3   0.528757 0.224146 0.975250 -0.178528
C28   C     C_3   0.526250 0.779500 0.975250 -0.178881
C29   C     C_3   0.963158 0.749961 0.926745 0.034660
C30   C     C_3   0.963159 0.250037 0.926745 0.034548
C31   C     C_3   0.463160 0.249964 0.926745 0.034398
C32   C     C_3   0.463163 0.750029 0.926745 0.034563
C33   C     C_3   0.555481 0.272959 0.024891 -0.248001
C34   C     C_3   0.557391 0.731058 0.024901 -0.248019
C35   C     C_3   0.054773 0.774253 0.024887 -0.249039
C36   C     C_3   0.055189 0.226502 0.024889 -0.248640
C37   C     C_3   0.536600 0.250100 0.073291 0.034539
C38   C     C_3   0.536604 0.749913 0.073290 0.034377
C39   C     C_3   0.036598 0.750103 0.073291 0.034788
C40   C     C_3   0.036600 0.249899 0.073291 0.034628
C41   C     C_3   0.987886 0.798276 0.975424 0.395197
C42   C     C_3   0.988738 0.201742 0.975426 0.395127
C43   C     C_3   0.489342 0.298241 0.975427 0.395154
C44   C     C_3   0.493712 0.702116 0.975437 0.394846
C45   C     C_R   0.849661 0.749961 0.699380 0.810651
C46   C     C_R   0.849661 0.250038 0.699380 0.810719
C47   C     C_R   0.349662 0.249962 0.699380 0.810826
C48   C     C_R   0.349662 0.750038 0.699379 0.811210
C49   C     C_3   0.471292 0.275652 0.024513 0.402402
C50   C     C_3   0.473779 0.720746 0.024511 0.402956
C51   C     C_3   0.970535 0.774411 0.024514 0.402370
C52   C     C_3   0.970977 0.224862 0.024514 0.402477
C53   C     C_1   0.922670 0.749897 0.845603 0.036850
C54   C     C_1   0.922671 0.250101 0.845603 0.037006
C55   C     C_1   0.422671 0.249899 0.845602 0.036995
C56   C     C_1   0.422672 0.750096 0.845602 0.037171
C57   C     C_1   0.577184 0.250067 0.154425 0.045462
C58   C     C_1   0.577181 0.749944 0.154425 0.045347
C59   C     C_1   0.077184 0.750070 0.154425 0.045108
C60   C     C_1   0.077185 0.249932 0.154425 0.045289
C61   C     C_R   0.505381 0.715457 0.459304 0.086295
C62   C     C_R   0.505362 0.284522 0.459265 0.086242
C63   C     C_R   0.005349 0.215490 0.459239 0.086212
C64   C     C_R   0.005344 0.784503 0.459229 0.086235
C65   C     C_R   0.554404 0.750652 0.500010 -0.089853
C66   C     C_R   0.554407 0.249351 0.500016 -0.089763
C67   C     C_R   0.054410 0.250644 0.500022 -0.089716
C68   C     C_R   0.054410 0.749356 0.500023 -0.089596
C69   C     C_R   0.547841 0.787655 0.541635 -0.193909
C70   C     C_R   0.547869 0.212377 0.541693 -0.194051
C71   C     C_R   0.047893 0.287597 0.541739 -0.194140
C72   C     C_R   0.047900 0.712411 0.541753 -0.194547
C73   C     C_R   0.493815 0.787843 0.541558 -0.173878
C74   C     C_R   0.493844 0.212189 0.541616 -0.174140
C75   C     C_R   0.993867 0.287786 0.541662 -0.174218
C76   C     C_R   0.993875 0.712222 0.541677 -0.174452
C77   C     C_R   0.445311 0.751125 0.499666 -0.055308
C78   C     C_R   0.445314 0.248879 0.499672 -0.055206
C79   C     C_R   0.945318 0.251117 0.499678 -0.055149
C80   C     C_R   0.945319 0.748884 0.499681 -0.055035
C81   C     C_R   0.453234 0.715987 0.458798 0.011599
C82   C     C_R   0.453215 0.283991 0.458760 0.011594
C83   C     C_R   0.953202 0.216022 0.458734 0.011575
C84   C     C_R   0.953198 0.783973 0.458726 0.011576
C85   C     C_3   0.424064 0.670038 0.409828 -0.476072
C86   C     C_3   0.424002 0.329895 0.409703 -0.475895
C87   C     C_3   0.923953 0.170152 0.409607 -0.475795
C88   C     C_3   0.923939 0.829830 0.409578 -0.475738
C89   C     C_R   0.889920 0.749831 0.499928 0.825718
C90   C     C_R   0.889920 0.250169 0.499927 0.825705
C91   C     C_R   0.389920 0.249831 0.499927 0.825725
C92   C     C_R   0.389920 0.750169 0.499927 0.825884
C93   C     C_3   0.483685 0.669076 0.410420 0.537763
C94   C     C_3   0.483622 0.330856 0.410292 0.537594
C95   C     C_3   0.983572 0.169188 0.410195 0.537725
C96   C     C_3   0.983556 0.830791 0.410162 0.537724
C97   C     C_R   0.761588 0.974079 0.457209 0.125674
C98   C     C_R   0.761588 0.025922 0.457209 0.125715
C99   C     C_R   0.261595 0.474079 0.457215 0.125886
C100  C     C_R   0.261595 0.525922 0.457215 0.125917
C101  C     C_R   0.749566 0.945527 0.500424 -0.085673
C102  C     C_R   0.749566 0.054473 0.500424 -0.085671
C103  C     C_R   0.249567 0.445526 0.500425 -0.085549
C104  C     C_R   0.249567 0.554473 0.500425 -0.085516
C105  C     C_R   0.736860 0.972985 0.545190 -0.193918
C106  C     C_R   0.736860 0.027015 0.545190 -0.193883
C107  C     C_R   0.236858 0.472985 0.545188 -0.193587
C108  C     C_R   0.236857 0.527015 0.545188 -0.193612
C109  C     C_3   0.777998 0.029612 0.403453 -0.457104
C110  C     C_3   0.777998 0.970389 0.403453 -0.457087
C111  C     C_3   0.278010 0.529612 0.403463 -0.457112
C112  C     C_3   0.278010 0.470389 0.403463 -0.457066
C113  C     C_R   0.610032 0.749921 0.500108 0.818537
C114  C     C_R   0.610032 0.250079 0.500108 0.818712
C115  C     C_R   0.110032 0.249920 0.500108 0.818780
C116  C     C_R   0.110032 0.750079 0.500108 0.818748
C117  C     C_R   0.749981 0.889955 0.500055 0.814008
C118  C     C_R   0.749981 0.110045 0.500055 0.814234
C119  C     C_R   0.249982 0.389955 0.500055 0.814545
C120  C     C_R   0.249981 0.610045 0.500055 0.814860
C121  C     C_R   0.750332 0.609828 0.498674 0.869667
C122  C     C_R   0.750332 0.390172 0.498674 0.869486
C123  C     C_R   0.250332 0.109828 0.498675 0.869246
C124  C     C_R   0.250332 0.890172 0.498675 0.869086
C125  C     C_R   0.695602 0.526382 0.461109 0.115928
C126  C     C_R   0.695602 0.473618 0.461109 0.115654
C127  C     C_R   0.195604 0.026382 0.461132 0.115192
C128  C     C_R   0.195604 0.973618 0.461132 0.115150
C129  C     C_R   0.751433 0.554141 0.491551 -0.250498
C130  C     C_R   0.751433 0.445859 0.491550 -0.250506
C131  C     C_R   0.251433 0.054141 0.491557 -0.250406
C132  C     C_R   0.251433 0.945859 0.491557 -0.250381
C133  C     C_R   0.806184 0.527168 0.509623 0.323771
C134  C     C_R   0.806184 0.472832 0.509623 0.323698
C135  C     C_R   0.306181 0.027168 0.509618 0.323522
C136  C     C_R   0.306181 0.972832 0.509619 0.323477
H1    H     H_    0.584207 0.816306 0.574309 0.189288
H2    H     H_    0.584255 0.183748 0.574406 0.189216
H3    H     H_    0.084292 0.316212 0.574482 0.189132
H4    H     H_    0.084304 0.683802 0.574506 0.188926
H5    H     H_    0.490287 0.816549 0.574268 0.201464
H6    H     H_    0.490335 0.183505 0.574365 0.201367
H7    H     H_    0.990375 0.316455 0.574439 0.201280
H8    H     H_    0.990387 0.683559 0.574464 0.201165
H9    H     H_    0.420135 0.637199 0.438954 0.183890
H10   H     H_    0.420041 0.362760 0.438767 0.183793
H11   H     H_    0.919966 0.137265 0.438621 0.183656
H12   H     H_    0.919947 0.862723 0.438577 0.183604
H13   H     H_    0.379460 0.679857 0.355093 0.232831
H14   H     H_    0.379408 0.320026 0.354989 0.233063
H15   H     H_    0.879365 0.180060 0.354904 0.233178
H16   H     H_    0.879354 0.819910 0.354884 0.233301
H17   H     H_    0.726980 0.953011 0.580107 0.191652
H18   H     H_    0.726980 0.046989 0.580108 0.191623
H19   H     H_    0.226974 0.453011 0.580102 0.191468
H20   H     H_    0.226974 0.546989 0.580102 0.191338
H21   H     H_    0.739007 0.046713 0.349571 0.215768
H22   H     H_    0.739007 0.953288 0.349571 0.215769
H23   H     H_    0.239021 0.546713 0.349581 0.215762
H24   H     H_    0.239021 0.453288 0.349581 0.215792
H25   H     H_    0.825693 0.046685 0.428915 0.206340
H26   H     H_    0.825693 0.953316 0.428914 0.206339
H27   H     H_    0.325705 0.546685 0.428930 0.206478
H28   H     H_    0.325705 0.453316 0.428929 0.206449
H29   H     H_    0.601127 0.454219 0.426810 0.232212
H30   H     H_    0.601128 0.545781 0.426810 0.232321
H31   H     H_    0.101138 0.954221 0.426863 0.231970
H32   H     H_    0.101139 0.045782 0.426864 0.231992
H33   H     H_    0.664151 0.453701 0.529955 0.191535
H34   H     H_    0.664151 0.546299 0.529955 0.191521
H35   H     H_    0.164179 0.953701 0.530004 0.191382
H36   H     H_    0.164180 0.046300 0.530004 0.191411
H37   H     H_    0.899511 0.706172 0.954108 0.183931
H38   H     H_    0.898761 0.292450 0.954103 0.183853
H39   H     H_    0.398234 0.208531 0.954100 0.183624
H40   H     H_    0.394789 0.784154 0.954080 0.183900
H41   H     H_    0.519884 0.161314 0.046266 0.170468
H42   H     H_    0.511849 0.838047 0.046247 0.170287
H43   H     H_    0.022555 0.661253 0.046273 0.170632
H44   H     H_    0.020994 0.338715 0.046267 0.170661
H45   H     H_    0.601303 0.291949 0.045940 0.190302
H46   H     H_    0.604793 0.715351 0.045959 0.190502
H47   H     H_    0.100009 0.794302 0.045933 0.189474
H48   H     H_    0.100770 0.207071 0.045938 0.189857
H49   H     H_    0.053331 0.705063 0.953979 0.176981
H50   H     H_    0.052522 0.296272 0.953978 0.177372
H51   H     H_    0.551941 0.202782 0.953979 0.177522
H52   H     H_    0.547364 0.803849 0.953980 0.177431
O1    O     O_3   0.749980 0.749980 0.500000 -0.505533
O2    O     O_3   0.749980 0.250020 0.500000 -0.505511
O3    O     O_3   0.249980 0.249980 0.500000 -0.505483
O4    O     O_3   0.249980 0.750020 0.500000 -0.505423
O5    O     O_R   0.887330 0.719620 0.543100 -0.627474
O6    O     O_R   0.887330 0.280380 0.543100 -0.627381
O7    O     O_R   0.387330 0.219620 0.543100 -0.627308
O8    O     O_R   0.387330 0.780380 0.543100 -0.627148
O9    O     O_R   0.612630 0.719620 0.456900 -0.617221
O10   O     O_R   0.612630 0.280380 0.456900 -0.617189
O11   O     O_R   0.112630 0.219620 0.456900 -0.617183
O12   O     O_R   0.112630 0.780380 0.456900 -0.617134
O13   O     O_R   0.698160 0.780350 0.335610 -0.645102
O14   O     O_R   0.698160 0.219650 0.335610 -0.645169
O15   O     O_R   0.198160 0.280350 0.335610 -0.645180
O16   O     O_R   0.198160 0.719650 0.335610 -0.645299
O17   O     O_R   0.801810 0.780340 0.664390 -0.624300
O18   O     O_R   0.801810 0.219660 0.664390 -0.624535
O19   O     O_R   0.301810 0.280340 0.664390 -0.624705
O20   O     O_R   0.301810 0.719660 0.664390 -0.625473
O21   O     O_R   0.637440 0.719620 0.335610 -0.593264
O22   O     O_R   0.637440 0.280380 0.335610 -0.593327
O23   O     O_R   0.137440 0.219620 0.335610 -0.593431
O24   O     O_R   0.137440 0.780380 0.335610 -0.593419
O25   O     O_R   0.862520 0.719620 0.664390 -0.634972
O26   O     O_R   0.862520 0.280380 0.664390 -0.634781
O27   O     O_R   0.362520 0.219620 0.664390 -0.634651
O28   O     O_R   0.362520 0.780380 0.664390 -0.634245
O29   O     O_R   0.844240 0.780350 0.456900 -0.643168
O30   O     O_R   0.844240 0.219650 0.456900 -0.643254
O31   O     O_R   0.344240 0.280350 0.456900 -0.643292
O32   O     O_R   0.344240 0.719650 0.456900 -0.643355
O33   O     O_R   0.655730 0.780340 0.543100 -0.649764
O34   O     O_R   0.655730 0.219660 0.543100 -0.649847
O35   O     O_R   0.155730 0.280340 0.543100 -0.649927
O36   O     O_R   0.155730 0.719660 0.543100 -0.650167
O37   O     O_R   0.758800 0.865790 0.456890 -0.645438
O38   O     O_R   0.758800 0.134210 0.456890 -0.645377
O39   O     O_R   0.258800 0.365790 0.456890 -0.645324
O40   O     O_R   0.258800 0.634210 0.456890 -0.645276
O41   O     O_R   0.698070 0.634180 0.456910 -0.642727
O42   O     O_R   0.698070 0.365820 0.456910 -0.642987
O43   O     O_R   0.198070 0.134180 0.456910 -0.643173
O44   O     O_R   0.198070 0.865820 0.456910 -0.643247
O45   O     O_R   0.741170 0.865780 0.543090 -0.640204
O46   O     O_R   0.741170 0.134220 0.543090 -0.640180
O47   O     O_R   0.241170 0.365780 0.543090 -0.640142
O48   O     O_R   0.241170 0.634220 0.543090 -0.640158
O49   O     O_R   0.801880 0.634180 0.543110 -0.590467
O50   O     O_R   0.801880 0.365820 0.543110 -0.590445
O51   O     O_R   0.301880 0.134180 0.543110 -0.590431
O52   O     O_R   0.301880 0.865820 0.543110 -0.590497
Zn1   Zn    Zn3+2 0.824140 0.706600 0.561580 1.023007
Zn2   Zn    Zn3+2 0.824140 0.293400 0.561580 1.023103
Zn3   Zn    Zn3+2 0.324140 0.206600 0.561580 1.023157
Zn4   Zn    Zn3+2 0.324140 0.793400 0.561580 1.023482
Zn5   Zn    Zn3+2 0.762580 0.793360 0.438420 0.977530
Zn6   Zn    Zn3+2 0.762580 0.206640 0.438420 0.977559
Zn7   Zn    Zn3+2 0.262580 0.293360 0.438420 0.977652
Zn8   Zn    Zn3+2 0.262580 0.706640 0.438420 0.977713
Zn9   Zn    Zn3+2 0.737390 0.793360 0.561570 0.988274
Zn10  Zn    Zn3+2 0.737390 0.206640 0.561570 0.988265
Zn11  Zn    Zn3+2 0.237390 0.293360 0.561570 0.988279
Zn12  Zn    Zn3+2 0.237390 0.706640 0.561570 0.987817
Zn13  Zn    Zn3+2 0.675820 0.706600 0.438430 1.026015
Zn14  Zn    Zn3+2 0.675820 0.293400 0.438430 1.025856
Zn15  Zn    Zn3+2 0.175820 0.206600 0.438430 1.025572
Zn16  Zn    Zn3+2 0.175820 0.793400 0.438430 1.025464
Cl1   Cl    Cl    0.874774 0.560060 0.531729 -0.498513
Cl2   Cl    Cl    0.874774 0.439939 0.531729 -0.498585
Cl3   Cl    Cl    0.374767 0.060061 0.531712 -0.498955
Cl4   Cl    Cl    0.374767 0.939939 0.531714 -0.499063
C137  C     C_3   0.526029 0.621986 0.448881 -0.887733
H53   H     H_    0.501993 0.587274 0.414342 0.257809
H54   H     H_    0.571599 0.627274 0.456132 0.261995
H55   H     H_    0.536281 0.615853 0.504472 0.209623
C138  C     C_3   0.525919 0.377980 0.448658 -0.888234
H56   H     H_    0.501848 0.412661 0.414054 0.257881
H57   H     H_    0.536166 0.384165 0.504238 0.209574
H58   H     H_    0.571492 0.372701 0.455916 0.262044
C139  C     C_3   0.025833 0.122034 0.448491 -0.888688
H59   H     H_    0.001736 0.087377 0.413827 0.257884
H60   H     H_    0.071415 0.127312 0.455766 0.262101
H61   H     H_    0.036071 0.115803 0.504062 0.209368
C140  C     C_3   0.025807 0.877953 0.448430 -0.889018
H62   H     H_    0.001698 0.912600 0.413756 0.257937
H63   H     H_    0.036052 0.884192 0.504000 0.209311
H64   H     H_    0.071382 0.872681 0.455692 0.262138
Cl5   Cl    Cl    0.467511 0.682694 0.321983 -0.516542
Cl6   Cl    Cl    0.467461 0.317155 0.321883 -0.513738
Cl7   Cl    Cl    0.967416 0.182951 0.321801 -0.513182
Cl8   Cl    Cl    0.967404 0.817004 0.321778 -0.512451
Cl9   Cl    Cl    0.433491 0.309871 0.057939 -0.472865
Cl10  Cl    Cl    0.439290 0.681717 0.057932 -0.471778
Cl11  Cl    Cl    0.931726 0.806975 0.057942 -0.472750
Cl12  Cl    Cl    0.932755 0.191329 0.057942 -0.472906
Cl13  Cl    Cl    0.971528 0.862708 0.941938 -0.494407
Cl14  Cl    Cl    0.973514 0.137334 0.941945 -0.494829
Cl15  Cl    Cl    0.474923 0.362626 0.941945 -0.493120
Cl16  Cl    Cl    0.485127 0.638200 0.941971 -0.495908

loop_
_geom_bond_atom_site_label_1
_geom_bond_atom_site_label_2
_ccdc_geom_bond_type
C99   C103  A    
O3    Zn7   S    
C36   C42   S    
C2    O14   A    
C104  C108  A    
O46   Zn10  S    
C6    H30   S    
C13   H37   S    
O29   Zn5   S    
C5    C6    S    
C35   H47   S    
C100  C104  A    
C140  H64   S    
C64   C84   A    
C79   C90   S    
C8    H32   S    
O21   Zn13  S    
C13   C51   S    
C14   C52   S    
O4    Zn16  S    
C5    C126  S    
C70   C74   A    
C45   O25   A    
C7    C128  S    
C93   C137  S    
O32   Zn8   S    
C98   C109  S    
O37   Zn5   S    
C130  C134  A    
C41   Cl13  S    
C25   C29   S    
C112  H28   S    
O13   Zn5   S    
C27   C31   S    
C96   Cl8   S    
C28   C32   S    
C121  C129  S    
C4    C23   S    
C98   C102  A    
C33   C43   S    
C12   C40   S    
C52   Cl12  S    
C91   O7    A    
C78   C82   A    
C68   C72   A    
C89   O5    A    
C48   O20   A    
C88   H12   S    
C111  H27   S    
C27   H51   S    
C113  O33   A    
C42   Cl14  S    
C25   H49   S    
C68   C116  S    
C129  C133  A    
C76   H8    S    
C119  O47   A    
C70   H2    S    
C139  H60   S    
O1    Zn1   S    
C10   C28   S    
C11   H43   S    
C9    H41   S    
C103  C107  A    
C13   C29   S    
C112  H24   S    
C65   C113  S    
C84   C88   S    
C6    C125  S    
C92   O8    A    
C22   C58   T    
C10   C38   S    
O26   Zn2   S    
C9    C15   S    
O3    Zn3   S    
C10   C16   S    
C11   C13   S    
O11   Zn15  S    
C66   C70   A    
C15   C49   S    
O18   Zn10  S    
C127  C131  A    
C61   C65   A    
C100  C111  S    
C73   C77   A    
O1    Zn13  S    
C75   C79   A    
C41   C51   S    
C107  H19   S    
C42   C52   S    
C39   C51   S    
C40   C60   S    
C111  C112  S    
O52   Zn4   S    
C20   C56   T    
C109  H21   S    
C97   C98   A    
C110  H26   S    
C7    C8    S    
C118  O38   A    
C23   C59   T    
C30   C54   S    
C31   C43   S    
C64   C68   A    
C17   C45   S    
C86   H14   S    
C137  H53   S    
C19   C47   S    
C11   C25   S    
C124  C132  S    
O20   Zn12  S    
C44   C50   S    
C85   C93   S    
C87   C95   S    
O3    Zn11  S    
C107  C108  A    
O10   Zn14  S    
C1    C22   S    
C3    C24   S    
O48   Zn12  S    
C123  O51   A    
C3    O23   A    
O35   Zn11  S    
O2    Zn6   S    
C101  C105  A    
C121  O41   A    
C62   C66   A    
C1    O21   A    
C64   C96   S    
O4    Zn12  S    
C115  O11   A    
C12   C26   S    
C136  Cl4   S    
C125  C129  A    
C94   Cl6   S    
C117  O45   A    
C132  C136  A    
C138  H57   S    
O12   Zn16  S    
O34   Zn10  S    
C12   H44   S    
C26   C30   S    
C6    H34   S    
C46   O18   A    
C94   C138  S    
O7    Zn3   S    
C29   C41   S    
O5    Zn1   S    
C76   C80   A    
C137  H55   S    
O51   Zn3   S    
C15   C31   S    
O40   Zn8   S    
C16   C32   S    
C135  Cl3   S    
O4    Zn8   S    
O49   Zn1   S    
C61   C81   A    
C26   H50   S    
C122  O50   A    
C49   Cl9   S    
C140  H63   S    
C35   C41   S    
C44   Cl16  S    
C37   C57   S    
C90   O30   A    
O36   Zn12  S    
O39   Zn7   S    
C72   H4    S    
O15   Zn7   S    
C114  O10   A    
O19   Zn11  S    
C81   C85   S    
O28   Zn4   S    
C83   C87   S    
C88   C96   S    
C7    H35   S    
C3    O15   A    
C105  H17   S    
C80   C84   A    
C1    O13   A    
O45   Zn9   S    
C135  C136  A    
C73   H5    S    
C87   H11   S    
C50   Cl10  S    
C115  O35   A    
C16   C50   S    
C28   H52   S    
C124  O52   A    
C61   C93   S    
C126  C130  A    
C63   C95   S    
O1    Zn9   S    
C80   C89   S    
C111  H23   S    
C7    H31   S    
C38   C58   S    
C106  H18   S    
C47   O27   A    
C69   C73   A    
O43   Zn15  S    
C120  O40   A    
C110  H22   S    
C16   H40   S    
C133  Cl1   S    
C62   C82   A    
C28   C34   S    
C139  H59   S    
C18   C46   S    
O38   Zn6   S    
C93   Cl5   S    
O14   Zn6   S    
C82   C86   S    
C27   C33   S    
C63   C83   A    
C116  O36   A    
C35   C39   S    
C37   C49   S    
C108  H20   S    
C77   C81   A    
C39   C59   S    
C2    C21   S    
C114  O34   A    
C20   C48   S    
C25   C35   S    
C26   C36   S    
O33   Zn9   S    
O2    Zn2   S    
C62   C94   S    
C33   H45   S    
C133  C134  A    
O31   Zn7   S    
C127  C128  A    
C17   C53   T    
C86   H10   S    
C9    C27   S    
C33   C37   S    
C19   C55   T    
C45   O17   A    
C66   C114  S    
C123  C131  S    
O23   Zn15  S    
O42   Zn14  S    
C15   H39   S    
C105  C106  A    
O27   Zn3   S    
C101  C117  S    
O25   Zn1   S    
C14   H38   S    
C109  C110  S    
C79   C83   A    
C65   C69   A    
C85   H9    S    
C67   C71   A    
O3    Zn15  S    
O17   Zn9   S    
C123  O43   A    
C74   C78   A    
C139  H61   S    
O2    Zn14  S    
C5    H33   S    
C30   C42   S    
C31   C55   S    
C32   C56   S    
C8    H36   S    
C104  C120  S    
C48   O28   A    
C77   C92   S    
O4    Zn4   S    
O44   Zn16  S    
O47   Zn11  S    
C72   C76   A    
C119  O39   A    
C117  O37   A    
O8    Zn4   S    
O30   Zn6   S    
C131  C135  A    
C116  O12   A    
C4    O16   A    
C92   O32   A    
C67   C115  S    
O22   Zn14  S    
C86   C94   S    
O2    Zn10  S    
C46   O26   A    
C90   O6    A    
C34   H46   S    
C36   H48   S    
C5    H29   S    
C138  H56   S    
C102  C118  S    
C134  Cl2   S    
C74   H6    S    
O9    Zn13  S    
C87   H15   S    
C96   C140  S    
C88   H16   S    
C51   Cl11  S    
C14   C30   S    
C128  C132  A    
C95   C139  S    
C43   Cl15  S    
C69   H1    S    
C122  O42   A    
C63   C67   A    
C2    O22   A    
C95   Cl7   S    
O1    Zn5   S    
C10   H42   S    
C36   C40   S    
C34   C44   S    
C137  H54   S    
C43   C49   S    
C71   H3    S    
C40   C52   S    
O24   Zn16  S    
C21   C57   T    
C118  O46   A    
C8    C127  S    
C99   C100  A    
C24   C60   T    
C9    C37   S    
C140  H62   S    
C32   C44   S    
C124  O44   A    
C11   C39   S    
O16   Zn8   S    
C75   H7    S    
C12   C14   S    
O6    Zn2   S    
C34   C38   S    
C103  C119  S    
O41   Zn13  S    
C38   C50   S    
C78   C91   S    
O50   Zn2   S    
C4    O24   A    
C47   O19   A    
C109  H25   S    
C120  O48   A    
C71   C75   A    
C97   C110  S    
C125  C126  A    
C29   C53   S    
C121  O49   A    
C99   C112  S    
C102  C106  A    
C91   O31   A    
C138  H58   S    
C85   H13   S    
C18   C54   T    
C89   O29   A    
C113  O9    A    
C122  C130  S    
C97   C101  A    
