data_mof_unit_56161.cif
_audit_creation_date              2012-12-11T20:37:42-0500
_audit_creation_method            fapswitch 2.2
_symmetry_space_group_name_H-M    P1
_symmetry_Int_Tables_number       1
_space_group_crystal_system       triclinic
_cell_length_a                    8.313727
_cell_length_b                    18.894591
_cell_length_c                    22.87576
_cell_angle_alpha                 97.940325
_cell_angle_beta                  89.57626
_cell_angle_gamma                 94.172745
_cell_volume                      3549.52767868

loop_
_atom_site_label
_atom_site_type_symbol
_atom_type_description
_atom_site_fract_x
_atom_site_fract_y
_atom_site_fract_z
_atom_type_partial_charge
Ba1   Ba    Ba6+2 0.849480 0.533290 0.473010 1.638823
Ba2   Ba    Ba6+2 0.340340 0.466770 0.527000 1.628134
C1    C     C_3   0.651009 0.792869 0.314384 -0.359779
C2    C     C_R   0.101444 0.561660 0.941067 -0.028032
C3    C     C_R   0.057447 0.557941 0.880832 0.592594
C4    C     C_3   0.085519 0.699092 0.315668 0.357507
C5    C     C_R   0.954616 0.435623 0.879111 0.567069
C6    C     C_R   0.999372 0.437387 0.939011 -0.020860
C7    C     C_R   0.072263 0.500939 0.970208 -0.050058
C8    C     C_R   0.172854 0.625019 0.973080 -0.074039
C9    C     C_R   0.213788 0.628089 0.032667 -0.075010
C10   C     C_R   0.185807 0.567767 0.062330 -0.020373
C11   C     C_R   0.115426 0.503888 0.030883 -0.051608
C12   C     C_3   0.615738 0.720192 0.335046 0.343340
C13   C     C_R   0.972508 0.376928 0.968552 -0.078783
C14   C     C_R   0.016893 0.379551 0.027788 -0.074702
C15   C     C_R   0.088303 0.442936 0.059830 -0.025855
C16   C     C_3   0.064862 0.734801 0.260823 -0.360092
C17   C     C_R   0.133964 0.446461 0.119923 0.590528
C18   C     C_R   0.226363 0.570222 0.122696 0.579543
C19   C     C_2   0.782060 0.472561 0.770865 -0.074948
C20   C     C_3   0.731068 0.479285 0.708490 -0.055074
C21   C     C_1   0.007704 0.512090 0.685873 0.054514
C22   C     C_2   0.054017 0.515237 0.742134 -0.106709
C23   C     C_3   0.499697 0.368814 0.347205 0.276690
C24   C     C_2   0.936333 0.493094 0.788335 0.193231
C25   C     C_R   0.400063 0.543930 0.233728 -0.097065
C26   C     C_R   0.442611 0.549677 0.293542 -0.033262
C27   C     C_R   0.186458 0.490039 0.315472 0.050450
C28   C     C_3   0.180662 0.692441 0.610275 0.310409
C29   C     C_R   0.140787 0.485494 0.255512 -0.099205
C30   C     C_R   0.246282 0.513544 0.213723 0.202675
C31   C     C_2   0.871881 0.476566 0.666881 -0.288023
C32   C     C_2   0.402171 0.697325 0.478524 -0.236354
C33   C     C_3   0.329234 0.738844 0.435062 -0.046667
C34   C     C_3   0.470597 0.349672 0.281143 -0.364338
C35   C     C_2   0.383080 0.817690 0.444241 -0.154011
C36   C     C_2   0.512527 0.842401 0.478825 -0.067279
C37   C     C_2   0.590018 0.791700 0.512788 -0.138180
C38   C     C_1   0.532513 0.723825 0.509014 0.065271
C39   C     C_R   0.684243 0.059054 0.487738 0.455915
C40   C     C_3   0.200080 0.771920 0.638601 -0.100419
C41   C     C_R   0.578183 0.918197 0.481679 0.468711
C42   C     C_R   0.623203 0.185674 0.471598 -0.028571
C43   C     C_R   0.666436 0.260390 0.480963 0.046883
C44   C     C_R   0.912159 0.240669 0.531052 0.066721
C45   C     C_3   0.136264 0.319568 0.682568 0.321205
C46   C     C_R   0.871601 0.166569 0.522513 -0.145367
C47   C     C_R   0.726991 0.138017 0.493388 -0.053581
C48   C     C_R   0.806266 0.286720 0.512337 -0.262382
C49   C     C_3   0.959680 0.308146 0.377075 0.412428
C50   C     C_3   0.872608 0.248112 0.334960 -0.281656
C51   C     C_3   0.702452 0.633298 0.652918 0.289376
C52   C     C_3   0.696651 0.655814 0.719990 -0.112919
C53   C     C_3   0.364504 0.790183 0.668925 -0.345829
C54   C     C_3   0.173220 0.823806 0.594579 -0.430595
C55   C     C_3   0.748061 0.275788 0.661816 -0.313108
C56   C     C_3   0.129992 0.301510 0.746030 -0.139828
C57   C     C_3   0.493880 0.145832 0.629050 -0.463033
C58   C     C_3   0.467671 0.156950 0.439884 -0.327705
C59   C     C_3   0.566926 0.280071 0.662164 0.334275
C60   C     C_3   0.483569 0.209526 0.677873 -0.195545
C61   C     C_R   0.334020 0.524882 0.334047 -0.300675
H1    H     H_    0.649765 0.725007 0.382411 0.059139
H2    H     H_    0.754534 0.616543 0.743009 0.071216
H3    H     H_    0.568904 0.656621 0.734593 0.115097
H4    H     H_    0.484799 0.705603 0.329314 -0.046525
H5    H     H_    0.629122 0.788621 0.266149 0.126786
H6    H     H_    0.386676 0.387038 0.368241 0.038350
H7    H     H_    0.596508 0.412789 0.354532 0.065424
H8    H     H_    0.371599 0.306766 0.272785 0.145902
H9    H     H_    0.436529 0.397145 0.261935 0.071792
H10   H     H_    0.581907 0.330759 0.258982 0.118667
H11   H     H_    0.778047 0.812816 0.324302 0.147093
H12   H     H_    0.106382 0.781018 0.673203 0.127125
H13   H     H_    0.115042 0.702023 0.222062 0.140301
H14   H     H_    0.257823 0.340350 0.672121 0.134978
H15   H     H_    0.052725 0.361901 0.679380 -0.007314
H16   H     H_    0.006795 0.306857 0.763976 0.129314
H17   H     H_    0.157596 0.245139 0.747152 0.119643
H18   H     H_    0.523533 0.287137 0.617647 0.074677
H19   H     H_    0.533726 0.196215 0.719623 0.126720
H20   H     H_    0.020573 0.645096 0.309364 0.086691
H21   H     H_    0.354624 0.216772 0.685132 0.147219
H22   H     H_    0.994181 0.331637 0.048543 0.123328
H23   H     H_    0.867856 0.340687 0.400847 0.023861
H24   H     H_    0.917202 0.327084 0.945860 0.122197
H25   H     H_    0.267915 0.678112 0.055473 0.122828
H26   H     H_    0.487386 0.562303 0.202807 0.114250
H27   H     H_    0.196884 0.672752 0.952185 0.125314
H28   H     H_    0.176816 0.533760 0.755032 0.128386
H29   H     H_    0.691395 0.458984 0.802665 0.116112
H30   H     H_    0.024626 0.459417 0.241483 0.131207
H31   H     H_    0.369579 0.528046 0.379787 0.079823
H32   H     H_    0.216187 0.692681 0.320211 -0.071552
H33   H     H_    0.860665 0.448159 0.622310 0.076563
H34   H     H_    0.802335 0.271204 0.302101 0.114238
H35   H     H_    0.324252 0.852814 0.418717 0.098848
H36   H     H_    0.693890 0.810834 0.540591 0.094227
H37   H     H_    0.952361 0.131283 0.538866 0.094916
H38   H     H_    0.356081 0.642158 0.478874 0.068908
H39   H     H_    0.837813 0.343858 0.519637 0.058216
H40   H     H_    0.935685 0.739978 0.252148 0.147084
H41   H     H_    0.129645 0.788831 0.266600 0.112568
H42   H     H_    0.294759 0.675612 0.589278 -0.007332
H43   H     H_    0.083551 0.684692 0.576643 0.066742
H44   H     H_    0.388333 0.750095 0.698422 0.153598
H45   H     H_    0.789376 0.214583 0.359775 0.082330
H46   H     H_    0.461850 0.791763 0.635629 0.127392
H47   H     H_    0.366456 0.843644 0.696222 0.114566
H48   H     H_    0.249706 0.812277 0.555192 0.132580
H49   H     H_    0.044216 0.819305 0.581594 0.158963
H50   H     H_    0.203023 0.880025 0.615016 0.136350
H51   H     H_    0.096511 0.318967 0.450398 0.202151
H52   H     H_    0.152072 0.254089 0.397501 0.189340
H53   H     H_    0.899374 0.724877 0.723922 0.197136
H54   H     H_    0.725705 0.764639 0.717300 0.205020
H55   H     H_    0.237077 0.333828 0.826124 0.195264
H56   H     H_    0.960993 0.213470 0.310958 0.108116
H57   H     H_    0.207301 0.400906 0.787519 0.194479
H58   H     H_    0.804841 0.322341 0.643060 0.036311
H59   H     H_    0.790878 0.276258 0.707521 0.128636
H60   H     H_    0.783404 0.226223 0.635129 0.095347
H61   H     H_    0.617248 0.127015 0.625942 0.147839
H62   H     H_    0.410658 0.100568 0.639362 0.148585
H63   H     H_    0.458001 0.160260 0.585837 0.157569
H64   H     H_    0.388249 0.198646 0.431527 0.132994
H65   H     H_    0.495222 0.126999 0.396196 0.124539
H66   H     H_    0.395982 0.121665 0.466924 0.126006
H67   H     H_    0.829314 0.629641 0.638800 0.009998
H68   H     H_    0.634701 0.580286 0.641971 0.024611
H69   H     H_    0.570963 0.832058 0.337615 0.088469
N1    N     N_R   0.984932 0.495305 0.850186 -0.427771
N2    N     N_R   0.200375 0.510021 0.151392 -0.422116
N3    N     N_R   0.603004 0.024339 0.439677 -0.250844
N4    N     N_R   0.550396 0.955739 0.436788 -0.253336
N5    N     N_R   0.665591 0.951747 0.528878 -0.247298
N6    N     N_R   0.717146 0.020843 0.531928 -0.252543
N7    N     N_3   0.052812 0.276739 0.419057 -0.526992
N8    N     N_3   0.779625 0.726274 0.737896 -0.470963
N9    N     N_3   0.244557 0.348870 0.783825 -0.454650
O1    O     O_2   0.898140 0.461210 0.359840 -0.468564
O2    O     O_2   0.250618 0.247814 0.541971 -0.493649
O3    O     O_3   0.095468 0.257897 0.642332 -0.642127
O4    O     O_3   0.138540 0.461940 0.430900 -0.487646
O5    O     O_3   0.557600 0.585010 0.531050 -0.475318
O6    O     O_2   0.379790 0.327560 0.468300 -0.463895
O7    O     O_3   0.545802 0.307934 0.369598 -0.653882
O8    O     O_2   0.401400 0.457111 0.703875 -0.497909
O9    O     O_3   0.528629 0.336839 0.705761 -0.584574
O10   O     O_2   0.081169 0.611033 0.856055 -0.588747
O11   O     O_2   0.889047 0.380635 0.852688 -0.611643
O12   O     O_3   0.631198 0.684627 0.625341 -0.653327
O13   O     O_2   0.116906 0.392423 0.143791 -0.598109
O14   O     O_2   0.284233 0.626440 0.149741 -0.617825
O15   O     O_3   0.654260 0.589640 0.397760 -0.479943
O16   O     O_2   0.773114 0.535722 0.293409 -0.489034
O17   O     O_3   0.064982 0.348034 0.344118 -0.639029
O18   O     O_3   0.704898 0.669057 0.301351 -0.591111
O19   O     O_2   0.809910 0.672460 0.531740 -0.467286
O20   O     O_3   0.065030 0.625960 0.427320 -0.475979
O21   O     O_2   0.009987 0.755305 0.480479 -0.488186
O22   O     O_3   0.022531 0.741425 0.364854 -0.583186
O23   O     O_2   0.291560 0.538810 0.640200 -0.448323
O24   O     O_3   0.051160 0.538120 0.569110 -0.493403
O25   O     O_3   0.535440 0.410410 0.602240 -0.479917
O26   O     O_3   0.139087 0.652131 0.655665 -0.651321
O27   O     O_3   0.632100 0.415050 0.468960 -0.473516
O28   O     O_3   0.124670 0.374100 0.572690 -0.493112
P1    P     P_3+3 0.069200 0.440380 0.368230 0.987286
P2    P     P_3+3 0.634560 0.662100 0.548650 0.982337
P3    P     P_3+3 0.106232 0.717753 0.428649 0.960996
P4    P     P_3+3 0.120500 0.559680 0.631780 0.991089
P5    P     P_3+3 0.098131 0.280357 0.570294 0.925143
P6    P     P_3+3 0.643868 0.584947 0.320817 0.956808
P7    P     P_3+3 0.558935 0.326265 0.446530 0.930314
P8    P     P_3+3 0.552588 0.420413 0.679397 0.947103

loop_
_geom_bond_atom_site_label_1
_geom_bond_atom_site_label_2
_ccdc_geom_bond_type
C42   C47   A    
C19   C24   D    
C27   C61   A    
O15   P6    S    
C51   O12   S    
C18   O14   D    
Ba2   O28   S    
Ba1   P1    S    
Ba1   O4    S    
C1    H5    S    
H55   N9    S    
C5    C6    A    
C52   H2    S    
C51   C52   S    
Ba2   O4    S    
C3    N1    Am   
C61   H31   S    
C40   H12   S    
O7    P7    S    
C32   C38   D    
C33   C35   S    
C22   C24   S    
C28   O26   S    
C5    N1    Am   
Ba2   P4    S    
C36   C37   S    
C32   C33   S    
C12   H4    S    
O24   P4    S    
C13   C14   A    
C50   H34   S    
Ba1   Ba2   S    
C1    H11   S    
C7    C11   A    
Ba1   O1    S    
C40   C54   S    
C55   H59   S    
O20   P3    S    
C52   N8    S    
C14   C15   A    
C21   C31   D    
O28   P5    S    
C44   P5    S    
C41   N5    A    
C51   H68   S    
Ba1   O24   S    
C27   P1    S    
C59   O9    S    
Ba2   O25   S    
C54   H48   S    
C34   H8    S    
C56   H17   S    
O26   P4    S    
C60   H19   S    
Ba1   O20   S    
O18   P6    S    
O5    P2    S    
C28   H43   S    
C33   P3    S    
O12   P2    S    
Ba1   O5    S    
C41   N4    A    
C31   H33   S    
C20   P8    S    
C46   H37   S    
C49   H23   S    
C39   C47   S    
C35   H35   S    
C58   H64   S    
C4    C16   S    
C44   C46   A    
C32   H38   S    
C1    H69   S    
N3    N4    A    
C34   H10   S    
C43   P7    S    
Ba2   O23   S    
C37   C38   D    
O6    P7    D    
C6    C7    A    
C23   C34   S    
Ba1   O27   S    
Ba2   O6    S    
C29   H30   S    
C45   O3    S    
Ba1   P2    S    
C49   C50   S    
C53   H44   S    
C57   H63   S    
Ba1   O15   S    
C26   C61   A    
C35   C36   D    
C40   C53   S    
C55   H60   S    
C37   H36   S    
C29   C30   A    
C58   H65   S    
C9    H25   S    
C54   H50   S    
C12   H1    S    
C10   C18   A    
O8    P8    D    
O23   P4    D    
O25   P8    S    
C16   H41   S    
H51   N7    S    
C4    O22   S    
O22   P3    S    
Ba2   O24   S    
C8    H27   S    
C39   N6    A    
C1    C12   S    
C56   H16   S    
O16   P6    D    
O9    P8    S    
C52   H3    S    
C46   C47   A    
H52   N7    S    
C48   H39   S    
C6    C13   A    
C53   H47   S    
C14   H22   S    
C45   H15   S    
H54   N8    S    
C23   H6    S    
C45   H14   S    
C2    C8    A    
C22   H28   S    
Ba2   O27   S    
C39   N3    A    
C42   C43   A    
C13   H24   S    
C57   H61   S    
O27   P7    S    
C20   C31   S    
C60   H21   S    
O4    P1    S    
C57   C60   S    
C16   H13   S    
C4    H20   S    
C25   C30   A    
Ba1   O19   S    
O17   P1    S    
H57   N9    S    
C51   H67   S    
C2    C3    A    
C58   H66   S    
C9    C10   A    
C26   P6    S    
C55   C59   S    
C21   P4    S    
Ba2   O5    S    
N5    N6    A    
C44   C48   A    
C49   O17   S    
C3    O10   D    
C11   C15   A    
C12   O18   S    
C36   C41   S    
C28   H42   S    
C24   N1    S    
C59   H18   S    
C57   H62   S    
C45   C56   S    
C30   N2    S    
C56   N9    S    
C43   C48   A    
C42   C58   S    
C15   C17   A    
O19   P2    D    
C25   H26   S    
C23   O7    S    
C17   N2    Am   
C16   H40   S    
C59   C60   S    
C8    C9    A    
C21   C22   D    
C55   H58   S    
C5    O11   D    
C50   H56   S    
O21   P3    D    
C10   C11   A    
C50   H45   S    
C27   C29   A    
C4    H32   S    
O3    P5    S    
C25   C26   A    
C17   O13   D    
C28   C40   S    
C23   H7    S    
O2    P5    D    
C18   N2    Am   
C2    C7    A    
C19   C20   S    
C54   H49   S    
C38   P2    S    
C53   H46   S    
O1    P1    D    
C34   H9    S    
H53   N8    S    
C19   H29   S    
C49   N7    S    
