data_mof_unit_48306.cif
_audit_creation_date              2012-12-11T16:37:16-0500
_audit_creation_method            fapswitch 2.2
_symmetry_space_group_name_H-M    P1
_symmetry_Int_Tables_number       1
_space_group_crystal_system       triclinic
_cell_length_a                    18.929433
_cell_length_b                    18.86081
_cell_length_c                    20.48219
_cell_angle_alpha                 107.008114
_cell_angle_beta                  106.62415
_cell_angle_gamma                 111.102182
_cell_volume                      5862.48476814

loop_
_atom_site_label
_atom_site_type_symbol
_atom_type_description
_atom_site_fract_x
_atom_site_fract_y
_atom_site_fract_z
_atom_type_partial_charge
C1    C     C_R   0.087671 0.087541 0.355876 0.574109
C2    C     C_R   0.753604 0.996905 0.537207 0.034329
C3    C     C_R   0.755039 0.794463 0.274811 -0.129051
C4    C     C_R   0.975929 0.231032 0.473852 0.151752
C5    C     C_R   0.233173 0.224658 0.648668 -0.245021
C6    C     C_R   0.922336 0.758818 0.497504 0.509276
C7    C     C_R   0.177568 0.930665 0.475022 0.561734
C8    C     C_R   0.026868 0.053621 0.718787 -0.093586
C9    C     C_R   0.957098 0.912711 0.655285 -0.138420
C10   C     C_R   0.244987 0.070460 0.542401 -0.246112
C11   C     C_R   0.156736 0.219588 0.712666 0.463809
C12   C     C_R   0.759856 0.927043 0.500023 -0.131938
C13   C     C_R   0.996470 0.762514 0.431409 -0.122928
C14   C     C_R   0.235540 0.265730 0.717962 0.017267
C15   C     C_R   0.947964 0.710922 0.455098 -0.161434
C16   C     C_R   0.255685 0.999385 0.530778 -0.089192
C17   C     C_R   0.006910 0.980099 0.727833 0.069305
C18   C     C_R   0.834563 0.312725 0.393583 -0.413441
C19   C     C_R   0.860081 0.259952 0.416922 0.539575
C20   C     C_R   0.944787 0.278372 0.439423 -0.267116
C21   C     C_R   0.000393 0.343048 0.428965 0.334556
C22   C     C_R   0.972088 0.390839 0.399252 0.414556
C23   C     C_R   0.836073 0.813716 0.281183 0.559291
C24   C     C_R   0.891066 0.379693 0.387307 -0.172009
C25   C     C_R   0.882999 0.483591 0.338075 -0.115517
C26   C     C_R   0.903950 0.568120 0.357741 -0.213976
C27   C     C_R   0.917437 0.620095 0.429931 0.168605
C28   C     C_R   0.903303 0.585344 0.479704 -0.158321
C29   C     C_R   0.882338 0.501221 0.460045 -0.204694
C30   C     C_R   0.876716 0.451435 0.390995 0.253151
C31   C     C_R   0.595046 0.950149 0.616120 -0.124631
C32   C     C_R   0.655842 0.945258 0.592172 -0.203257
C33   C     C_R   0.688422 0.998182 0.560447 0.148849
C34   C     C_R   0.955453 0.202447 0.524949 -0.165376
C35   C     C_R   0.661777 0.056817 0.554083 -0.184169
C36   C     C_R   0.599832 0.060034 0.575734 -0.191138
C37   C     C_R   0.564911 0.006012 0.605966 0.130261
C38   C     C_R   0.486112 0.077077 0.642061 -0.246384
C39   C     C_R   0.409415 0.076401 0.618488 -0.153976
C40   C     C_R   0.334266 0.999430 0.571134 0.112426
C41   C     C_R   0.337009 0.923533 0.559745 -0.329551
C42   C     C_R   0.413962 0.923486 0.577490 0.546360
C43   C     C_R   0.489290 0.001411 0.614945 -0.031678
C44   C     C_R   0.300524 0.350312 0.778598 0.069538
C45   C     C_R   0.761370 0.813041 0.347430 -0.246870
C46   C     C_R   0.308095 0.371280 0.852492 -0.295619
C47   C     C_R   0.367292 0.451360 0.910935 0.487501
C48   C     C_R   0.418725 0.513560 0.895105 -0.073551
C49   C     C_R   0.414930 0.491368 0.822074 0.534281
C50   C     C_R   0.354114 0.410451 0.763511 -0.399270
C51   C     C_R   0.610309 0.738290 0.075825 -0.206354
C52   C     C_R   0.683100 0.777276 0.143390 -0.195309
C53   C     C_R   0.531653 0.688956 0.071984 0.242117
C54   C     C_R   0.678263 0.765683 0.206991 0.172204
C55   C     C_R   0.598745 0.725013 0.205083 -0.196306
C56   C     C_R   0.032205 0.206066 0.459746 -0.109398
C57   C     C_R   0.525965 0.688386 0.138269 -0.191412
C58   C     C_R   0.102326 0.028828 0.234521 0.022407
C59   C     C_R   0.123898 0.967360 0.203326 -0.290279
C60   C     C_R   0.155910 0.970767 0.150523 -0.153444
C61   C     C_R   0.169083 0.037399 0.130200 0.211790
C62   C     C_R   0.153500 0.101996 0.165036 -0.431651
C63   C     C_R   0.116861 0.097515 0.215764 0.597161
C64   C     C_R   0.094130 0.039311 0.937290 -0.341109
C65   C     C_R   0.062177 0.044092 0.869330 0.549204
C66   C     C_R   0.107272 0.971072 0.939153 0.196170
C67   C     C_R   0.828964 0.067520 0.562124 -0.156067
C68   C     C_R   0.039417 0.976592 0.800639 -0.004192
C69   C     C_R   0.051047 0.907314 0.802226 -0.248758
C70   C     C_R   0.084079 0.904298 0.871121 -0.175178
C71   C     C_R   0.017809 0.948174 0.290483 -0.174851
C72   C     C_R   0.065661 0.021995 0.288188 -0.086346
H1    H     H_    0.067581 0.117232 0.762333 0.170254
H2    H     H_    0.930891 0.846285 0.641443 0.159193
H3    H     H_    0.013806 0.740612 0.386813 0.156381
H4    H     H_    0.878359 0.445475 0.284380 0.107155
H5    H     H_    0.912486 0.593349 0.317790 0.124379
H6    H     H_    0.913293 0.624457 0.535616 0.150578
H7    H     H_    0.569865 0.908772 0.640209 0.159478
H8    H     H_    0.677884 0.901052 0.598916 0.125731
H9    H     H_    0.687146 0.098338 0.530074 0.130758
H10   H     H_    0.576630 0.102410 0.565539 0.130073
H11   H     H_    0.543502 0.137602 0.673327 0.146176
H12   H     H_    0.280393 0.863265 0.532142 0.191362
H13   H     H_    0.742958 0.813182 0.144458 0.169761
H14   H     H_    0.615828 0.741486 0.025440 0.136755
H15   H     H_    0.348463 0.395480 0.706452 0.159423
H16   H     H_    0.465658 0.651000 0.136019 0.141662
H17   H     H_    0.269272 0.324883 0.865806 0.178342
H18   H     H_    0.104473 0.087103 0.989041 0.144491
H19   H     H_    0.163482 0.150766 0.145868 0.139610
H20   H     H_    0.034606 0.855404 0.750183 0.146626
H21   H     H_    0.090380 0.849542 0.871387 0.133384
H22   H     H_    0.114114 0.915405 0.218371 0.158237
H23   H     H_    0.711421 0.806908 0.364351 0.142139
H24   H     H_    0.058463 0.215044 0.420767 0.197168
H25   H     H_    0.849785 0.130711 0.602969 0.101415
H26   H     H_    0.003257 0.885619 0.253780 0.171585
N1    N     N_R   0.051550 0.054780 0.395070 -0.104659
N2    N     N_R   0.954870 0.835940 0.500080 -0.089789
N3    N     N_R   0.121370 0.958420 0.460190 -0.096342
N4    N     N_R   0.991220 0.032000 0.644820 -0.057446
N5    N     N_R   0.948450 0.945220 0.604930 -0.037135
N6    N     N_R   0.164140 0.045200 0.500080 -0.069015
N7    N     N_R   0.110060 0.150840 0.644820 -0.103268
N8    N     N_R   0.002520 0.839580 0.460190 -0.069092
N9    N     N_2   0.484020 0.593147 0.954634 -0.071320
N10   N     N_2   0.462229 0.624493 0.002610 -0.047897
N11   N     N_2   0.178233 0.033150 0.063587 -0.088476
N12   N     N_R   0.835860 0.954800 0.499920 -0.029336
N13   N     N_2   0.127099 0.963002 0.007701 -0.082240
N14   N     N_R   0.889940 0.849160 0.355180 -0.093088
N15   N     N_R   0.997480 0.160420 0.539810 -0.068815
N16   N     N_R   0.842280 0.845520 0.395070 -0.071296
N17   N     N_R   0.045130 0.164060 0.499920 -0.051659
N18   N     N_R   0.878630 0.041580 0.539810 -0.042748
N19   N     N_R   0.008780 0.968000 0.355180 -0.072748
N20   N     N_R   0.157720 0.154480 0.604930 -0.051679
Ni1   Ni    Ni4+2 0.103690 0.103690 0.500000 0.209773
Ni2   Ni    Ni4+2 0.896310 0.896310 0.500000 0.220968
Ni3   Ni    Ni4+2 0.005600 0.904650 0.408510 0.199509
Ni4   Ni    Ni4+2 0.994400 0.095350 0.591490 0.202825
O1    O     O_3   0.155359 0.168700 0.390172 -0.672594
C73   C     C_3   0.232101 0.166242 0.406466 0.176654
H27   H     H_    0.246844 0.160025 0.357036 0.104222
H28   H     H_    0.230382 0.112692 0.419951 0.095928
C74   C     C_3   0.302973 0.249313 0.474390 -0.269877
H29   H     H_    0.310508 0.302957 0.459713 0.193605
H30   H     H_    0.286350 0.259954 0.522726 0.191674
C75   C     C_3   0.386472 0.248096 0.498418 -1.038431
H31   H     H_    0.381183 0.196071 0.515068 0.266525
H32   H     H_    0.436358 0.309237 0.547878 0.269343
H33   H     H_    0.405016 0.239194 0.451071 0.272894
O2    O     O_3   0.855420 0.727999 0.514873 -0.696995
C76   C     C_3   0.778685 0.677480 0.447812 0.173572
H34   H     H_    0.767625 0.611506 0.422621 0.118017
H35   H     H_    0.777841 0.701766 0.404363 0.103114
C77   C     C_3   0.706618 0.675900 0.467958 -0.252220
H36   H     H_    0.702611 0.645599 0.506826 0.202824
H37   H     H_    0.719496 0.741836 0.497959 0.194474
C78   C     C_3   0.622483 0.627118 0.397125 -1.045893
H38   H     H_    0.624467 0.657601 0.358290 0.262439
H39   H     H_    0.571558 0.626889 0.413829 0.275405
H40   H     H_    0.607837 0.560549 0.366757 0.273153
O3    O     O_3   0.158392 0.847137 0.441116 -0.692810
C79   C     C_3   0.191767 0.835361 0.387604 0.132467
H41   H     H_    0.212074 0.787259 0.389132 0.139428
H42   H     H_    0.248379 0.893573 0.400208 0.088551
C80   C     C_3   0.123485 0.800406 0.307688 -0.312672
H43   H     H_    0.070707 0.739037 0.293967 0.203054
H44   H     H_    0.099534 0.845705 0.305724 0.181608
C81   C     C_3   0.157250 0.786348 0.248486 -1.014058
H45   H     H_    0.209821 0.847016 0.260542 0.266254
H46   H     H_    0.106112 0.761426 0.191230 0.269349
H47   H     H_    0.179962 0.739628 0.248533 0.270661
H48   H     H_    0.291984 0.135163 0.580390 0.144190
O4    O     O_3   0.125982 0.251219 0.761178 -0.708603
C82   C     C_3   0.058214 0.260551 0.721732 0.176032
H49   H     H_    0.000908 0.197644 0.686199 0.114045
H50   H     H_    0.073527 0.292602 0.685846 0.105825
C83   C     C_3   0.040849 0.315349 0.779610 -0.253915
H51   H     H_    0.024408 0.284074 0.815474 0.205510
H52   H     H_    0.098668 0.377784 0.817098 0.212587
C84   C     C_3   0.968852 0.329501 0.740699 -1.030272
H53   H     H_    0.983507 0.359861 0.703809 0.267203
H54   H     H_    0.959755 0.371653 0.784376 0.277713
H55   H     H_    0.909377 0.268331 0.705834 0.265634
H56   H     H_    0.772167 0.304258 0.384253 0.182389
O5    O     O_3   0.803321 0.193895 0.422478 -0.660301
C85   C     C_3   0.765985 0.119599 0.354101 0.190695
H57   H     H_    0.814337 0.110047 0.337467 0.096492
H58   H     H_    0.721634 0.123301 0.307590 0.104659
C86   C     C_3   0.717273 0.043102 0.365061 -0.279327
H59   H     H_    0.761573 0.039724 0.411469 0.219792
H60   H     H_    0.668276 0.050541 0.381393 0.201360
C87   C     C_3   0.675540 0.960567 0.293057 -0.980951
H61   H     H_    0.629683 0.961382 0.245622 0.266543
H62   H     H_    0.641536 0.906505 0.303483 0.272523
H63   H     H_    0.723867 0.951341 0.276753 0.271969
O6    O     O_3   0.083069 0.360486 0.447963 -0.658854
C88   C     C_3   0.133867 0.420839 0.524763 0.250114
H64   H     H_    0.107500 0.401481 0.562747 0.081601
H65   H     H_    0.139427 0.483670 0.531560 0.132869
C89   C     C_3   0.221544 0.428517 0.548687 -0.317829
H66   H     H_    0.216364 0.365853 0.541736 0.208022
H67   H     H_    0.248988 0.447894 0.511497 0.211959
C90   C     C_3   0.280159 0.493454 0.631265 -0.971197
H68   H     H_    0.286924 0.556837 0.639467 0.271807
H69   H     H_    0.343353 0.497985 0.646486 0.280623
H70   H     H_    0.255004 0.474006 0.669598 0.272068
H71   H     H_    0.716966 0.861858 0.483573 0.092893
O7    O     O_3   0.029085 0.459506 0.396509 -0.645791
C91   C     C_3   0.035819 0.431316 0.327772 0.214942
H72   H     H_    0.972519 0.389809 0.278079 0.070526
H73   H     H_    0.071306 0.395444 0.329793 0.126698
C92   C     C_3   0.083568 0.508630 0.317167 -0.260896
H74   H     H_    0.053591 0.549675 0.323014 0.212991
H75   H     H_    0.149634 0.545874 0.362103 0.204019
C93   C     C_3   0.083579 0.483057 0.239256 -1.051708
H76   H     H_    0.112654 0.441497 0.231290 0.270605
H77   H     H_    0.120299 0.540698 0.234411 0.283321
H78   H     H_    0.018106 0.449019 0.193681 0.272212
H79   H     H_    0.878994 0.477530 0.501934 0.132643
O8    O     O_3   0.858845 0.799613 0.222339 -0.696637
C94   C     C_3   0.824413 0.711518 0.178346 0.157040
H80   H     H_    0.806031 0.699229 0.117915 0.136834
H81   H     H_    0.766248 0.671050 0.180846 0.091991
C95   C     C_3   0.891230 0.685040 0.202351 -0.318927
H82   H     H_    0.945515 0.720267 0.192837 0.207651
H83   H     H_    0.913434 0.701394 0.263724 0.180817
C96   C     C_3   0.856656 0.590136 0.157549 -1.012642
H84   H     H_    0.803621 0.553652 0.167837 0.265294
H85   H     H_    0.907179 0.573571 0.176133 0.270136
H86   H     H_    0.834406 0.572265 0.095806 0.271979
H87   H     H_    0.410656 0.136822 0.633455 0.121924
O9    O     O_3   0.414423 0.847025 0.555169 -0.675304
C97   C     C_3   0.395123 0.812498 0.476942 0.170951
H88   H     H_    0.454952 0.829118 0.471262 0.127105
H89   H     H_    0.359617 0.836199 0.443776 0.067475
C98   C     C_3   0.342840 0.716097 0.442151 -0.255327
H90   H     H_    0.378831 0.691139 0.472657 0.209612
H91   H     H_    0.283544 0.699185 0.448824 0.198804
C99   C     C_3   0.320999 0.674661 0.357915 -1.036416
H92   H     H_    0.282115 0.696196 0.325820 0.266184
H93   H     H_    0.284561 0.604730 0.334970 0.283966
H94   H     H_    0.379380 0.690899 0.349805 0.272402
O10   O     O_3   0.466664 0.551723 0.807240 -0.645739
C100  C     C_3   0.528012 0.531446 0.794102 0.189408
H95   H     H_    0.550470 0.564111 0.761162 0.135633
H96   H     H_    0.502298 0.462492 0.758803 0.078453
C101  C     C_3   0.603397 0.563536 0.869431 -0.311844
H97   H     H_    0.627896 0.632160 0.904052 0.214083
H98   H     H_    0.583063 0.528891 0.901841 0.184370
C102  C     C_3   0.673977 0.550438 0.856114 -1.001921
H99   H     H_    0.651106 0.482033 0.822438 0.266046
H100  H     H_    0.727208 0.573827 0.911614 0.269739
H101  H     H_    0.697124 0.586103 0.825383 0.269084
H102  H     H_    0.592371 0.716511 0.253457 0.118843
O11   O     O_3   0.373316 0.468611 0.983408 -0.652490
C103  C     C_3   0.437441 0.455404 0.024797 0.212474
H103  H     H_    0.467658 0.503214 0.084949 0.133159
H104  H     H_    0.488805 0.465264 0.006170 0.067598
C104  C     C_3   0.399422 0.366935 0.021453 -0.323872
H105  H     H_    0.346822 0.357048 0.037924 0.215656
H106  H     H_    0.374046 0.318073 0.962608 0.187942
C105  C     C_3   0.465222 0.355841 0.074684 -0.999240
H107  H     H_    0.518038 0.364550 0.058701 0.266311
H108  H     H_    0.435914 0.291034 0.070535 0.272164
H109  H     H_    0.490202 0.402530 0.134402 0.266313
H110  H     H_    0.913248 0.211394 0.548330 0.147992
O12   O     O_3   0.041388 0.107557 0.868362 -0.670106
C106  C     C_3   0.110505 0.189814 0.919561 0.139301
H111  H     H_    0.122139 0.226693 0.886733 0.155841
H112  H     H_    0.171164 0.190983 0.947732 0.084679
C107  C     C_3   0.088050 0.234868 0.979165 -0.266363
H113  H     H_    0.033097 0.241657 0.950337 0.208562
H114  H     H_    0.070227 0.196682 0.009703 0.193714
C108  C     C_3   0.161837 0.322492 0.036867 -1.018020
H115  H     H_    0.216363 0.316831 0.068524 0.264142
H116  H     H_    0.142908 0.354212 0.078159 0.272521
H117  H     H_    0.180936 0.362148 0.007770 0.284096
O13   O     O_3   0.086917 0.152030 0.243649 -0.658454
C109  C     C_3   0.116710 0.229331 0.237889 0.241497
H118  H     H_    0.079516 0.259442 0.253742 0.125950
H119  H     H_    0.102907 0.219816 0.178623 0.073102
C110  C     C_3   0.209685 0.290736 0.294178 -0.315013
H120  H     H_    0.217117 0.301889 0.352608 0.233843
H121  H     H_    0.250093 0.263403 0.281955 0.190597
C111  C     C_3   0.239726 0.375635 0.290728 -1.026124
H122  H     H_    0.229989 0.366369 0.232088 0.274041
H123  H     H_    0.307934 0.417122 0.329569 0.277488
H124  H     H_    0.205013 0.407607 0.309133 0.268594
H125  H     H_    0.167048 0.920033 0.123194 0.134416
H126  H     H_    0.278963 0.249982 0.628855 0.121679

loop_
_geom_bond_atom_site_label_1
_geom_bond_atom_site_label_2
_ccdc_geom_bond_type
C76   C77   S    
C107  H114  S    
C105  H108  S    
C40   C41   A    
O4    C82   S    
C29   H79   S    
C38   H11   S    
C109  C110  S    
C41   C42   A    
C3    C23   A    
C99   H92   S    
C64   H18   S    
C61   N11   S    
C1    N1    A    
C100  H96   S    
O3    C79   S    
C35   H9    S    
C99   H94   S    
C109  H118  S    
C46   H17   S    
C88   H64   S    
C97   C98   S    
C23   N14   A    
C28   C29   A    
C26   C27   A    
C62   C63   A    
N18   Ni4   S    
C18   C24   A    
C14   C44   S    
C36   C37   A    
N5    Ni2   S    
C80   H44   S    
C38   C39   A    
C3    C54   S    
C88   C89   S    
C48   N9    S    
N1    N19   A    
C85   H57   S    
C104  H105  S    
C58   C63   A    
C111  H122  S    
C89   H66   S    
N8    Ni3   S    
C109  H119  S    
C18   C19   A    
O5    C85   S    
C106  H111  S    
N19   Ni3   S    
N20   Ni1   S    
C98   H90   S    
C90   H70   S    
C82   C83   S    
C33   C35   A    
C6    C15   A    
C46   C47   A    
C78   H38   S    
C45   N16   A    
C21   O6    S    
N15   Ni4   S    
O11   C103  S    
C22   O7    S    
C36   H10   S    
C95   H82   S    
C91   H73   S    
C11   N7    A    
C93   H78   S    
N9    N10   D    
N2    Ni2   S    
C59   H22   S    
C66   N13   S    
C49   O10   S    
C69   H20   S    
C28   H6    S    
C105  H107  S    
C61   C62   A    
C85   C86   S    
N6    Ni1   S    
C104  C105  S    
C100  C101  S    
C88   H65   S    
C107  C108  S    
C2    C12   A    
C59   C60   A    
C21   C22   A    
C4    C56   A    
C82   H50   S    
O8    C94   S    
N4    N5    A    
C102  H100  S    
C74   H30   S    
C92   C93   S    
C51   H14   S    
N14   N16   A    
C100  H95   S    
C83   H52   S    
C44   C46   A    
C83   H51   S    
C79   H42   S    
C86   H60   S    
C71   H26   S    
C4    C34   A    
C26   H5    S    
C60   H125  S    
C71   N19   A    
C51   C52   A    
C1    C72   A    
C47   C48   A    
C13   H3    S    
O1    C73   S    
C70   H21   S    
C42   O9    S    
O9    C97   S    
O12   C106  S    
C2    C67   A    
C110  H120  S    
C78   H40   S    
C10   H48   S    
C39   C40   A    
C18   H56   S    
C68   C69   A    
C104  H106  S    
C25   C26   A    
C86   H59   S    
C41   H12   S    
C3    C45   A    
C103  C104  S    
N3    Ni3   S    
C31   C37   A    
C32   C33   A    
C60   C61   A    
C51   C53   A    
C78   H39   S    
C6    N2    A    
C37   C43   S    
C75   H32   S    
C67   N18   A    
C1    O1    S    
C96   H84   S    
C29   C30   A    
C32   H8    S    
C79   C80   S    
C102  H99   S    
C106  H112  S    
C15   C27   S    
O10   C100  S    
C101  H97   S    
C81   H47   S    
C9    N5    A    
C65   C68   A    
C62   H19   S    
C103  H104  S    
C52   C54   A    
C101  H98   S    
C55   C57   A    
C20   C21   A    
C93   H77   S    
C5    C14   A    
O13   C109  S    
C110  H121  S    
C50   H15   S    
C16   C40   S    
C106  C107  S    
C47   O11   S    
C2    C33   S    
C9    C17   A    
C87   H61   S    
C96   H85   S    
C52   H13   S    
C91   H72   S    
N3    N6    A    
N17   Ni1   S    
C111  H123  S    
C13   C15   A    
C7    N3    A    
C82   H49   S    
C22   C24   A    
N7    N20   A    
C80   C81   S    
C108  H117  S    
C9    H2    S    
N12   Ni2   S    
C74   H29   S    
C77   C78   S    
C63   O13   S    
N12   N18   A    
C108  H116  S    
C13   N8    A    
C83   C84   S    
O6    C88   S    
C11   O4    S    
C73   H28   S    
C79   H41   S    
C94   C95   S    
C44   C50   A    
C25   C30   A    
C76   H35   S    
C12   H71   S    
C94   H80   S    
C54   C55   A    
C84   H53   S    
C17   C68   S    
C53   C57   A    
N14   Ni3   S    
C5    N20   A    
C35   C36   A    
C31   C32   A    
C7    C16   A    
C19   O5    S    
C81   H46   S    
C92   H74   S    
C34   N15   A    
C110  C111  S    
C86   C87   S    
C99   H93   S    
C31   H7    S    
O2    C76   S    
C77   H37   S    
C4    C20   S    
C97   H89   S    
C23   O8    S    
N2    N8    A    
C8    C17   A    
C57   H16   S    
C39   H87   S    
C98   H91   S    
C25   H4    S    
C89   C90   S    
C64   C65   A    
C87   H63   S    
C19   C20   A    
C10   N6    A    
C108  H115  S    
C58   C59   A    
C74   C75   S    
C38   C43   A    
C6    O2    S    
C10   C16   A    
C80   H43   S    
O7    C91   S    
C91   C92   S    
C103  H103  S    
C53   N10   S    
C58   C72   S    
C66   C70   A    
C85   H58   S    
C95   C96   S    
C48   C49   A    
C12   N12   A    
N11   N13   D    
C97   H88   S    
C84   H54   S    
C8    H1    S    
C11   C14   A    
C56   N17   A    
C89   H67   S    
N7    Ni4   S    
C75   H31   S    
C101  C102  S    
C84   H55   S    
C55   H102  S    
C56   H24   S    
C69   C70   A    
C24   C30   S    
C90   H69   S    
C92   H75   S    
C76   H34   S    
C77   H36   S    
C67   H25   S    
N1    Ni1   S    
C75   H33   S    
C65   O12   S    
C93   H76   S    
C96   H86   S    
C71   C72   A    
C81   H45   S    
C95   H83   S    
C49   C50   A    
C42   C43   A    
C111  H124  S    
C73   C74   S    
C27   C28   A    
C34   H110  S    
C73   H27   S    
C90   H68   S    
C5    H126  S    
C7    O3    S    
N4    Ni4   S    
C94   H81   S    
C8    N4    A    
C102  H101  S    
C98   C99   S    
N16   Ni2   S    
C107  H113  S    
C64   C66   A    
C87   H62   S    
N15   N17   A    
C105  H109  S    
C45   H23   S    
