data_mof_unit_30628.cif
_audit_creation_date              2013-03-05T16:03:20-0500
_audit_creation_method            fapswitch 2.2
_symmetry_space_group_name_H-M    P1
_symmetry_Int_Tables_number       1
_space_group_crystal_system       triclinic
_cell_length_a                    27.793775
_cell_length_b                    11.734617
_cell_length_c                    10.464818
_cell_angle_alpha                 90.033633
_cell_angle_beta                  90.719759
_cell_angle_gamma                 90.622379
_cell_volume                      3412.62157058

loop_
_atom_site_label
_atom_site_type_symbol
_atom_site_description
_atom_site_fract_x
_atom_site_fract_y
_atom_site_fract_z
_atom_type_partial_charge
O1    O     O_R   0.500000 0.337200 0.605810 -0.565262
O2    O     O_R   0.500000 0.662800 0.394190 -0.565607
O3    O     O_R   0.500000 0.662800 0.605810 -0.565445
O4    O     O_R   0.500000 0.337200 0.394190 -0.565386
C1    C     C_R   0.499967 0.283303 0.499970 0.834647
C2    C     C_R   0.500033 0.716697 0.500030 0.834189
O5    O     O_R   0.430260 0.500000 0.605800 -0.576402
O6    O     O_R   0.569740 0.500000 0.394200 -0.575547
O7    O     O_R   0.569740 0.500000 0.605800 -0.578166
O8    O     O_R   0.430260 0.500000 0.394200 -0.578910
C3    C     C_R   0.407089 0.499069 0.499086 0.805226
C4    C     C_R   0.592912 0.500985 0.500918 0.807521
Cu1   Cu    Cu3+1 0.500000 0.500000 0.625300 1.000837
Cu2   Cu    Cu3+1 0.500000 0.500000 0.374700 1.000602
C5    C     C_R   0.176682 0.390501 0.505973 0.587938
C6    C     C_R   0.823025 0.612563 0.492316 0.589701
C7    C     C_R   0.178901 0.587247 0.449268 0.601865
C8    C     C_R   0.821422 0.416854 0.553452 0.585113
O9    O     O_2   0.201617 0.297809 0.541402 -0.437217
O10   O     O_2   0.797824 0.704090 0.454423 -0.435883
O11   O     O_2   0.205918 0.681922 0.433142 -0.441599
O12   O     O_2   0.794793 0.321784 0.571159 -0.422887
N1    N     N_R   0.201517 0.488569 0.480914 -0.487266
N2    N     N_R   0.798479 0.514509 0.519476 -0.486834
C9    C     C_R   0.277450 0.486071 0.604511 -0.080835
C10   C     C_R   0.720671 0.508244 0.626991 -0.078057
C11   C     C_R   0.279290 0.493844 0.373192 -0.081708
C12   C     C_R   0.722560 0.514988 0.395638 -0.075073
C13   C     C_R   0.327688 0.489874 0.609243 -0.197220
C14   C     C_R   0.670593 0.503814 0.622470 -0.188612
C15   C     C_R   0.329379 0.497482 0.377624 -0.196174
C16   C     C_R   0.672328 0.510433 0.390823 -0.194982
C17   C     C_R   0.253154 0.488250 0.486422 0.329008
C18   C     C_R   0.746835 0.513766 0.513795 0.327089
C19   C     C_R   0.101564 0.491905 0.474660 -0.138162
C20   C     C_R   0.898446 0.513148 0.526269 -0.130239
C21   C     C_R   0.125823 0.387899 0.499229 -0.118715
C22   C     C_R   0.873886 0.616240 0.499441 -0.116711
C23   C     C_R   0.128196 0.590944 0.439806 -0.123468
C24   C     C_R   0.872103 0.414370 0.563363 -0.134789
C25   C     C_R   0.098052 0.286513 0.515274 0.393073
C26   C     C_R   0.901371 0.717759 0.481461 0.371276
C27   C     C_R   0.102919 0.688814 0.397312 0.427949
C28   C     C_R   0.897638 0.317845 0.608366 0.363341
C29   C     C_R   0.354086 0.495830 0.495687 -0.048501
C30   C     C_R   0.645912 0.504639 0.504356 -0.050817
H1    H     H_    0.348711 0.501901 0.288527 0.167069
H2    H     H_    0.654233 0.511404 0.298588 0.167006
H3    H     H_    0.345802 0.488266 0.701437 0.165895
H4    H     H_    0.651249 0.499555 0.711556 0.167982
H5    H     H_    0.260665 0.495912 0.281715 0.155183
H6    H     H_    0.742657 0.518568 0.307734 0.153116
H7    H     H_    0.257366 0.482409 0.692432 0.152075
H8    H     H_    0.739269 0.506926 0.718529 0.151701
C31   C     C_R   0.973753 0.405889 0.541701 0.016200
C32   C     C_R   0.026356 0.600066 0.460024 0.009535
C33   C     C_R   0.975794 0.606890 0.479328 0.028769
C34   C     C_R   0.024117 0.398693 0.520777 0.024597
C35   C     C_R   0.949431 0.508700 0.515875 0.083838
C36   C     C_R   0.050585 0.496903 0.485078 0.084776
C37   C     C_R   0.947433 0.314837 0.595091 -0.231165
C38   C     C_R   0.053048 0.691814 0.409346 -0.256815
C39   C     C_R   0.951177 0.710883 0.470252 -0.273587
C40   C     C_R   0.048319 0.294110 0.527191 -0.256995
H9    H     H_    0.965447 0.241248 0.632891 0.187532
H10   H     H_    0.035407 0.766392 0.373150 0.201765
H11   H     H_    0.970460 0.790040 0.459343 0.189815
H12   H     H_    0.028570 0.215277 0.535915 0.183495
C41   C     C_1   0.499978 0.161930 0.499928 -0.158128
C42   C     C_1   0.500022 0.838070 0.500072 -0.158539
C43   C     C_1   0.499991 0.059728 0.499963 0.028335
C44   C     C_1   0.500008 0.940272 0.500036 0.028142
N3    N     N_1   0.500000 0.500000 0.186410 -0.140552
N4    N     N_1   0.500000 0.500000 0.813590 -0.140491
C45   C     C_1   0.500000 0.500000 0.072052 0.097690
C46   C     C_1   0.500000 0.500000 0.927948 0.097828
S1    S     S_3+6 0.121883 0.146357 0.509351 0.111161
O13   O     O_2   0.155991 0.137112 0.399571 -0.159027
O14   O     O_2   0.148458 0.121068 0.631983 -0.224684
O15   O     O_3   0.077766 0.048339 0.488282 -0.476393
H13   H     H_    0.067922 0.025885 0.575450 0.351713
S2    S     S_3+6 0.877021 0.857539 0.483384 0.115135
O16   O     O_2   0.851172 0.879618 0.358998 -0.162224
O17   O     O_2   0.842231 0.868726 0.591465 -0.190955
O18   O     O_3   0.920683 0.956964 0.501691 -0.484766
H14   H     H_    0.932026 0.948884 0.591316 0.363702
S3    S     S_3+6 0.130500 0.806647 0.318341 0.100788
O19   O     O_2   0.093437 0.879155 0.252521 -0.233095
O20   O     O_2   0.157406 0.878396 0.415070 -0.154142
O21   O     O_3   0.168929 0.758778 0.208072 -0.499636
H15   H     H_    0.185733 0.827868 0.176406 0.390541
S4    S     S_3+6 0.870552 0.202545 0.692924 0.104773
O22   O     O_2   0.844259 0.126169 0.599645 -0.104347
O23   O     O_2   0.907793 0.133463 0.762665 -0.282911
O24   O     O_3   0.831348 0.252381 0.800066 -0.451115
H16   H     H_    0.850160 0.307802 0.852397 0.336508

loop_
_geom_bond_atom_site_label_1
_geom_bond_atom_site_label_2
_geom_bond_distance
_ccdc_geom_bond_type
O5    Cu1   1.946499 S    
S3    O19   1.503816 D    
C31   C35   1.413870 A    
C16   H2    1.082889 S    
O24   H16   0.990559 S    
C26   S2    1.781375 S    
C20   C35   1.424118 A    
C13   H3    1.082897 S    
O18   H14   0.990649 S    
C11   C17   1.398837 A    
C5    O9    1.345836 S    
C7    N1    1.362597 A    
N4    C46   1.196738 T    
C21   C25   1.422307 A    
O1    C1    1.275120 A    
C40   H12   1.075030 S    
C19   C21   1.422737 A    
C9    H7    1.082785 S    
C22   C26   1.422045 A    
C25   S1    1.781038 S    
C33   C35   1.414205 A    
C34   C36   1.413464 A    
C32   C33   1.425387 A    
C7    C23   1.412650 A    
C41   C43   1.199297 T    
O7    Cu1   1.951595 S    
C5    C21   1.414425 A    
C1    C41   1.424269 S    
C10   C18   1.398901 A    
N1    C17   1.435666 S    
C8    N2    1.362664 A    
C28   S4    1.782236 S    
C6    O10   1.345835 S    
O3    C2    1.275233 A    
C5    N1    1.362795 A    
C14   H4    1.082940 S    
C12   C18   1.401284 A    
C6    N2    1.363210 A    
C15   H1    1.082945 S    
Cu1   Cu2   2.622483 S    
C34   C40   1.407128 A    
N3    C45   1.196738 T    
O2    C2    1.275119 A    
C10   H8    1.082975 S    
C11   H5    1.082964 S    
C33   C39   1.408176 A    
S1    O14   1.503965 D    
C9    C13   1.396779 A    
C39   H11   1.074209 S    
C38   H10   1.074631 S    
C11   C15   1.392542 A    
Cu2   N3    1.970421 S    
C20   C24   1.421112 A    
C4    C30   1.473215 S    
O8    Cu2   1.951598 S    
O4    C1    1.275233 A    
C23   C27   1.421458 A    
S1    O13   1.503238 D    
S4    O24   1.682315 S    
C7    O11   1.346058 S    
C32   C36   1.414702 A    
C13   C29   1.405793 A    
C19   C36   1.424286 A    
C19   C23   1.421341 A    
C45   C46   1.508017 S    
O5    C3    1.282094 A    
C12   C16   1.396846 A    
O6    C4    1.282129 A    
S4    O23   1.503705 D    
C10   C14   1.392469 A    
S2    O17   1.503849 D    
S3    O20   1.503007 D    
C32   C38   1.408525 A    
C3    C29   1.473188 S    
O1    Cu1   1.921133 S    
S1    O15   1.684444 S    
C2    C42   1.424268 S    
O6    Cu2   1.946496 S    
C8    O12   1.346271 S    
C16   C30   1.405779 A    
C14   C30   1.406178 A    
O15   H13   0.990650 S    
O3    Cu1   1.921371 S    
C28   C37   1.393515 A    
S2    O18   1.683368 S    
C27   S3    1.782350 S    
C20   C22   1.421895 A    
C43   C44   1.401785 S    
C12   H6    1.082780 S    
O21   H15   0.990569 S    
C31   C34   1.422949 A    
C31   C37   1.408153 A    
S4    O22   1.502332 D    
O4    Cu2   1.921372 S    
O2    Cu2   1.921133 S    
O7    C4    1.279528 A    
N2    C18   1.435812 S    
O8    C3    1.279554 A    
C37   H9    1.075953 S    
C24   C28   1.420617 A    
C8    C24   1.411759 A    
Cu1   N4    1.970422 S    
S2    O16   1.502856 D    
C15   C29   1.406210 A    
S3    O21   1.682590 S    
C9    C17   1.401161 A    
C42   C44   1.199296 T    
C25   C40   1.393260 A    
C26   C39   1.393932 A    
C27   C38   1.394210 A    
C6    C22   1.414845 A    
