data_mof_unit_40549.cif
_audit_creation_date              2012-12-11T16:01:36-0500
_audit_creation_method            fapswitch 2.2
_symmetry_space_group_name_H-M    P1
_symmetry_Int_Tables_number       1
_space_group_crystal_system       triclinic
_cell_length_a                    23.462751
_cell_length_b                    25.387397
_cell_length_c                    8.886541
_cell_angle_alpha                 89.969066
_cell_angle_beta                  99.516319
_cell_angle_gamma                 89.961699
_cell_volume                      5220.49445595

loop_
_atom_site_label
_atom_site_type_symbol
_atom_type_description
_atom_site_fract_x
_atom_site_fract_y
_atom_site_fract_z
_atom_type_partial_charge
Ba1   Ba    Ba6+2 0.999910 0.463090 0.844860 1.567310
Ba2   Ba    Ba6+2 0.999910 0.536910 0.344860 1.567287
Ba3   Ba    Ba6+2 0.499910 0.963090 0.844860 1.569554
Ba4   Ba    Ba6+2 0.499910 0.036910 0.344860 1.569346
C1    C     C_3   0.001833 0.198927 0.525914 0.138013
C2    C     C_R   0.836606 0.658502 0.581890 -0.182557
C3    C     C_3   0.774850 0.103022 0.812411 -0.424337
C4    C     C_3   0.243182 0.414805 0.042863 -0.388230
C5    C     C_3   0.243270 0.584624 0.541995 -0.388116
C6    C     C_3   0.743127 0.915262 0.041518 -0.388102
C7    C     C_3   0.742795 0.085039 0.541416 -0.388525
C8    C     C_3   0.774808 0.554058 0.855214 -0.398550
C9    C     C_3   0.774602 0.446372 0.354411 -0.398502
C10   C     C_3   0.275408 0.058052 0.889441 -0.392665
C11   C     C_3   0.257229 0.966228 0.319932 -0.332859
C12   C     C_3   0.733719 0.406588 0.847699 -0.431555
C13   C     C_R   0.336335 0.841515 0.081499 -0.179547
C14   C     C_3   0.733379 0.593829 0.349780 -0.432375
C15   C     C_3   0.239508 0.910332 0.822569 -0.416834
C16   C     C_3   0.197612 0.082099 0.306113 -0.486845
C17   C     C_3   0.047643 0.190185 0.421669 -0.440958
C18   C     C_3   0.048103 0.809287 0.920621 -0.438930
C19   C     C_3   0.547891 0.690737 0.420289 -0.439443
C20   C     C_3   0.546440 0.309932 0.919001 -0.439593
C21   C     C_3   0.014554 0.158855 0.658391 -0.372571
C22   C     C_3   0.015298 0.840747 0.157534 -0.372063
C23   C     C_3   0.514813 0.659245 0.656857 -0.372541
C24   C     C_R   0.330099 0.154946 0.584888 -0.175925
C25   C     C_3   0.514923 0.340435 0.158657 -0.373906
C26   C     C_3   0.976393 0.167450 0.044597 -0.402341
C27   C     C_3   0.976642 0.832526 0.543603 -0.402481
C28   C     C_3   0.476676 0.667574 0.043202 -0.402605
C29   C     C_3   0.471791 0.331494 0.542237 -0.403900
C30   C     C_3   0.918069 0.432181 0.383713 -0.231274
C31   C     C_3   0.918318 0.567868 0.883812 -0.231185
C32   C     C_3   0.414437 0.932941 0.384653 -0.224683
C33   C     C_3   0.419654 0.068241 0.883804 -0.233958
C34   C     C_3   0.941388 0.185726 0.436642 -0.344337
C35   C     C_R   0.818023 0.302498 0.177044 0.005706
C36   C     C_3   0.941907 0.814242 0.936030 -0.344620
C37   C     C_3   0.441619 0.685893 0.434951 -0.344572
C38   C     C_3   0.440566 0.314580 0.938326 -0.342897
C39   C     C_3   0.881725 0.215621 0.987920 -0.461514
C40   C     C_3   0.882005 0.784428 0.487417 -0.461884
C41   C     C_3   0.382087 0.715872 0.985758 -0.460990
C42   C     C_3   0.378620 0.280878 0.489183 -0.461253
C43   C     C_3   0.197412 0.470643 0.407930 -0.275093
C44   C     C_3   0.197787 0.528941 0.907927 -0.275768
C45   C     C_3   0.697809 0.970735 0.407806 -0.276117
C46   C     C_R   0.818249 0.697674 0.676759 0.005664
C47   C     C_3   0.697290 0.029431 0.907379 -0.275134
C48   C     C_3   0.139097 0.437157 0.185569 -0.252140
C49   C     C_3   0.139319 0.562672 0.685665 -0.251994
C50   C     C_3   0.639256 0.937235 0.185578 -0.251571
C51   C     C_3   0.638762 0.062842 0.684663 -0.251966
C52   C     C_R   0.317918 0.802299 0.176366 0.004945
C53   C     C_R   0.314026 0.195265 0.679463 0.012383
C54   C     C_R   0.845447 0.299766 0.330188 -0.135419
C55   C     C_R   0.845657 0.700374 0.829858 -0.135485
C56   C     C_R   0.345091 0.799615 0.329799 -0.135824
C57   C     C_3   0.002338 0.800755 0.025081 0.136903
C58   C     C_R   0.343772 0.199396 0.830288 -0.135724
C59   C     C_R   0.885739 0.338359 0.391255 0.020326
C60   C     C_R   0.885891 0.661710 0.891073 0.020113
C61   C     C_R   0.384616 0.838668 0.391650 0.026269
C62   C     C_R   0.384823 0.161250 0.890653 0.018806
C63   C     C_R   0.170176 0.655940 0.112414 -0.137108
C64   C     C_R   0.168880 0.343467 0.613802 -0.137828
C65   C     C_R   0.669964 0.156236 0.112771 -0.136760
C66   C     C_R   0.670089 0.843974 0.612789 -0.136979
C67   C     C_R   0.122854 0.621967 0.063524 0.083690
C68   C     C_3   0.501992 0.699300 0.524350 0.137860
C69   C     C_R   0.122210 0.378001 0.563832 0.085565
C70   C     C_R   0.622771 0.122119 0.063675 0.083703
C71   C     C_R   0.622771 0.878020 0.563747 0.084116
C72   C     C_R   0.101360 0.672032 0.824026 -0.003519
C73   C     C_R   0.100549 0.327882 0.324713 -0.003697
C74   C     C_R   0.601051 0.172394 0.824334 -0.004387
C75   C     C_R   0.601275 0.827969 0.324465 -0.003973
C76   C     C_R   0.148406 0.705719 0.875453 -0.130626
C77   C     C_R   0.146921 0.293616 0.377248 -0.130738
C78   C     C_R   0.647992 0.206209 0.876048 -0.130775
C79   C     C_3   0.501343 0.300960 0.025116 0.137415
C80   C     C_R   0.648341 0.794227 0.376049 -0.130477
C81   C     C_R   0.182608 0.698775 0.020748 -0.003059
C82   C     C_R   0.180732 0.300300 0.522947 -0.003680
C83   C     C_R   0.682284 0.199207 0.021340 -0.002455
C84   C     C_R   0.682535 0.801113 0.521336 -0.003146
C85   C     C_3   0.974001 0.268497 0.064130 0.343984
C86   C     C_3   0.974313 0.731484 0.563344 0.344709
C87   C     C_3   0.474357 0.768622 0.063007 0.343848
C88   C     C_3   0.472510 0.230510 0.565197 0.346169
C89   C     C_1   0.231139 0.734769 0.073482 -0.006135
C90   C     C_R   0.873142 0.383266 0.143624 0.070900
C91   C     C_1   0.228204 0.263551 0.577133 -0.006119
C92   C     C_1   0.730871 0.235203 0.074263 -0.005830
C93   C     C_1   0.731145 0.765102 0.574149 -0.005822
C94   C     C_1   0.770748 0.265603 0.119323 -0.012065
C95   C     C_1   0.771013 0.734643 0.619079 -0.011946
C96   C     C_1   0.270898 0.765255 0.118431 -0.012132
C97   C     C_1   0.267285 0.232536 0.622648 -0.010571
C98   C     C_R   0.087097 0.632573 0.923061 -0.245145
C99   C     C_R   0.086561 0.367675 0.423038 -0.245341
C100  C     C_R   0.587064 0.132736 0.923133 -0.244357
C101  C     C_R   0.873213 0.616760 0.643564 0.070887
C102  C     C_R   0.586930 0.867443 0.423391 -0.246269
C103  C     C_3   0.946277 0.218717 0.984239 -0.041458
C104  C     C_3   0.946534 0.781300 0.483440 -0.041566
C105  C     C_3   0.446695 0.718887 0.982783 -0.041259
C106  C     C_3   0.443142 0.279453 0.483900 -0.042364
C107  C     C_3   0.192133 0.469539 0.240743 0.333047
C108  C     C_3   0.192337 0.530132 0.740623 0.333569
C109  C     C_3   0.692295 0.969664 0.240457 0.333471
C110  C     C_3   0.691916 0.030505 0.740103 0.332892
C111  C     C_3   0.251278 0.442520 0.202058 0.139702
C112  C     C_R   0.372972 0.883178 0.143437 0.069409
C113  C     C_3   0.251441 0.557003 0.701448 0.139358
C114  C     C_3   0.751360 0.942747 0.201038 0.139380
C115  C     C_3   0.750948 0.057552 0.701020 0.139319
C116  C     C_3   0.789101 0.494891 0.873519 0.346066
C117  C     C_3   0.788889 0.505499 0.373731 0.346141
C118  C     C_3   0.291260 0.999485 0.880743 0.350648
C119  C     C_3   0.282559 0.019156 0.381311 0.334552
C120  C     C_3   0.730474 0.466029 0.862024 -0.208222
C121  C     C_3   0.730270 0.534368 0.363745 -0.208724
C122  C     C_3   0.233458 0.969125 0.846850 -0.197023
C123  C     C_R   0.369612 0.115112 0.644860 0.041399
C124  C     C_3   0.234771 0.052244 0.436355 -0.219345
C125  C     C_3   0.002542 0.258336 0.578744 0.380102
C126  C     C_3   0.002840 0.741346 0.077911 0.380890
C127  C     C_3   0.502433 0.758701 0.577126 0.380832
C128  C     C_3   0.502196 0.241455 0.076917 0.381901
C129  C     C_R   0.894565 0.382751 0.302510 -0.213308
C130  C     C_R   0.894703 0.617285 0.802454 -0.213061
C131  C     C_R   0.392714 0.883241 0.303178 -0.216085
C132  C     C_R   0.393439 0.116749 0.802307 -0.207136
C133  C     C_3   0.055626 0.271314 0.698240 -0.293110
C134  C     C_R   0.836459 0.341617 0.082071 -0.182435
C135  C     C_3   0.056031 0.728037 0.196880 -0.293252
C136  C     C_3   0.555559 0.771899 0.696399 -0.293829
C137  C     C_3   0.555462 0.228246 0.195815 -0.291988
C138  C     C_3   0.301118 0.483996 0.217260 -0.334734
C139  C     C_3   0.301281 0.515454 0.716788 -0.334707
C140  C     C_3   0.801206 0.984219 0.216348 -0.334464
C141  C     C_3   0.800978 0.016188 0.716939 -0.334741
C142  C     C_3   0.275458 0.397258 0.314242 -0.424692
C143  C     C_3   0.275645 0.602285 0.813173 -0.424420
C144  C     C_3   0.775576 0.897347 0.312557 -0.424651
H1    H     H_    0.004666 0.283052 0.476057 -0.049224
H2    H     H_    0.057007 0.313876 0.725062 0.154989
H3    H     H_    0.542215 0.719119 0.324549 0.132212
H4    H     H_    0.592311 0.695500 0.484577 0.115973
H5    H     H_    0.543219 0.350560 0.871776 0.122282
H6    H     H_    0.591143 0.305046 0.981468 0.115683
H7    H     H_    0.540295 0.281796 0.822772 0.132532
H8    H     H_    0.980443 0.159677 0.729880 0.114760
H9    H     H_    0.057382 0.165372 0.729902 0.103774
H10   H     H_    0.015017 0.118117 0.612702 0.108321
H11   H     H_    0.981264 0.840048 0.229270 0.114896
H12   H     H_    0.015851 0.881491 0.111816 0.108139
H13   H     H_    0.054136 0.249733 0.805234 0.150556
H14   H     H_    0.058154 0.834046 0.228810 0.103396
H15   H     H_    0.480600 0.659853 0.728060 0.114822
H16   H     H_    0.557551 0.665930 0.728640 0.103316
H17   H     H_    0.515549 0.618528 0.611164 0.107888
H18   H     H_    0.482313 0.338048 0.234401 0.116261
H19   H     H_    0.513689 0.381483 0.114532 0.108249
H20   H     H_    0.558672 0.334306 0.225810 0.103653
H21   H     H_    0.970008 0.159797 0.162423 0.129036
H22   H     H_    0.957801 0.133602 0.973908 0.104527
H23   H     H_    0.023373 0.168909 0.040126 0.149962
H24   H     H_    0.096397 0.738411 0.155487 0.052067
H25   H     H_    0.957987 0.866401 0.472941 0.104595
H26   H     H_    0.970355 0.840144 0.661480 0.128945
H27   H     H_    0.023590 0.831032 0.538876 0.149363
H28   H     H_    0.470221 0.659934 0.160975 0.128948
H29   H     H_    0.458052 0.633758 0.972413 0.104473
H30   H     H_    0.523672 0.668965 0.038899 0.149175
H31   H     H_    0.465979 0.339038 0.660563 0.129102
H32   H     H_    0.518654 0.331176 0.535888 0.148625
H33   H     H_    0.451731 0.364795 0.471324 0.105196
H34   H     H_    0.198209 0.648056 0.219636 0.079250
H35   H     H_    0.054987 0.749736 0.303878 0.150250
H36   H     H_    0.196756 0.351046 0.721429 0.079771
H37   H     H_    0.698021 0.148341 0.219945 0.078919
H38   H     H_    0.698135 0.851845 0.719950 0.079052
H39   H     H_    0.834985 0.268081 0.402585 0.071510
H40   H     H_    0.835215 0.732091 0.902129 0.071346
H41   H     H_    0.334973 0.767662 0.401750 0.070998
H42   H     H_    0.334247 0.231674 0.901853 0.070698
H43   H     H_    0.820530 0.340644 0.961192 0.091230
H44   H     H_    0.820636 0.659485 0.461024 0.091377
H45   H     H_    0.320616 0.840481 0.960475 0.090056
H46   H     H_    0.057097 0.685509 0.224171 0.155626
H47   H     H_    0.309863 0.153161 0.466306 0.082172
H48   H     H_    0.895310 0.467244 0.332223 0.110263
H49   H     H_    0.907999 0.434416 0.500666 0.142301
H50   H     H_    0.965098 0.435226 0.384954 0.129504
H51   H     H_    0.895638 0.532798 0.832515 0.109873
H52   H     H_    0.965358 0.564856 0.885033 0.129633
H53   H     H_    0.908232 0.565618 0.000747 0.142214
H54   H     H_    0.391460 0.967597 0.330279 0.129451
H55   H     H_    0.403570 0.934345 0.501017 0.151547
H56   H     H_    0.461640 0.936573 0.388703 0.125956
H57   H     H_    0.595978 0.761456 0.655306 0.052475
H58   H     H_    0.399014 0.032293 0.834162 0.104595
H59   H     H_    0.466692 0.066963 0.884185 0.127066
H60   H     H_    0.409706 0.065266 0.000667 0.140127
H61   H     H_    0.051462 0.606603 0.883169 0.048265
H62   H     H_    0.051292 0.394007 0.382471 0.048989
H63   H     H_    0.551659 0.106646 0.882934 0.046698
H64   H     H_    0.551114 0.893404 0.383662 0.050381
H65   H     H_    0.907955 0.188172 0.511563 0.129376
H66   H     H_    0.929333 0.213887 0.342035 0.090413
H67   H     H_    0.939947 0.144990 0.390599 0.094890
H68   H     H_    0.556682 0.814413 0.723660 0.155504
H69   H     H_    0.908517 0.811936 0.011106 0.129456
H70   H     H_    0.940593 0.854990 0.889973 0.094806
H71   H     H_    0.929696 0.786146 0.841457 0.090474
H72   H     H_    0.408142 0.688236 0.509764 0.129541
H73   H     H_    0.429464 0.713993 0.340227 0.090501
H74   H     H_    0.440353 0.645140 0.389083 0.094681
H75   H     H_    0.407700 0.312338 0.014956 0.129674
H76   H     H_    0.439095 0.355345 0.892332 0.094008
H77   H     H_    0.427750 0.286518 0.843855 0.089986
H78   H     H_    0.952834 0.303229 0.001923 0.062297
H79   H     H_    0.554388 0.750211 0.803422 0.149525
H80   H     H_    0.953158 0.696803 0.501108 0.062933
H81   H     H_    0.453327 0.803349 0.000475 0.063081
H82   H     H_    0.451957 0.195238 0.504826 0.062400
H83   H     H_    0.967085 0.270177 0.184491 -0.055989
H84   H     H_    0.967366 0.729755 0.683683 -0.056220
H85   H     H_    0.467149 0.770349 0.183118 -0.056856
H86   H     H_    0.465954 0.229120 0.685925 -0.057821
H87   H     H_    0.863389 0.180153 0.926265 0.131858
H88   H     H_    0.873535 0.212912 0.106706 0.131592
H89   H     H_    0.859471 0.250334 0.929409 0.138337
H90   H     H_    0.595754 0.239199 0.154812 0.051688
H91   H     H_    0.863604 0.819928 0.425849 0.131989
H92   H     H_    0.859748 0.749751 0.428999 0.138380
H93   H     H_    0.873889 0.787086 0.606266 0.131628
H94   H     H_    0.363726 0.680593 0.923152 0.131757
H95   H     H_    0.373721 0.712898 0.104348 0.131446
H96   H     H_    0.359993 0.750750 0.927808 0.138502
H97   H     H_    0.358586 0.315212 0.424596 0.132401
H98   H     H_    0.357585 0.245030 0.434557 0.139431
H99   H     H_    0.370861 0.284343 0.608234 0.130918
H100  H     H_    0.950760 0.221912 0.863886 0.162244
H101  H     H_    0.554081 0.249540 0.303408 0.151198
H102  H     H_    0.950934 0.778130 0.363042 0.162282
H103  H     H_    0.451400 0.722118 0.862621 0.162262
H104  H     H_    0.447275 0.276226 0.363241 0.163209
H105  H     H_    0.197728 0.430685 0.456338 0.055864
H106  H     H_    0.238378 0.489260 0.453605 0.110119
H107  H     H_    0.160327 0.492949 0.434993 0.123817
H108  H     H_    0.238731 0.510143 0.953282 0.109800
H109  H     H_    0.198261 0.568861 0.956447 0.056688
H110  H     H_    0.160671 0.506777 0.935225 0.124119
H111  H     H_    0.698265 0.930795 0.456304 0.056357
H112  H     H_    0.004695 0.716653 0.975094 -0.049777
H113  H     H_    0.556948 0.185644 0.222084 0.154665
H114  H     H_    0.738780 0.989427 0.453227 0.109800
H115  H     H_    0.660698 0.992954 0.435083 0.123982
H116  H     H_    0.738293 0.010800 0.953068 0.109993
H117  H     H_    0.697640 0.069366 0.955583 0.055851
H118  H     H_    0.660236 0.007172 0.934724 0.123691
H119  H     H_    0.103189 0.445655 0.248628 0.060825
H120  H     H_    0.121844 0.447022 0.070527 0.179064
H121  H     H_    0.152383 0.395975 0.196300 0.060973
H122  H     H_    0.103507 0.554406 0.749281 0.060007
H123  H     H_    0.152734 0.603799 0.695753 0.060933
H124  H     H_    0.337672 0.469865 0.162919 0.091569
H125  H     H_    0.121869 0.552816 0.570727 0.178874
H126  H     H_    0.603460 0.945516 0.249269 0.060005
H127  H     H_    0.621808 0.947164 0.070639 0.178975
H128  H     H_    0.652664 0.896091 0.195715 0.060910
H129  H     H_    0.603019 0.054636 0.748535 0.060245
H130  H     H_    0.651910 0.104059 0.693476 0.061430
H131  H     H_    0.621278 0.052569 0.570132 0.179659
H132  H     H_    0.319072 0.491675 0.338903 0.091740
H133  H     H_    0.287755 0.523133 0.169777 0.127926
H134  H     H_    0.337811 0.529511 0.662273 0.091602
H135  H     H_    0.287901 0.476325 0.669534 0.127795
H136  H     H_    0.319284 0.507788 0.838443 0.091720
H137  H     H_    0.837726 0.970129 0.161806 0.091676
H138  H     H_    0.819218 0.991813 0.337998 0.091748
H139  H     H_    0.787828 0.023380 0.169081 0.127766
H140  H     H_    0.504322 0.783444 0.474358 -0.050532
H141  H     H_    0.837461 0.030287 0.662307 0.091737
H142  H     H_    0.787771 0.976958 0.670156 0.127963
H143  H     H_    0.818991 0.008731 0.838700 0.091669
H144  H     H_    0.291639 0.411366 0.431827 0.107863
H145  H     H_    0.242511 0.366311 0.320216 0.114070
H146  H     H_    0.312962 0.378379 0.274143 0.122907
H147  H     H_    0.292013 0.588213 0.930765 0.107873
H148  H     H_    0.312963 0.621179 0.772382 0.122883
H149  H     H_    0.242669 0.633219 0.819217 0.114457
H150  H     H_    0.792029 0.911316 0.430143 0.107924
H151  H     H_    0.504095 0.216927 0.973816 -0.051110
H152  H     H_    0.742581 0.866476 0.318686 0.114496
H153  H     H_    0.812825 0.878395 0.271494 0.122977
H154  H     H_    0.791276 0.089102 0.930130 0.107865
H155  H     H_    0.812049 0.122103 0.771533 0.123017
H156  H     H_    0.741667 0.133788 0.818148 0.114474
H157  H     H_    0.230683 0.372729 0.050030 0.128099
H158  H     H_    0.208260 0.431003 0.960361 0.153553
H159  H     H_    0.283363 0.415469 0.992057 0.101340
H160  H     H_    0.230969 0.626777 0.548863 0.127787
H161  H     H_    0.283347 0.583684 0.490753 0.101350
H162  H     H_    0.159450 0.736289 0.800254 0.083027
H163  H     H_    0.208183 0.568541 0.459964 0.153827
H164  H     H_    0.730630 0.873168 0.048230 0.128020
H165  H     H_    0.708155 0.931570 0.959485 0.153940
H166  H     H_    0.783237 0.916034 0.990408 0.101318
H167  H     H_    0.729895 0.127052 0.547778 0.127826
H168  H     H_    0.783060 0.084543 0.490970 0.101370
H169  H     H_    0.708130 0.068557 0.458996 0.154133
H170  H     H_    0.810760 0.482857 0.777669 0.099292
H171  H     H_    0.810307 0.517808 0.277662 0.099128
H172  H     H_    0.315490 0.993647 0.785392 0.072453
H173  H     H_    0.157679 0.262698 0.302789 0.083514
H174  H     H_    0.297742 0.039097 0.284219 0.099855
H175  H     H_    0.808687 0.578380 0.922537 0.118515
H176  H     H_    0.769305 0.565713 0.733251 0.086882
H177  H     H_    0.734584 0.564485 0.899359 0.097191
H178  H     H_    0.808407 0.421877 0.421615 0.118762
H179  H     H_    0.734306 0.435844 0.398025 0.096891
H180  H     H_    0.769235 0.434983 0.232296 0.087722
H181  H     H_    0.311800 0.081014 0.951006 0.117008
H182  H     H_    0.262249 0.074839 0.774182 0.065815
H183  H     H_    0.239451 0.063756 0.955132 0.103510
H184  H     H_    0.658904 0.236908 0.801082 0.082734
H185  H     H_    0.290416 0.942615 0.275639 0.103955
H186  H     H_    0.241908 0.943286 0.412029 0.103596
H187  H     H_    0.220664 0.972095 0.225024 0.076224
H188  H     H_    0.767340 0.394889 0.779726 0.142576
H189  H     H_    0.741469 0.389207 0.963360 0.124274
H190  H     H_    0.691454 0.391212 0.789547 0.120583
H191  H     H_    0.766668 0.605623 0.280884 0.141734
H192  H     H_    0.690946 0.609274 0.292763 0.120827
H193  H     H_    0.741525 0.611060 0.465537 0.124511
H194  H     H_    0.276741 0.901394 0.764364 0.152954
H195  H     H_    0.659414 0.763655 0.300941 0.083181
H196  H     H_    0.243368 0.890386 0.934426 0.121228
H197  H     H_    0.199675 0.895074 0.750838 0.114123
H198  H     H_    0.224929 0.108838 0.249232 0.133189
H199  H     H_    0.174507 0.054370 0.220672 0.130734
H200  H     H_    0.165029 0.106245 0.352478 0.140661
H201  H     H_    0.701327 0.480470 0.758428 0.078954
H202  H     H_    0.700853 0.520083 0.260515 0.079194
H203  H     H_    0.207606 0.985561 0.741072 0.070729
H204  H     H_    0.206528 0.027023 0.494933 0.103993
H205  H     H_    0.709737 0.475850 0.962447 0.109089
H206  H     H_    0.096014 0.260420 0.657784 0.052767
H207  H     H_    0.709887 0.524385 0.464658 0.109258
H208  H     H_    0.207990 0.975238 0.940440 0.104729
H209  H     H_    0.254261 0.081439 0.520616 0.092199
H210  H     H_    0.044779 0.149644 0.374004 0.121520
H211  H     H_    0.041992 0.218529 0.325805 0.132168
H212  H     H_    0.092103 0.194854 0.485779 0.115505
H213  H     H_    0.042311 0.780960 0.824839 0.131643
H214  H     H_    0.045341 0.849832 0.872853 0.122072
H215  H     H_    0.092566 0.804418 0.984598 0.116080
H216  H     H_    0.545161 0.650218 0.372480 0.121754
O1    O     O_2   0.888900 0.426190 0.854560 -0.467795
O2    O     O_3   0.033668 0.732353 0.556515 -0.619601
O3    O     O_3   0.533779 0.767638 0.057069 -0.619589
O4    O     O_3   0.531780 0.232415 0.557163 -0.618903
O5    O     O_3   0.064650 0.525760 0.074400 -0.504772
O6    O     O_3   0.064650 0.474240 0.574400 -0.504712
O7    O     O_3   0.564650 0.025760 0.074400 -0.504515
O8    O     O_3   0.564650 0.974240 0.574400 -0.504371
O9    O     O_3   0.935290 0.474120 0.115310 -0.484545
O10   O     O_3   0.935290 0.525880 0.615310 -0.484174
O11   O     O_3   0.435290 0.974120 0.115310 -0.486163
O12   O     O_2   0.888900 0.573810 0.354560 -0.467834
O13   O     O_3   0.435290 0.025880 0.615310 -0.478513
O14   O     O_3   0.980700 0.380570 0.633410 -0.486822
O15   O     O_3   0.980700 0.619430 0.133410 -0.486890
O16   O     O_3   0.480700 0.880570 0.633410 -0.487377
O17   O     O_3   0.480700 0.119430 0.133410 -0.486785
O18   O     O_2   0.882054 0.342783 0.701492 -0.477920
O19   O     O_2   0.882160 0.657426 0.201567 -0.478150
O20   O     O_2   0.382330 0.842583 0.702861 -0.477668
O21   O     O_2   0.382176 0.157291 0.201600 -0.475473
O22   O     O_3   0.824317 0.487907 0.018151 -0.647167
O23   O     O_2   0.388900 0.926190 0.854560 -0.467605
O24   O     O_3   0.824390 0.512082 0.518122 -0.647233
O25   O     O_3   0.323536 0.986336 0.024569 -0.640572
O26   O     O_3   0.328060 0.008436 0.503797 -0.648647
O27   O     O_3   0.952327 0.269837 0.641535 -0.622182
O28   O     O_3   0.952665 0.730107 0.141142 -0.622112
O29   O     O_3   0.452169 0.769929 0.639988 -0.622821
O30   O     O_3   0.452107 0.229987 0.140152 -0.621923
O31   O     O_2   0.110790 0.425640 0.834940 -0.493637
O32   O     O_2   0.110790 0.574360 0.334940 -0.493268
O33   O     O_2   0.610790 0.925640 0.834940 -0.493348
O34   O     O_2   0.388900 0.073810 0.354560 -0.461870
O35   O     O_2   0.610790 0.074360 0.334940 -0.494306
O36   O     O_3   0.018840 0.380480 0.055970 -0.477710
O37   O     O_3   0.018840 0.619520 0.555970 -0.477885
O38   O     O_3   0.518840 0.880480 0.055970 -0.478421
O39   O     O_3   0.518840 0.119520 0.555970 -0.477069
O40   O     O_2   0.113438 0.331502 0.017084 -0.487331
O41   O     O_2   0.113473 0.668139 0.515837 -0.487165
O42   O     O_2   0.613521 0.831783 0.016282 -0.486868
O43   O     O_2   0.612678 0.169346 0.515555 -0.487750
O44   O     O_3   0.185534 0.476405 0.691269 -0.656725
O45   O     O_3   0.185440 0.523308 0.191378 -0.656719
O46   O     O_3   0.685376 0.976702 0.691188 -0.656900
O47   O     O_3   0.685494 0.023423 0.191162 -0.656863
O48   O     O_3   0.033341 0.267571 0.057223 -0.619599
P1    P     P_3+3 0.883430 0.443490 0.026090 0.960432
P2    P     P_3+3 0.065843 0.672302 0.617380 0.903506
P3    P     P_3+3 0.565859 0.827679 0.117740 0.903041
P4    P     P_3+3 0.565174 0.172773 0.617679 0.903566
P5    P     P_3+3 0.925305 0.666947 0.090395 0.931590
P6    P     P_3+3 0.925238 0.333120 0.590520 0.931633
P7    P     P_3+3 0.425022 0.166766 0.089589 0.930350
P8    P     P_3+3 0.424996 0.833285 0.590311 0.932826
P9    P     P_3+3 0.883430 0.556510 0.526090 0.960614
P10   P     P_3+3 0.383430 0.943490 0.026090 0.963921
P11   P     P_3+3 0.383430 0.056510 0.526090 0.954425
P12   P     P_3+3 0.116320 0.442910 0.663460 0.934916
P13   P     P_3+3 0.116320 0.557090 0.163460 0.935143
P14   P     P_3+3 0.616320 0.942910 0.663460 0.935201
P15   P     P_3+3 0.616320 0.057090 0.163460 0.935088
P16   P     P_3+3 0.065556 0.327549 0.117907 0.903957

loop_
_geom_bond_atom_site_label_1
_geom_bond_atom_site_label_2
_ccdc_geom_bond_type
C45   C109  S    
C51   H131  S    
C127  O29   S    
C128  H151  S    
C137  H101  S    
C33   H58   S    
C144  H150  S    
C136  H57   S    
C71   P14   S    
C14   H191  S    
C58   H42   S    
C44   H110  S    
C70   P15   S    
C46   C55   A    
C59   C129  A    
C86   H80   S    
C39   H88   S    
C14   C121  S    
C41   C105  S    
C5    H161  S    
Ba1   O6    S    
C117  O24   S    
C77   H173  S    
C78   C83   A    
C24   H47   S    
Ba3   O16   S    
O3    P3    S    
C127  C136  S    
O44   P12   S    
O34   P11   D    
C64   H36   S    
C60   P5    S    
C49   H123  S    
C40   H93   S    
Ba3   P14   S    
C22   H12   S    
O30   P7    S    
C18   H213  S    
C41   H95   S    
C77   C82   A    
O2    P2    S    
Ba3   O7    S    
C140  H139  S    
C28   H30   S    
C11   H185  S    
C34   H66   S    
C73   P16   S    
C99   H62   S    
C20   H6    S    
O12   P9    D    
C60   C130  A    
C63   C81   A    
C28   C105  S    
C3    C115  S    
C123  C132  A    
C31   H53   S    
C35   C94   S    
O38   P3    S    
C74   C100  A    
C4    H157  S    
C104  H102  S    
C25   H18   S    
C26   H21   S    
C63   H34   S    
C76   H162  S    
C74   C78   A    
C80   H195  S    
C15   H194  S    
C108  O44   S    
C65   C70   A    
C85   H83   S    
C89   C96   T    
C72   P2    S    
C61   C131  A    
C43   H106  S    
C116  O22   S    
C144  H152  S    
C67   C98   A    
C56   C61   A    
C51   H129  S    
C42   C106  S    
C75   P3    S    
Ba2   O5    S    
C73   C99   A    
C17   H210  S    
C32   C131  S    
C65   H37   S    
C37   H72   S    
C120  H201  S    
C105  H103  S    
C17   H212  S    
C137  H113  S    
C19   C68   S    
C22   C57   S    
C38   C79   S    
C80   C84   A    
O29   P8    S    
C126  H112  S    
C45   H114  S    
C67   P13   S    
Ba4   O11   S    
C5    H163  S    
C6    H164  S    
C139  H135  S    
C48   C107  S    
O43   P4    D    
C124  H204  S    
C12   C120  S    
C133  H13   S    
C127  H140  S    
C43   C107  S    
C47   H117  S    
O33   P14   D    
O48   P16   S    
O31   P12   D    
C16   H199  S    
C82   C91   S    
C69   C99   A    
C6    H165  S    
C1    C17   S    
Ba3   P10   S    
C50   H128  S    
O26   P11   S    
C85   O48   S    
C9    H179  S    
Ba4   O39   S    
C3    H155  S    
C117  H171  S    
C118  H172  S    
C15   H197  S    
C26   C103  S    
C134  H43   S    
C85   H78   S    
C12   H190  S    
C142  H146  S    
C31   H51   S    
C112  C131  A    
C125  H1    S    
C111  C142  S    
C25   H20   S    
C75   C80   A    
C143  H148  S    
O46   P14   S    
O1    P1    D    
C39   H89   S    
C23   H15   S    
C121  H207  S    
C81   C89   S    
Ba4   O8    S    
C126  O28   S    
C4    H159  S    
C92   C94   T    
C133  H206  S    
C110  C115  S    
C24   C123  A    
Ba2   O32   S    
C10   H183  S    
Ba1   P1    S    
C35   C134  A    
O19   P5    D    
C21   H8    S    
C86   H84   S    
O17   P7    S    
C38   H76   S    
C19   H216  S    
C40   H92   S    
C101  P9    S    
Ba1   O10   S    
C72   C98   A    
C47   C110  S    
O42   P3    D    
C58   C62   A    
C140  H138  S    
C103  H100  S    
C42   H98   S    
Ba3   O38   S    
C123  P11   S    
C141  H142  S    
C138  H132  S    
C106  H104  S    
C35   C54   A    
C36   C57   S    
C75   C102  A    
C59   P6    S    
C117  C121  S    
C9    C117  S    
C30   H50   S    
O11   P10   S    
O9    P1    S    
C50   H126  S    
Ba4   O35   S    
C125  C133  S    
Ba2   O15   S    
C2    C46   A    
C78   H184  S    
C13   C52   A    
C51   H130  S    
Ba3   O23   S    
C44   C108  S    
C133  H2    S    
Ba3   Ba4   S    
C70   C100  A    
C87   O3    S    
C128  C137  S    
Ba1   O14   S    
O4    P4    S    
C54   H39   S    
C72   C76   A    
C14   H192  S    
C98   H61   S    
C51   C110  S    
C53   C97   S    
C87   H85   S    
C91   C97   T    
C84   C93   S    
C86   C104  S    
C39   H87   S    
C18   C57   S    
C45   H111  S    
C88   C106  S    
C5    H160  S    
Ba1   O5    S    
O40   P16   D    
Ba2   O9    S    
C62   C132  A    
C8    H175  S    
C14   H193  S    
C116  C120  S    
C66   H38   S    
C10   H181  S    
O47   P15   S    
C48   H119  S    
C49   H122  S    
C21   H10   S    
C29   C106  S    
O18   P6    D    
C16   H198  S    
C41   H94   S    
C122  H208  S    
C38   H75   S    
O27   P6    S    
C29   H32   S    
C27   H26   S    
C19   H4    S    
C118  O25   S    
C137  H90   S    
C10   C118  S    
C36   H69   S    
C29   H31   S    
Ba2   O6    S    
C34   H67   S    
Ba2   P9    S    
C87   H81   S    
C74   P4    S    
C20   C79   S    
C90   P1    S    
C108  C113  S    
O15   P5    S    
C86   O2    S    
C7    H168  S    
C25   C79   S    
C4    H158  S    
C90   C129  A    
C64   C82   A    
C31   C130  S    
C26   H22   S    
C143  H149  S    
O23   P10   D    
C139  H134  S    
C32   H55   S    
C65   C83   A    
Ba1   O1    S    
C1    C125  S    
C111  C138  S    
C66   C84   A    
C1    C34   S    
C33   H59   S    
C126  C135  S    
C61   P8    S    
C62   P7    S    
C44   H109  S    
Ba2   P13   S    
C17   H211  S    
C22   H14   S    
Ba3   O13   S    
C8    H177  S    
C43   H107  S    
C76   C81   A    
Ba4   P15   S    
C107  O45   S    
C48   H121  S    
Ba3   O33   S    
C73   C77   A    
C85   C103  S    
C46   C95   S    
C33   C132  S    
O8    P14   S    
C22   H11   S    
C39   C103  S    
C16   H200  S    
C41   H96   S    
C141  H141  S    
Ba4   O17   S    
C6    H166  S    
Ba3   O8    S    
C36   H71   S    
Ba4   O34   S    
C90   C134  A    
C28   H29   S    
C11   H186  S    
C9    H178  S    
C34   H65   S    
C100  H63   S    
C20   H5    S    
C68   C127  S    
C43   H105  S    
C124  H209  S    
C115  C141  S    
C15   C122  S    
O14   P6    S    
C113  C143  S    
C25   H19   S    
C114  C144  S    
C120  H205  S    
C79   C128  S    
O25   P10   S    
C112  P10   S    
C143  H147  S    
C109  O47   S    
C69   P12   S    
C2    C101  A    
C63   C67   A    
C119  O26   S    
C52   C56   A    
C71   C102  A    
C2    H44   S    
Ba2   O12   S    
C37   H73   S    
C23   C68   S    
C101  C130  A    
C50   C109  S    
C119  H174  S    
O32   P13   D    
C5    C113  S    
C27   C104  S    
C13   H45   S    
C7    C115  S    
C45   H115  S    
C53   C58   A    
C27   H27   S    
C24   C53   A    
C28   H28   S    
C139  H136  S    
C11   C119  S    
O22   P1    S    
C113  C139  S    
C42   H99   S    
C16   C124  S    
C114  C140  S    
C138  H133  S    
C47   H118  S    
O20   P8    D    
O21   P7    D    
Ba1   Ba2   S    
C141  H143  S    
C4    C111  S    
C8    C116  S    
C142  H144  S    
C56   H41   S    
C7    H169  S    
C9    H180  S    
C116  H170  S    
C44   H108  S    
O41   P2    D    
C135  H46   S    
C3    H156  S    
C49   H125  S    
Ba1   O36   S    
C32   H54   S    
O39   P4    S    
C12   H189  S    
C93   C95   T    
C142  H145  S    
C31   H52   S    
O28   P5    S    
C40   C104  S    
O13   P11   S    
C135  H24   S    
O24   P9    S    
O7    P15   S    
C50   H127  S    
O5    P13   S    
C30   C129  S    
C64   C69   A    
C110  O46   S    
C118  C122  S    
C6    C114  S    
C23   H16   S    
Ba4   O7    S    
C144  H153  S    
C88   H82   S    
C102  H64   S    
C83   C92   S    
C55   H40   S    
Ba2   O37   S    
C8    H176  S    
C57   C126  S    
C37   C68   S    
C10   H182  S    
C49   C108  S    
C48   H120  S    
C23   H17   S    
C21   H9    S    
C1    C21   S    
C52   C96   S    
C128  O30   S    
C18   H215  S    
C40   H91   S    
C66   C71   A    
C135  H35   S    
C27   H25   S    
C38   H77   S    
C30   H48   S    
C54   C59   A    
C19   H3    S    
C122  H203  S    
C136  H79   S    
C36   H70   S    
C140  H137  S    
C125  O27   S    
C11   H187  S    
C37   H74   S    
C42   H97   S    
C20   H7    S    
O6    P12   S    
C121  H202  S    
C47   H116  S    
O36   P16   S    
O10   P9    S    
Ba1   O31   S    
C87   C105  S    
O35   P15   D    
C18   H214  S    
C29   H33   S    
O37   P2    S    
C30   H49   S    
C119  C124  S    
C7    H167  S    
C88   H86   S    
C33   H60   S    
C138  H124  S    
C26   H23   S    
C136  H68   S    
C109  C114  S    
C3    H154  S    
C55   C60   A    
C15   H196  S    
O45   P13   S    
C88   O4    S    
C107  C111  S    
C32   H56   S    
Ba1   P12   S    
C12   H188  S    
Ba4   P11   S    
C13   C112  A    
O16   P8    S    
