data_mof_unit_16502.cif
_audit_creation_date              2012-12-10T17:32:59-0500
_audit_creation_method            fapswitch 2.2
_symmetry_space_group_name_H-M    P1
_symmetry_Int_Tables_number       1
_space_group_crystal_system       triclinic
_cell_length_a                    12.362939
_cell_length_b                    13.337479
_cell_length_c                    14.233175
_cell_angle_alpha                 92.885809
_cell_angle_beta                  107.779078
_cell_angle_gamma                 117.142713
_cell_volume                      1938.26656403

loop_
_atom_site_label
_atom_site_type_symbol
_atom_type_description
_atom_site_fract_x
_atom_site_fract_y
_atom_site_fract_z
_atom_type_partial_charge
C1    C     C_R   0.652014 0.713854 0.510297 0.776093
C2    C     C_R   0.837022 0.484105 0.916268 0.084977
C3    C     C_R   0.777393 0.485420 0.986680 0.164783
C4    C     C_R   0.940611 0.458125 0.941522 -0.066830
C5    C     C_R   0.001231 0.459276 0.044344 0.012278
C6    C     C_R   0.940045 0.462101 0.113202 -0.192931
C7    C     C_R   0.828208 0.472100 0.083815 -0.233449
C8    C     C_R   0.982561 0.426072 0.867762 0.411218
C9    C     C_R   0.095445 0.417086 0.898292 -0.296257
C10   C     C_R   0.165474 0.433266 0.000296 0.086422
C11   C     C_R   0.119173 0.454512 0.074363 0.083390
C12   C     C_R   0.618512 0.517046 0.686772 0.794023
C13   C     C_R   0.280620 0.426362 0.028968 -0.173321
C14   C     C_R   0.351566 0.441986 0.130802 -0.198663
C15   C     C_R   0.195025 0.474222 0.176601 -0.230938
C16   C     C_R   0.133833 0.971674 0.357553 -0.191656
C17   C     C_R   0.249564 0.163564 0.463464 -0.047442
C18   C     C_R   0.746599 0.915965 0.594332 -0.189758
C19   C     C_R   0.845267 0.030071 0.622949 -0.158820
C20   C     C_R   0.942443 0.066833 0.582704 -0.181260
C21   C     C_R   0.941504 0.989238 0.510136 0.081702
C22   C     C_R   0.834644 0.874517 0.475062 0.080596
C23   C     C_R   0.345332 0.285745 0.484984 0.801891
C24   C     C_R   0.043174 0.021471 0.471543 0.074575
C25   C     C_R   0.033292 0.941247 0.395302 0.166193
C26   C     C_R   0.921752 0.832783 0.355496 -0.241166
C27   C     C_R   0.822646 0.800696 0.393206 -0.203812
C28   C     C_R   0.154572 0.131435 0.506117 -0.254953
C29   C     C_R   0.241519 0.082738 0.391249 -0.196239
C30   C     C_R   0.742103 0.836726 0.522752 -0.095978
C31   C     C_R   0.253822 0.684032 0.661427 -0.298874
C32   C     C_R   0.654735 0.342918 0.363819 0.058136
C33   C     C_R   0.732461 0.308881 0.333776 -0.259262
C34   C     C_R   0.380682 0.482204 0.313108 0.789874
C35   C     C_R   0.867782 0.367801 0.384949 -0.204874
C36   C     C_R   0.927764 0.462334 0.467468 0.001865
C37   C     C_R   0.843754 0.494332 0.495412 0.295378
C38   C     C_R   0.067351 0.526315 0.523107 -0.032093
C39   C     C_R   0.118905 0.619945 0.605320 0.185914
C40   C     C_R   0.035846 0.649662 0.631170 -0.255382
C41   C     C_R   0.901916 0.588786 0.577379 -0.161219
C42   C     C_R   0.159272 0.502275 0.501346 0.015286
C43   C     C_R   0.338346 0.655983 0.636265 0.066016
C44   C     C_R   0.677763 0.517247 0.793020 -0.078901
C45   C     C_R   0.309219 0.466571 0.205171 -0.053871
C46   C     C_R   0.667204 0.499947 0.958802 -0.210122
C47   C     C_R   0.615430 0.512621 0.861377 -0.192461
C48   C     C_R   0.792794 0.511629 0.823689 -0.226485
Cu1   Cu    Cu3+1 0.416420 0.526630 0.522910 0.931654
Cu2   Cu    Cu3+1 0.583580 0.473370 0.477090 0.914124
H1    H     H_    0.782910 0.471821 0.138207 0.143863
H2    H     H_    0.315715 0.408743 0.972545 0.127836
H3    H     H_    0.314833 0.106986 0.357382 0.146417
H4    H     H_    0.910583 0.772577 0.294382 0.145917
H5    H     H_    0.127021 0.910766 0.299611 0.136540
H6    H     H_    0.169521 0.195786 0.564763 0.144270
H7    H     H_    0.676721 0.888707 0.631668 0.146729
H8    H     H_    0.015865 0.156728 0.610069 0.129793
H9    H     H_    0.849379 0.089598 0.679764 0.141138
H10   H     H_    0.735674 0.717825 0.355941 0.170709
H11   H     H_    0.442424 0.705279 0.679504 0.118806
H12   H     H_    0.168745 0.498739 0.235782 0.148678
H13   H     H_    0.074943 0.721472 0.693906 0.145227
H14   H     H_    0.293765 0.755662 0.724491 0.135437
H15   H     H_    0.128550 0.432610 0.440174 0.121015
H16   H     H_    0.549929 0.296497 0.323469 0.125735
H17   H     H_    0.922996 0.337670 0.358414 0.134923
H18   H     H_    0.687564 0.236440 0.270430 0.146571
H19   H     H_    0.847638 0.619303 0.603063 0.197378
H20   H     H_    0.439748 0.435648 0.151236 0.145502
H21   H     H_    0.127173 0.395412 0.841032 0.164381
H22   H     H_    0.619425 0.498766 0.011508 0.129492
H23   H     H_    0.526454 0.517736 0.839422 0.155057
H24   H     H_    0.846815 0.529343 0.774076 0.208472
H25   H     H_    0.972943 0.451613 0.189512 0.139172
N1    N     N_R   0.290690 0.566960 0.557640 -0.177874
N2    N     N_R   0.709100 0.433710 0.442970 -0.212924
O1    O     O_R   0.545970 0.684450 0.528810 -0.577478
O2    O     O_R   0.687130 0.639470 0.490120 -0.603011
O3    O     O_R   0.519670 0.535100 0.660030 -0.583493
O4    O     O_R   0.660830 0.490120 0.621340 -0.597976
O5    O     O_R   0.312870 0.360530 0.509880 -0.584144
O6    O     O_R   0.454030 0.315550 0.471190 -0.591266
O7    O     O_R   0.339170 0.509880 0.378660 -0.584963
O8    O     O_R   0.480330 0.464900 0.339970 -0.593578
O9    O     O_3   0.912075 0.396678 0.764754 -0.587846
C49   C     C_3   0.803357 0.284257 0.739456 0.048793
H26   H     H_    0.730124 0.283233 0.769895 0.155473
H27   H     H_    0.833546 0.221971 0.769906 0.125950
C50   C     C_3   0.737907 0.244312 0.624810 -0.753407
H28   H     H_    0.809549 0.247951 0.591362 0.251560
H29   H     H_    0.655677 0.154080 0.603772 0.195146
H30   H     H_    0.698997 0.300839 0.593657 0.272610

loop_
_geom_bond_atom_site_label_1
_geom_bond_atom_site_label_2
_ccdc_geom_bond_type
C49   H26   S    
C23   O5    A    
C17   C29   A    
C35   C36   A    
C4    C8    A    
Cu2   O2    S    
C28   H6    S    
C6    H25   S    
C26   C27   A    
C17   C23   S    
C40   H13   S    
C31   C43   A    
Cu1   O7    S    
C41   H19   S    
C36   C37   A    
C5    C11   A    
C3    C7    A    
C27   H10   S    
C38   C39   A    
C43   N1    A    
Cu1   O1    S    
C18   C19   A    
Cu2   O8    S    
C32   N2    A    
C11   C15   A    
C19   C20   A    
C8    C9    A    
C42   H15   S    
C18   C30   A    
C24   C28   A    
C9    C10   A    
C46   H22   S    
C44   C47   A    
C21   C22   A    
C1    O1    A    
C14   H20   S    
C34   O7    A    
C26   H4    S    
Cu2   O6    S    
C14   C45   A    
C48   H24   S    
C24   C25   A    
C47   H23   S    
C39   C40   A    
O9    C49   S    
C2    C48   A    
C16   C29   A    
C37   N2    A    
C34   O8    A    
Cu1   O5    S    
C2    C4    A    
C13   H2    S    
C18   H7    S    
C50   H29   S    
C35   H17   S    
Cu1   N1    S    
C34   C45   S    
C23   O6    A    
C40   C41   A    
C22   C27   A    
C49   H27   S    
C1    O2    A    
C49   C50   S    
C15   C45   A    
C20   H8    S    
Cu2   N2    S    
C43   H11   S    
C50   H30   S    
C32   H16   S    
C16   C25   A    
C46   C47   A    
C22   C30   A    
C17   C28   A    
C31   H14   S    
C9    H21   S    
C4    C5    A    
C10   C13   A    
C38   C42   A    
C6    C7    A    
C3    C46   A    
C42   N1    A    
Cu1   O3    S    
C19   H9    S    
C32   C33   A    
C36   C38   A    
C2    C3    A    
C25   C26   A    
C16   H5    S    
C7    H1    S    
C12   C44   S    
C50   H28   S    
C5    C6    A    
C29   H3    S    
C12   O3    A    
C1    C30   S    
C33   C35   A    
C15   H12   S    
C31   C39   A    
C12   O4    A    
C8    O9    S    
C37   C41   A    
C10   C11   A    
C20   C21   A    
C33   H18   S    
Cu1   Cu2   S    
C21   C24   A    
C13   C14   A    
C44   C48   A    
Cu2   O4    S    
