data_mof_unit_47463.cif
_audit_creation_date              2012-12-10T18:11:08-0500
_audit_creation_method            fapswitch 2.2
_symmetry_space_group_name_H-M    P1
_symmetry_Int_Tables_number       1
_space_group_crystal_system       triclinic
_cell_length_a                    10.803409
_cell_length_b                    9.665708
_cell_length_c                    10.593953
_cell_angle_alpha                 89.936246
_cell_angle_beta                  87.795652
_cell_angle_gamma                 87.960423
_cell_volume                      1104.72911346

loop_
_atom_site_label
_atom_site_type_symbol
_atom_type_description
_atom_site_fract_x
_atom_site_fract_y
_atom_site_fract_z
_atom_type_partial_charge
C1    C     C_R   0.259997 0.501712 0.498807 0.762753
C2    C     C_3   0.500762 0.499309 0.122823 0.038937
C3    C     C_3   0.064323 0.534109 0.632489 -0.433709
C4    C     C_3   0.077232 0.359137 0.457427 -0.420270
C5    C     C_3   0.921381 0.518051 0.634855 -0.032532
C6    C     C_3   0.935501 0.358108 0.446104 -0.035547
C7    C     C_3   0.068486 0.610520 0.403727 -0.414606
C8    C     C_3   0.120789 0.502933 0.498335 0.134112
C9    C     C_3   0.876892 0.497707 0.497134 0.167222
C10   C     C_3   0.926055 0.616404 0.411702 -0.382337
C11   C     C_3   0.573261 0.079089 0.607174 -0.293479
C12   C     C_3   0.588797 0.913507 0.594179 -0.252727
C13   C     C_3   0.372686 0.090799 0.512661 0.146884
C14   C     C_3   0.377837 0.932249 0.548338 0.123216
C15   C     C_3   0.556973 0.081325 0.381402 0.162614
C16   C     C_3   0.543895 0.915566 0.376666 0.185020
C17   C     C_R   0.500303 0.499868 0.260121 0.761039
C18   C     C_R   0.739055 0.498367 0.497650 0.805371
C19   C     C_R   0.500024 0.500108 0.739985 0.789094
C20   C     C_3   0.398554 0.568846 0.046222 -0.176790
C21   C     C_3   0.501326 0.368380 0.041021 -0.145071
C22   C     C_3   0.399063 0.438083 0.962170 -0.185826
C23   C     C_3   0.500520 0.500686 0.877342 0.031953
C24   C     C_3   0.500050 0.631622 0.959179 -0.132918
C25   C     C_3   0.602811 0.431171 0.953935 -0.159596
C26   C     C_3   0.602292 0.561918 0.038076 -0.168521
Cu1   Cu    Cu3+1 0.499860 0.642410 0.500060 0.909757
Cu2   Cu    Cu3+1 0.499860 0.357590 0.500060 0.889587
H1    H     H_    0.315984 0.387518 0.927925 0.113502
H2    H     H_    0.893770 0.718559 0.450571 0.170090
H3    H     H_    0.889142 0.611362 0.315376 0.149641
H4    H     H_    0.525734 0.104457 0.699743 0.135474
H5    H     H_    0.573446 0.866416 0.688987 0.152895
H6    H     H_    0.665273 0.125686 0.611960 0.169064
H7    H     H_    0.686425 0.884037 0.567657 0.170372
H8    H     H_    0.321485 0.146790 0.591383 0.140864
H9    H     H_    0.372710 0.930350 0.654141 0.098991
H10   H     H_    0.507549 0.121968 0.298830 0.129846
H11   H     H_    0.472532 0.892106 0.307980 0.111927
H12   H     H_    0.315100 0.625061 0.087294 0.112848
H13   H     H_    0.501929 0.260466 0.077098 0.121402
H14   H     H_    0.499567 0.739568 0.923192 0.120090
H15   H     H_    0.686319 0.375048 0.912880 0.116494
H16   H     H_    0.685369 0.612473 0.072349 0.112707
H17   H     H_    0.087627 0.639934 0.661697 0.161672
H18   H     H_    0.123675 0.331502 0.365089 0.172072
H19   H     H_    0.105742 0.461464 0.702123 0.130790
H20   H     H_    0.104044 0.281137 0.529664 0.157518
H21   H     H_    0.899694 0.422625 0.689404 0.118038
H22   H     H_    0.900196 0.272103 0.506012 0.131726
H23   H     H_    0.097651 0.714747 0.425275 0.178815
H24   H     H_    0.102693 0.584846 0.305818 0.149780
N1    N     N_3   0.500250 0.143650 0.502780 -0.146646
N2    N     N_3   0.500250 0.856350 0.502780 -0.130745
O1    O     O_R   0.317570 0.620260 0.500070 -0.578915
O2    O     O_R   0.317570 0.379740 0.500070 -0.594117
O3    O     O_R   0.499850 0.620240 0.316900 -0.592903
O4    O     O_R   0.499850 0.379760 0.316900 -0.609581
O5    O     O_R   0.682190 0.620260 0.500030 -0.579071
O6    O     O_R   0.682190 0.379740 0.500030 -0.594600
O7    O     O_R   0.499910 0.620280 0.683200 -0.580905
O8    O     O_R   0.499910 0.379720 0.683200 -0.592045
C27   C     C_3   0.688102 0.133334 0.347793 -0.796776
H25   H     H_    0.726101 0.090214 0.257057 0.184579
H26   H     H_    0.684218 0.243959 0.325571 0.293849
H27   H     H_    0.755314 0.109644 0.421716 0.218458
C28   C     C_3   0.665353 0.845873 0.317274 -0.808786
H28   H     H_    0.671412 0.733796 0.310404 0.267609
H29   H     H_    0.675895 0.878598 0.217056 0.176148
H30   H     H_    0.748857 0.874508 0.366966 0.206321
C29   C     C_3   0.297369 0.118970 0.389751 -0.882685
H31   H     H_    0.196737 0.119037 0.410060 0.210924
H32   H     H_    0.319425 0.216913 0.341739 0.267796
H33   H     H_    0.314250 0.037616 0.317291 0.187040
C30   C     C_3   0.253349 0.872689 0.521446 -0.823701
H34   H     H_    0.226302 0.798350 0.596114 0.231905
H35   H     H_    0.175596 0.949467 0.536802 0.177879
H36   H     H_    0.254964 0.837632 0.421820 0.252287
N3    N     N_3   0.855799 0.634818 0.700004 -0.600532
H37   H     H_    0.886380 0.728717 0.663649 0.217178
H38   H     H_    0.878003 0.631799 0.795233 0.207367
N4    N     N_3   0.902815 0.331761 0.315054 -0.626602
H39   H     H_    0.951393 0.395608 0.252410 0.224794
H40   H     H_    0.931907 0.230244 0.291885 0.214227

loop_
_geom_bond_atom_site_label_1
_geom_bond_atom_site_label_2
_ccdc_geom_bond_type
C7    C10   S    
C27   H26   S    
C6    N4    S    
C22   H1    S    
C1    C8    S    
C24   H14   S    
C4    C8    S    
C25   H15   S    
C6    C9    S    
Cu2   O2    S    
Cu1   N2    S    
C26   H16   S    
C7    C8    S    
C4    H18   S    
C15   N1    S    
C1    O2    A    
C24   C26   S    
C7    H24   S    
C20   H12   S    
Cu1   O1    S    
C19   O8    A    
C15   C16   S    
Cu1   O7    S    
C10   H3    S    
C20   C24   S    
C23   C24   S    
C5    N3    S    
C9    C10   S    
C11   N1    S    
C17   O4    A    
C27   H27   S    
C21   C22   S    
C2    C17   S    
C5    H21   S    
C13   N1    S    
Cu2   O6    S    
C2    C20   S    
C28   H28   S    
C13   H8    S    
C4    C6    S    
C3    C8    S    
Cu1   O3    S    
C29   H32   S    
C13   C29   S    
C25   C26   S    
C3    H17   S    
N3    H37   S    
C28   H29   S    
C19   C23   S    
C30   H34   S    
C15   H10   S    
C5    C9    S    
C10   H2    S    
C11   C12   S    
C2    C21   S    
C2    C26   S    
C16   C28   S    
C6    H22   S    
C12   H7    S    
C30   H35   S    
C18   O5    A    
C21   H13   S    
C18   O6    A    
C14   N2    S    
C20   C22   S    
C11   H4    S    
N4    H40   S    
N3    H38   S    
C4    H20   S    
C21   C25   S    
C11   H6    S    
C3    C5    S    
C29   H33   S    
Cu2   N1    S    
Cu2   O4    S    
C28   H30   S    
C14   C30   S    
C1    O1    A    
C7    H23   S    
C29   H31   S    
Cu1   O5    S    
C14   H9    S    
C19   O7    A    
C3    H19   S    
C23   C25   S    
C30   H36   S    
C16   N2    S    
C16   H11   S    
C27   H25   S    
C9    C18   S    
N4    H39   S    
Cu1   Cu2   S    
C15   C27   S    
C22   C23   S    
C12   H5    S    
C13   C14   S    
C12   N2    S    
C17   O3    A    
Cu2   O8    S    
