data_mof_unit_34685.cif
_audit_creation_date              2012-12-11T18:11:21-0500
_audit_creation_method            fapswitch 2.2
_symmetry_space_group_name_H-M    P1
_symmetry_Int_Tables_number       1
_space_group_crystal_system       triclinic
_cell_length_a                    8.208642
_cell_length_b                    12.65005
_cell_length_c                    18.75239
_cell_angle_alpha                 99.272429
_cell_angle_beta                  91.179913
_cell_angle_gamma                 98.145735
_cell_volume                      1900.52998626

loop_
_atom_site_label
_atom_site_type_symbol
_atom_type_description
_atom_site_fract_x
_atom_site_fract_y
_atom_site_fract_z
_atom_type_partial_charge
Ba1   Ba    Ba6+2 0.852780 0.548340 0.465070 1.634408
Ba2   Ba    Ba6+2 0.337060 0.451750 0.534940 1.633234
C1    C     C_3   0.575312 0.893693 0.243997 -0.267620
C2    C     C_3   0.649936 0.822054 0.291055 0.319436
C3    C     C_3   0.462404 0.278492 0.313558 0.309295
C4    C     C_3   0.443844 0.243823 0.231919 -0.395981
C5    C     C_3   0.059126 0.236922 0.733329 0.363180
C6    C     C_3   0.077926 0.212718 0.809675 -0.369866
C7    C     C_3   0.553683 0.178594 0.702016 0.353966
C8    C     C_3   0.604253 0.096792 0.746149 -0.415363
C9    C     C_R   0.991271 0.448965 0.048640 0.010148
C10   C     C_R   0.899558 0.389623 0.096045 -0.089524
C11   C     C_R   0.763315 0.416239 0.954785 -0.105161
C12   C     C_3   0.128735 0.754780 0.266275 0.370224
C13   C     C_R   0.928392 0.456238 0.978232 0.016882
C14   C     C_R   0.706568 0.416576 0.884473 -0.088248
C15   C     C_R   0.811371 0.457050 0.833998 -0.048319
C16   C     C_R   0.973211 0.507204 0.857464 -0.001830
C17   C     C_R   0.031842 0.507369 0.929938 0.029663
C18   C     C_R   0.760873 0.446049 0.760299 -0.023889
C19   C     C_R   0.875875 0.479115 0.710688 -0.125739
C20   C     C_R   0.025873 0.542888 0.733952 0.070583
C21   C     C_R   0.076173 0.557234 0.808477 -0.068514
C22   C     C_R   0.153792 0.498485 0.071684 0.024226
C23   C     C_3   0.112575 0.775432 0.188871 -0.386794
C24   C     C_R   0.213774 0.496829 0.143750 -0.000960
C25   C     C_R   0.111602 0.446114 0.192678 -0.040718
C26   C     C_R   0.959302 0.387238 0.165788 -0.024267
C27   C     C_R   0.227534 0.617274 0.835424 -0.027093
C28   C     C_R   0.285868 0.616690 0.905662 -0.086988
C29   C     C_R   0.193948 0.557521 0.953135 0.012537
C30   C     C_R   0.256948 0.549936 0.023416 0.015664
C31   C     C_R   0.422463 0.588848 0.046405 -0.112286
C32   C     C_R   0.376431 0.545519 0.166705 -0.035835
C33   C     C_R   0.480371 0.586771 0.116217 -0.095494
C34   C     C_3   0.236059 0.787241 0.619621 0.275662
C35   C     C_R   0.430318 0.551355 0.239474 -0.003417
C36   C     C_R   0.322752 0.510558 0.288577 -0.297966
C37   C     C_R   0.165893 0.455506 0.266533 0.037171
C38   C     C_R   0.767103 0.179671 0.523394 -0.284589
C39   C     C_R   0.427682 0.807486 0.470216 -0.281706
C40   C     C_R   0.401272 0.984194 0.443614 -0.103810
C41   C     C_R   0.336732 0.875899 0.440480 -0.012017
C42   C     C_R   0.576754 0.848106 0.509176 0.070748
C43   C     C_R   0.641260 0.959826 0.516003 -0.057235
C44   C     C_R   0.553017 0.027742 0.481162 -0.059713
C45   C     C_3   0.248500 0.909665 0.634947 -0.345566
C46   C     C_R   0.617993 0.138003 0.485836 0.049678
C47   C     C_R   0.856350 0.114829 0.556834 -0.014633
C48   C     C_R   0.791680 0.005850 0.555259 -0.091213
C49   C     C_3   0.962105 0.214321 0.381592 0.287318
C50   C     C_3   0.940337 0.091822 0.366338 -0.378365
C51   C     C_3   0.725920 0.706012 0.682777 0.311150
C52   C     C_3   0.743393 0.742796 0.764269 -0.398278
H1    H     H_    0.754612 0.871141 0.325037 0.077283
H2    H     H_    0.331175 0.942372 0.683184 0.114382
H3    H     H_    0.298667 0.945102 0.588346 0.080075
H4    H     H_    0.124704 0.932942 0.645302 0.143366
H5    H     H_    0.844918 0.241127 0.398548 0.007764
H6    H     H_    0.058604 0.242690 0.425306 0.084617
H7    H     H_    0.826624 0.061830 0.332280 0.088529
H8    H     H_    0.928496 0.058706 0.417247 0.101838
H9    H     H_    0.048462 0.063807 0.338554 0.145523
H10   H     H_    0.843254 0.681460 0.663334 0.007487
H11   H     H_    0.625428 0.636297 0.671122 0.060778
H12   H     H_    0.577129 0.976150 0.275396 0.076127
H13   H     H_    0.846751 0.810554 0.777778 0.124898
H14   H     H_    0.768448 0.675128 0.791719 0.051686
H15   H     H_    0.627657 0.770333 0.784522 0.117933
H16   H     H_    0.554763 0.796160 0.328581 -0.046611
H17   H     H_    0.444085 0.860379 0.232129 0.072588
H18   H     H_    0.344203 0.301499 0.333629 0.015406
H19   H     H_    0.561138 0.349393 0.325636 0.063332
H20   H     H_    0.342806 0.174607 0.218055 0.122886
H21   H     H_    0.414510 0.311918 0.205783 0.059383
H22   H     H_    0.560552 0.219073 0.210723 0.120002
H23   H     H_    0.174504 0.717560 0.152149 0.074807
H24   H     H_    0.141548 0.313345 0.729801 0.094547
H25   H     H_    0.929307 0.247726 0.723437 -0.069712
H26   H     H_    0.208460 0.206369 0.822501 0.150367
H27   H     H_    0.039125 0.278701 0.849127 0.073135
H28   H     H_    0.000185 0.135199 0.814705 0.109965
H29   H     H_    0.664296 0.210601 0.674707 -0.062833
H30   H     H_    0.459767 0.136805 0.659513 0.080951
H31   H     H_    0.702253 0.137201 0.787160 0.114187
H32   H     H_    0.651681 0.030418 0.710111 0.094727
H33   H     H_    0.043338 0.680099 0.270980 0.096744
H34   H     H_    0.497276 0.062308 0.774616 0.128058
H35   H     H_    0.579606 0.382663 0.870218 0.111747
H36   H     H_    0.882642 0.339257 0.198419 0.097862
H37   H     H_    0.305200 0.663628 0.802204 0.093491
H38   H     H_    0.608340 0.618457 0.129693 0.118465
H39   H     H_    0.364762 0.517484 0.344437 0.073062
H40   H     H_    0.673321 0.384610 0.989905 0.071902
H41   H     H_    0.781047 0.341991 0.080431 0.058952
H42   H     H_    0.403931 0.664815 0.921421 0.052479
H43   H     H_    0.257020 0.741434 0.277531 -0.080039
H44   H     H_    0.512255 0.620313 0.011141 0.076220
H45   H     H_    0.328880 0.033425 0.417857 0.102242
H46   H     H_    0.862211 0.958519 0.583428 0.102366
H47   H     H_    0.820324 0.262172 0.521806 0.059107
H48   H     H_    0.377106 0.722937 0.466651 0.069922
H49   H     H_    0.980792 0.764365 0.171013 0.151504
H50   H     H_    0.170169 0.858975 0.184761 0.113115
H51   H     H_    0.358589 0.764919 0.607170 0.007829
H52   H     H_    0.148338 0.756506 0.572569 0.072427
O1    O     O_2   0.873090 0.425890 0.325140 -0.464398
O2    O     O_3   0.689594 0.792475 0.650321 -0.641756
O3    O     O_3   0.088295 0.843900 0.314120 -0.608514
O4    O     O_2   0.316610 0.574140 0.674900 -0.470626
O5    O     O_3   0.067290 0.565720 0.585630 -0.470656
O6    O     O_3   0.530210 0.372990 0.631200 -0.477441
O7    O     O_3   0.183106 0.746861 0.681608 -0.643378
O8    O     O_3   0.611340 0.366290 0.463630 -0.480728
O9    O     O_3   0.108550 0.314140 0.595200 -0.469785
O10   O     O_2   0.196708 0.120776 0.551882 -0.484055
O11   O     O_3   0.102507 0.150723 0.683851 -0.601915
O12   O     O_3   0.122420 0.434370 0.414380 -0.493992
O13   O     O_3   0.578370 0.633800 0.536380 -0.496731
O14   O     O_2   0.341510 0.231850 0.465510 -0.468092
O15   O     O_3   0.502736 0.191652 0.344831 -0.651044
O16   O     O_2   0.420474 0.455710 0.757236 -0.492662
O17   O     O_3   0.484367 0.258140 0.748076 -0.597538
O18   O     O_3   0.659500 0.627100 0.368810 -0.470775
O19   O     O_2   0.764588 0.538744 0.243422 -0.492727
O20   O     O_3   0.005337 0.253403 0.318198 -0.642529
O21   O     O_3   0.710398 0.735971 0.247375 -0.604301
O22   O     O_2   0.848200 0.768190 0.534530 -0.471739
O23   O     O_3   0.081160 0.685950 0.404810 -0.487282
O24   O     O_2   0.997452 0.878995 0.447641 -0.485840
P1    P     P_3+3 0.041040 0.394770 0.336330 0.970409
P2    P     P_3+3 0.672880 0.754030 0.556100 0.965350
P3    P     P_3+3 0.126788 0.823568 0.402709 0.944332
P4    P     P_3+3 0.148670 0.605320 0.663680 0.992283
P5    P     P_3+3 0.064464 0.174383 0.595989 0.947097
P6    P     P_3+3 0.639847 0.612185 0.274780 0.946293
P7    P     P_3+3 0.521224 0.230552 0.438847 0.932939
P8    P     P_3+3 0.549191 0.385644 0.725080 0.942878
C53   C     C_R   0.659456 0.901620 0.173636 0.120032
C54   C     C_R   0.825236 0.948234 0.173267 -0.038668
C55   C     C_R   0.901019 0.956401 0.107869 -0.087229
C56   C     C_R   0.812264 0.917871 0.042271 -0.056243
C57   C     C_R   0.647257 0.871683 0.041972 -0.077626
C58   C     C_R   0.570820 0.863929 0.107248 -0.061107
H53   H     H_    0.897074 0.976476 0.223195 0.086113
H54   H     H_    0.029047 0.991919 0.108093 0.064744
H55   H     H_    0.871309 0.923803 0.991695 0.064268
H56   H     H_    0.578401 0.842044 0.991138 0.058552
H57   H     H_    0.442617 0.828286 0.105840 0.059642
N1    N     N_3   0.846934 0.442760 0.635069 -0.445954
H58   H     H_    0.811934 0.359373 0.626320 0.155341
H59   H     H_    0.763121 0.485712 0.614026 0.202014

loop_
_geom_bond_atom_site_label_1
_geom_bond_atom_site_label_2
_ccdc_geom_bond_type
C12   O3    S    
C8    H31   S    
C32   C35   A    
C5    O11   S    
Ba1   O22   S    
Ba1   P2    S    
C17   C29   A    
C2    H16   S    
Ba2   O12   S    
C5    C6    S    
O10   P5    D    
C43   C44   A    
C13   C17   A    
O17   P8    S    
C8    H34   S    
C24   C25   A    
C27   C28   A    
O9    P5    S    
C46   P7    S    
C20   P4    S    
C23   H23   S    
C21   C27   A    
C35   C36   A    
C22   C24   A    
C12   H33   S    
C16   C17   A    
C3    H18   S    
Ba1   O23   S    
C50   H7    S    
C40   C44   A    
C36   C37   A    
C51   H10   S    
Ba2   O9    S    
C52   H14   S    
C18   P8    S    
C38   C47   A    
C3    O15   S    
C9    C22   A    
C15   C18   A    
O20   P1    S    
C39   H48   S    
C34   C45   S    
C32   C33   A    
Ba1   O13   S    
O8    P7    S    
O15   P7    S    
C41   P3    S    
C28   H42   S    
O12   P1    S    
C7    O17   S    
C38   H47   S    
C9    C13   A    
C24   C32   A    
Ba2   O4    S    
C31   H44   S    
C25   C37   A    
C14   C15   A    
C10   H41   S    
C51   H11   S    
C7    C8    S    
C33   H38   S    
C47   P5    S    
C14   H35   S    
C19   C20   A    
C39   C41   A    
C34   O7    S    
O22   P2    D    
C4    H20   S    
C57   H56   S    
C53   C54   A    
C44   C46   A    
Ba2   O5    S    
C56   C57   A    
O18   P6    S    
O3    P3    S    
C16   C21   A    
O6    P8    S    
C4    H21   S    
C54   C55   A    
O16   P8    D    
O1    P1    D    
Ba2   O14   S    
C23   H49   S    
C52   H13   S    
C51   C52   S    
C34   H52   S    
C6    H27   S    
C1    H17   S    
C22   C30   A    
C58   H57   S    
C45   H3    S    
C53   C58   A    
C29   C30   A    
C28   C29   A    
C9    C10   A    
Ba2   O6    S    
C15   C16   A    
C35   P6    S    
O5    P4    S    
Ba2   P4    S    
C19   N1    S    
O21   P6    S    
C55   H54   S    
Ba1   O1    S    
C5    H24   S    
O23   P3    S    
O19   P6    D    
C10   C26   A    
O7    P4    S    
C11   C13   A    
C2    H1    S    
C39   C42   A    
N1    H59   S    
O4    P4    D    
O24   P3    D    
C49   H5    S    
Ba1   O8    S    
C1    C2    S    
O11   P5    S    
C27   H37   S    
C42   C43   A    
C12   H43   S    
C5    H25   S    
C38   C46   A    
C8    H32   S    
C2    O21   S    
C34   H51   S    
N1    H58   S    
C49   O20   S    
C56   H55   S    
Ba1   P1    S    
C50   H9    S    
O13   P2    S    
C54   H53   S    
Ba2   O13   S    
C7    H29   S    
C23   H50   S    
C4    H22   S    
O14   P7    D    
C42   P2    S    
C48   H46   S    
C11   H40   S    
C30   C31   A    
Ba1   O18   S    
C49   C50   S    
C50   H8    S    
C40   H45   S    
Ba1   O5    S    
C45   H4    S    
Ba2   O8    S    
C51   O2    S    
C3    C4    S    
C52   H15   S    
C37   P1    S    
C43   C48   A    
Ba1   Ba2   S    
C36   H39   S    
C31   C33   A    
Ba1   O12   S    
C12   C23   S    
C3    H19   S    
O2    P2    S    
C7    H30   S    
C1    H12   S    
C6    H28   S    
C1    C53   S    
C18   C19   A    
C47   C48   A    
C40   C41   A    
C11   C14   A    
C25   C26   A    
C6    H26   S    
C20   C21   A    
C26   H36   S    
C49   H6    S    
C55   C56   A    
C57   C58   A    
C45   H2    S    
