data_mof_unit_42583.cif
_audit_creation_date              2012-12-11T17:29:57-0500
_audit_creation_method            fapswitch 2.2
_symmetry_space_group_name_H-M    P1
_symmetry_Int_Tables_number       1
_space_group_crystal_system       triclinic
_cell_length_a                    18.810403
_cell_length_b                    18.8048
_cell_length_c                    20.383578
_cell_angle_alpha                 107.164754
_cell_angle_beta                  106.391582
_cell_angle_gamma                 110.971781
_cell_volume                      5793.1299607

loop_
_atom_site_label
_atom_site_type_symbol
_atom_type_description
_atom_site_fract_x
_atom_site_fract_y
_atom_site_fract_z
_atom_type_partial_charge
C1    C     C_R   0.087225 0.087998 0.354405 -0.146896
C2    C     C_R   0.245248 0.069703 0.544822 -0.126982
C3    C     C_R   0.153152 0.222387 0.710461 -0.140587
C4    C     C_R   0.761521 0.925777 0.505312 -0.142989
C5    C     C_R   0.998465 0.762973 0.430517 -0.144188
C6    C     C_R   0.229863 0.272554 0.713072 0.048583
C7    C     C_R   0.946718 0.708959 0.450696 0.079847
C8    C     C_R   0.253240 0.996967 0.535033 0.074482
C9    C     C_R   0.019659 0.977839 0.725480 0.038496
C10   C     C_R   0.946356 0.577604 0.375117 -0.263730
C11   C     C_R   0.915328 0.616780 0.421214 0.112055
C12   C     C_R   0.757325 0.994503 0.549753 0.085820
C13   C     C_R   0.859504 0.568663 0.443830 -0.213400
C14   C     C_R   0.844145 0.486156 0.429771 0.040677
C15   C     C_R   0.883847 0.451007 0.391503 0.031391
C16   C     C_R   0.839049 0.818007 0.281247 -0.125323
C17   C     C_R   0.931824 0.495383 0.360859 0.164234
C18   C     C_R   0.795081 0.440998 0.458603 -0.258268
C19   C     C_R   0.791726 0.364990 0.456612 0.510143
C20   C     C_R   0.842346 0.336281 0.428657 -0.058564
C21   C     C_R   0.883292 0.376171 0.391124 -0.004950
C22   C     C_R   0.931801 0.346994 0.360773 0.178264
C23   C     C_R   0.757084 0.795629 0.273979 0.039454
C24   C     C_R   0.971188 0.386116 0.322698 -0.214867
C25   C     C_R   0.971213 0.460179 0.322758 -0.213840
C26   C     C_R   0.862327 0.277133 0.446017 -0.232909
C27   C     C_R   0.921414 0.258192 0.426287 0.124611
C28   C     C_R   0.947922 0.195084 0.520060 -0.128950
C29   C     C_R   0.948550 0.286204 0.376848 -0.253787
C30   C     C_R   0.329640 0.914921 0.552542 -0.256058
C31   C     C_R   0.329963 0.993275 0.573167 0.115232
C32   C     C_R   0.406401 0.068689 0.622472 -0.253716
C33   C     C_R   0.482885 0.067523 0.638411 0.138667
C34   C     C_R   0.962812 0.219198 0.464964 0.065532
C35   C     C_R   0.482200 0.989529 0.607016 0.026996
C36   C     C_R   0.405491 0.912576 0.567681 0.140897
C37   C     C_R   0.559443 0.143753 0.677621 -0.200659
C38   C     C_R   0.633602 0.143417 0.678282 -0.197674
C39   C     C_R   0.631497 0.066854 0.639746 0.138335
C40   C     C_R   0.761069 0.812008 0.346419 -0.127214
C41   C     C_R   0.556685 0.989204 0.607539 0.027444
C42   C     C_R   0.554037 0.911956 0.568610 0.143484
C43   C     C_R   0.479381 0.834997 0.536891 -0.207208
C44   C     C_R   0.405287 0.835295 0.536546 -0.204704
C45   C     C_R   0.230482 0.228271 0.645896 -0.145745
C46   C     C_R   0.700183 0.067368 0.626324 -0.255972
C47   C     C_R   0.694038 0.991540 0.579403 0.112656
C48   C     C_R   0.623252 0.913598 0.555509 -0.261162
C49   C     C_R   0.290386 0.362109 0.767176 0.145218
C50   C     C_R   0.269031 0.410149 0.817419 -0.189941
C51   C     C_R   0.328866 0.492660 0.872111 -0.164814
C52   C     C_R   0.025954 0.201520 0.455120 -0.126565
C53   C     C_R   0.411457 0.528434 0.877501 0.225318
C54   C     C_R   0.430491 0.482842 0.823794 -0.181677
C55   C     C_R   0.370908 0.400178 0.769436 -0.182750
C56   C     C_R   0.920890 0.756310 0.494817 -0.143963
C57   C     C_R   0.617047 0.728668 0.069506 -0.163694
C58   C     C_R   0.688937 0.767076 0.137906 -0.186938
C59   C     C_R   0.536177 0.687349 0.066255 0.223921
C60   C     C_R   0.681396 0.765031 0.204025 0.146146
C61   C     C_R   0.600516 0.731161 0.201956 -0.175813
C62   C     C_R   0.528660 0.693299 0.133619 -0.182380
C63   C     C_R   0.106436 0.028085 0.235468 0.145560
C64   C     C_R   0.830782 0.066038 0.569728 -0.146935
C65   C     C_R   0.109813 0.957976 0.190020 -0.189458
C66   C     C_R   0.139498 0.961964 0.135258 -0.164871
C67   C     C_R   0.175522 0.928375 0.479972 -0.131060
C68   C     C_R   0.166024 0.036410 0.124899 0.225184
C69   C     C_R   0.170154 0.108548 0.175052 -0.179587
C70   C     C_R   0.140041 0.104474 0.229626 -0.183077
C71   C     C_R   0.167761 0.039753 0.925369 -0.164314
C72   C     C_R   0.134314 0.042710 0.856652 -0.186674
C73   C     C_R   0.129020 0.965023 0.932882 0.222574
C74   C     C_R   0.062059 0.971331 0.794489 0.145604
C75   C     C_R   0.029422 0.894499 0.799842 -0.176462
C76   C     C_R   0.018024 0.947694 0.290019 -0.137920
C77   C     C_R   0.063321 0.891456 0.868525 -0.179608
C78   C     C_R   0.033127 0.052408 0.718397 -0.125211
C79   C     C_R   0.066971 0.021540 0.287875 0.048039
C80   C     C_R   0.963981 0.910982 0.653508 -0.128174
H1    H     H_    0.136055 0.152944 0.377642 0.091736
H2    H     H_    0.832511 0.596640 0.477080 0.113923
H3    H     H_    0.761561 0.466257 0.485333 0.159266
H4    H     H_    0.722058 0.859709 0.489407 0.086454
H5    H     H_    0.839070 0.252948 0.481746 0.128517
H6    H     H_    0.990217 0.268330 0.357420 0.113338
H7    H     H_    0.007189 0.363149 0.297887 0.129061
H8    H     H_    0.006897 0.492932 0.297687 0.129031
H9    H     H_    0.271045 0.855799 0.518241 0.118896
H10   H     H_    0.407550 0.129310 0.642463 0.118289
H11   H     H_    0.560955 0.203983 0.703055 0.131660
H12   H     H_    0.870415 0.732200 0.510777 0.086641
H13   H     H_    0.691180 0.203400 0.704396 0.133818
H14   H     H_    0.755247 0.127884 0.647547 0.119664
H15   H     H_    0.859811 0.814395 0.236729 0.094328
H16   H     H_    0.618428 0.854295 0.521459 0.116867
H17   H     H_    0.476962 0.775098 0.507991 0.129196
H18   H     H_    0.346868 0.775634 0.507215 0.130223
H19   H     H_    0.750095 0.795488 0.137905 0.116601
H20   H     H_    0.624950 0.727041 0.018569 0.125139
H21   H     H_    0.493778 0.509344 0.827498 0.120797
H22   H     H_    0.389521 0.365108 0.731574 0.113135
H23   H     H_    0.158043 0.861992 0.458208 0.095906
H24   H     H_    0.591976 0.729448 0.251831 0.112029
H25   H     H_    0.311558 0.526667 0.912163 0.124192
H26   H     H_    0.466908 0.662120 0.132002 0.119575
H27   H     H_    0.902718 0.198641 0.541809 0.099243
H28   H     H_    0.206952 0.383880 0.816014 0.113657
H29   H     H_    0.163398 0.101919 0.853476 0.117950
H30   H     H_    0.220261 0.097229 0.973728 0.125478
H31   H     H_    0.190331 0.166157 0.167710 0.119742
H32   H     H_    0.139041 0.159836 0.264337 0.112599
H33   H     H_    0.974622 0.837948 0.752704 0.114069
H34   H     H_    0.073687 0.116545 0.762764 0.095147
H35   H     H_    0.137188 0.905460 0.098403 0.124224
H36   H     H_    0.033187 0.833492 0.873434 0.121174
H37   H     H_    0.087523 0.899110 0.194954 0.113191
H38   H     H_    0.710081 0.804482 0.362800 0.094748
H39   H     H_    0.053006 0.211189 0.416392 0.094866
H40   H     H_    0.855459 0.129263 0.613218 0.090057
H41   H     H_    0.001403 0.883847 0.253397 0.085940
H42   H     H_    0.273005 0.254049 0.622718 0.090845
H43   H     H_    0.724278 0.262676 0.461367 0.310255
H44   H     H_    0.942139 0.844234 0.637382 0.097350
H45   H     H_    0.292829 0.134486 0.583300 0.095148
H46   H     H_    0.125577 0.241886 0.747490 0.086731
H47   H     H_    0.019280 0.745272 0.387012 0.086732
H48   H     H_    0.987352 0.612490 0.355013 0.115028
N1    N     N_R   0.052570 0.055840 0.395080 -0.037013
N2    N     N_2   0.463557 0.627194 0.996779 -0.106179
N3    N     N_2   0.173335 0.037164 0.057779 -0.104700
N4    N     N_R   0.834730 0.954500 0.499860 -0.038833
N5    N     N_2   0.141710 0.965045 0.004769 -0.105491
N6    N     N_R   0.890190 0.849120 0.355200 -0.039357
N7    N     N_R   0.997110 0.161210 0.539740 -0.040961
N8    N     N_R   0.841940 0.845190 0.395070 -0.039394
N9    N     N_R   0.045360 0.165140 0.499870 -0.040743
N10   N     N_R   0.877490 0.041590 0.539730 -0.039124
N11   N     N_R   0.009810 0.968740 0.355210 -0.037296
N12   N     N_R   0.954640 0.834860 0.500130 -0.038438
N13   N     N_R   0.158060 0.154810 0.604930 -0.036935
N14   N     N_R   0.122510 0.958410 0.460270 -0.041339
N15   N     N_R   0.990190 0.031260 0.644790 -0.039326
N16   N     N_R   0.947430 0.944160 0.604920 -0.039458
N17   N     N_R   0.165270 0.045500 0.500140 -0.040931
N18   N     N_R   0.109810 0.150880 0.644800 -0.037180
N19   N     N_R   0.002890 0.838790 0.460260 -0.038450
N20   N     N_2   0.480247 0.602132 0.942154 -0.105114
Ni1   Ni    Ni4+2 0.104370 0.104380 0.500010 0.213932
Ni2   Ni    Ni4+2 0.895630 0.895620 0.499990 0.211315
Ni3   Ni    Ni4+2 0.006290 0.904630 0.408560 0.210903
Ni4   Ni    Ni4+2 0.993710 0.095370 0.591440 0.212278
O1    O     O_3   0.742459 0.324028 0.486393 -0.757257

loop_
_geom_bond_atom_site_label_1
_geom_bond_atom_site_label_2
_ccdc_geom_bond_type
C66   C68   A    
C63   C65   A    
C59   N2    S    
C5    N19   A    
C22   C29   A    
C27   C29   A    
C28   N7    A    
N4    Ni2   S    
C41   C42   A    
C14   C18   A    
C54   H21   S    
C40   H38   S    
C35   C36   A    
C76   C79   A    
C3    C6    A    
C16   N6    A    
C3    H46   S    
C67   H23   S    
C39   C41   A    
C63   C79   S    
C53   C54   A    
C2    N17   A    
C7    C11   S    
C40   N8    A    
C55   H22   S    
C26   C27   A    
C76   H41   S    
C6    C45   A    
C1    N1    A    
C69   C70   A    
C30   H9    S    
H43   O1    S    
C30   C31   A    
C56   N12   A    
C57   C59   A    
C28   H27   S    
C58   C60   A    
N15   N16   A    
C71   H30   S    
C15   C17   A    
C18   C19   A    
N16   Ni2   S    
C54   C55   A    
C44   H18   S    
C32   H10   S    
C47   C48   A    
C68   C69   A    
C80   N16   A    
C46   H14   S    
C23   C40   A    
C75   H33   S    
C4    C12   A    
C77   H36   S    
C52   N9    A    
C28   C34   A    
C13   C14   A    
C45   N13   A    
N14   N17   A    
N9    Ni1   S    
C78   H34   S    
C7    C56   A    
C12   C47   S    
C10   H48   S    
N12   N19   A    
C50   C51   A    
C27   C34   S    
C23   C60   S    
C74   C75   A    
C37   H11   S    
N2    N20   D    
C61   H24   S    
C24   C25   A    
C72   C74   A    
C66   H35   S    
C5    C7    A    
N6    N8    A    
N10   Ni4   S    
C49   C55   A    
C57   H20   S    
C13   H2    S    
C53   N20   S    
C33   C37   A    
C60   C61   A    
C51   C53   A    
C9    C80   A    
N14   Ni3   S    
C68   N3    S    
N19   Ni3   S    
C43   C44   A    
C2    H45   S    
N1    Ni1   S    
C37   C38   A    
C4    N4    A    
C72   H29   S    
C31   C32   A    
C4    H4    S    
C63   C70   A    
C15   C21   A    
C51   H25   S    
C5    H47   S    
C18   H3    S    
C1    H1    S    
C42   C48   A    
C75   C77   A    
C29   H6    S    
C35   C41   A    
C70   H32   S    
N13   N18   A    
C8    C67   A    
C39   C46   A    
N18   Ni4   S    
N15   Ni4   S    
C73   N5    S    
C65   C66   A    
C16   C23   A    
C19   O1    S    
C22   C24   A    
C36   C44   A    
C42   C43   A    
N12   Ni2   S    
C64   N10   A    
C71   C73   A    
C80   H44   S    
C76   N11   A    
N7    N9    A    
C12   C64   A    
C46   C47   A    
C59   C62   A    
C73   C77   A    
C48   H16   S    
C8    C31   S    
C50   H28   S    
C2    C8    A    
C58   H19   S    
C43   H17   S    
N3    N5    D    
N8    Ni2   S    
C62   H26   S    
C45   H42   S    
N13   Ni1   S    
C34   C52   A    
C64   H40   S    
C30   C36   A    
C17   C25   A    
C32   C33   A    
C19   C20   A    
C71   C72   A    
C78   N15   A    
C11   C13   A    
C57   C58   A    
C38   C39   A    
C20   C26   A    
C26   H5    S    
C1    C79   A    
N6    Ni3   S    
C38   H13   S    
N11   Ni3   S    
C33   C35   A    
C9    C78   A    
C25   H8    S    
C6    C49   S    
C61   C62   A    
C69   H31   S    
C24   H7    S    
C10   C11   A    
N1    N11   A    
C52   H39   S    
C56   H12   S    
C20   C21   A    
C3    N18   A    
C49   C50   A    
C9    C74   S    
C65   H37   S    
C14   C15   A    
C10   C17   A    
C16   H15   S    
C21   C22   A    
C67   N14   A    
N4    N10   A    
N17   Ni1   S    
N7    Ni4   S    
