data_mof_unit_36362.cif
_audit_creation_date              2012-12-11T17:23:56-0500
_audit_creation_method            fapswitch 2.2
_symmetry_space_group_name_H-M    P1
_symmetry_Int_Tables_number       1
_space_group_crystal_system       triclinic
_cell_length_a                    19.929431
_cell_length_b                    19.861384
_cell_length_c                    20.054179
_cell_angle_alpha                 110.941921
_cell_angle_beta                  107.245951
_cell_angle_gamma                 109.381941
_cell_volume                      6168.6062259

loop_
_atom_site_label
_atom_site_type_symbol
_atom_type_description
_atom_site_fract_x
_atom_site_fract_y
_atom_site_fract_z
_atom_type_partial_charge
C1    C     C_R   0.965810 0.703637 0.036561 0.521075
C2    C     C_3   0.560279 0.502825 0.162665 0.321929
C3    C     C_3   0.812310 0.737777 0.718726 0.187585
C4    C     C_3   0.818926 0.671195 0.657071 -0.252630
C5    C     C_3   0.736613 0.604192 0.584717 -1.013523
C6    C     C_3   0.145028 0.666641 0.817379 0.279222
C7    C     C_3   0.190315 0.632099 0.778184 -0.364936
C8    C     C_3   0.194384 0.654308 0.713649 -0.979478
C9    C     C_3   0.897979 0.320323 0.182368 0.250998
C10   C     C_3   0.980525 0.324167 0.202441 -0.370421
C11   C     C_3   0.995148 0.281721 0.251096 -0.968968
C12   C     C_3   0.675350 0.327840 0.011651 0.276888
C13   C     C_3   0.578411 0.577259 0.104409 0.265431
C14   C     C_3   0.691670 0.339427 0.095807 -0.317294
C15   C     C_3   0.614214 0.312414 0.102843 -0.950761
C16   C     C_3   0.336782 0.663602 0.027388 0.263714
C17   C     C_3   0.427930 0.710805 0.082530 -0.291607
C18   C     C_3   0.474066 0.733142 0.038207 -1.017263
C19   C     C_3   0.019098 0.329388 0.724251 0.306156
C20   C     C_3   0.084866 0.369306 0.704146 -0.445062
C21   C     C_3   0.138995 0.330080 0.704750 -0.936795
C22   C     C_3   0.963893 0.660290 0.310045 0.292069
C23   C     C_3   0.974540 0.747609 0.342043 -0.292866
C24   C     C_3   0.477880 0.436089 0.086848 0.268871
C25   C     C_3   0.931398 0.762245 0.392724 -0.996006
C26   C     C_3   0.689560 0.175590 0.858193 0.281518
C27   C     C_3   0.597899 0.121015 0.807401 -0.368167
C28   C     C_3   0.569190 0.040359 0.808721 -0.990176
C29   C     C_3   0.252504 0.831364 0.119288 0.272220
C30   C     C_3   0.277243 0.851279 0.060513 -0.261346
C31   C     C_3   0.368578 0.893421 0.093546 -0.905168
C32   C     C_1   0.721507 0.506206 0.087779 -0.065838
C33   C     C_1   0.318105 0.498723 0.037868 -0.022792
C34   C     C_3   0.515604 0.442431 0.031594 0.249323
C35   C     C_3   0.540680 0.571421 0.160041 0.261797
C36   C     C_3   0.598370 0.509108 0.106751 -0.198902
C37   C     C_3   0.458301 0.504446 0.084588 -0.196812
C38   C     C_1   0.669483 0.509271 0.103940 0.213987
C39   C     C_R   0.998202 0.269954 0.927324 0.551591
C40   C     C_1   0.381223 0.500750 0.062170 0.203494
C41   C     C_R   0.457311 0.920493 0.463007 0.477295
C42   C     C_R   0.527847 0.093325 0.537809 0.491553
C43   C     C_R   0.843329 0.272365 0.773803 0.547999
C44   C     C_R   0.156744 0.727149 0.226574 0.501510
C45   C     C_R   0.421360 0.958218 0.428727 -0.373617
C46   C     C_R   0.565862 0.055526 0.569740 -0.387750
C47   C     C_R   0.456010 0.044804 0.465598 0.360402
C48   C     C_R   0.529754 0.969031 0.534475 0.359165
C49   C     C_1   0.349396 0.904352 0.355061 0.107665
C50   C     C_R   0.770903 0.228856 0.769464 -0.339762
C51   C     C_1   0.641154 0.108433 0.639801 0.110211
C52   C     C_1   0.702191 0.160128 0.699469 0.001459
C53   C     C_1   0.290872 0.849227 0.294496 -0.001211
C54   C     C_R   0.954630 0.576108 0.555322 0.318426
C55   C     C_R   0.863084 0.425453 0.406782 0.334505
C56   C     C_R   0.927171 0.500032 0.553385 -0.373520
C57   C     C_R   0.903176 0.500909 0.410047 -0.342745
C58   C     C_R   0.880463 0.424716 0.479257 0.512455
C59   C     C_R   0.948751 0.576092 0.484217 0.483284
C60   C     C_1   0.959075 0.499247 0.626530 0.098975
C61   C     C_R   0.224704 0.775191 0.227128 -0.374016
C62   C     C_1   0.913641 0.499566 0.342396 0.077660
C63   C     C_1   0.929333 0.498933 0.289161 -0.056655
C64   C     C_1   0.988925 0.499888 0.688002 0.009732
C65   C     C_R   0.868151 0.975245 0.953288 0.326202
C66   C     C_R   0.884772 0.858892 0.838682 0.289803
C67   C     C_R   0.061840 0.569938 0.839229 0.570184
C68   C     C_R   0.933394 0.431349 0.159653 0.558482
C69   C     C_R   0.874907 0.984028 0.888964 -0.273096
C70   C     C_R   0.894623 0.860853 0.911739 -0.285615
C71   C     C_R   0.883165 0.926588 0.830729 0.377474
C72   C     C_R   0.021625 0.500968 0.761779 -0.336348
C73   C     C_R   0.888394 0.919836 0.970235 0.371631
C74   C     C_1   0.893931 0.063333 0.897045 0.197517
C75   C     C_1   0.923183 0.810631 0.932780 0.214039
C76   C     C_1   0.950773 0.773360 0.955761 -0.034001
C77   C     C_1   0.917768 0.134521 0.916174 -0.034691
C78   C     C_R   0.778152 0.430753 0.010877 0.555584
C79   C     C_R   0.235455 0.567796 0.029610 0.518088
C80   C     C_R   0.988232 0.432567 0.768187 0.524251
C81   C     C_R   0.992614 0.569468 0.223801 0.552508
C82   C     C_R   0.844485 0.568717 0.077505 0.593662
C83   C     C_R   0.953722 0.500420 0.229520 -0.370322
C84   C     C_R   0.168194 0.430847 0.958624 0.445680
C85   C     C_R   0.773407 0.273879 0.841297 0.546169
C86   C     C_R   0.221758 0.730901 0.154699 0.584920
C87   C     C_R   0.034561 0.703490 0.967799 0.455878
C88   C     C_R   0.926081 0.269294 0.992675 0.466875
C89   C     C_R   0.983985 0.731201 0.986770 -0.308033
C90   C     C_R   0.951017 0.221632 0.948600 -0.325605
C91   C     C_3   0.958355 0.804830 0.130747 0.257300
C92   C     C_3   0.036148 0.831489 0.203159 -0.342453
C93   C     C_3   0.068100 0.917589 0.272825 -1.019271
C94   C     C_R   0.776611 0.500952 0.057773 -0.361730
C95   C     C_3   0.054465 0.192205 0.873218 0.318255
C96   C     C_3   0.121556 0.228533 0.960068 -0.427388
C97   C     C_3   0.192519 0.214710 0.960047 -0.883323
C98   C     C_3   0.510767 0.526273 0.924340 0.227356
C99   C     C_3   0.462593 0.509684 0.839768 -0.300613
C100  C     C_3   0.515654 0.523782 0.799312 -1.007480
C101  C     C_3   0.554040 0.497304 0.273786 0.219172
C102  C     C_3   0.591420 0.482177 0.341600 -0.281990
C103  C     C_3   0.545526 0.480510 0.390389 -1.007637
C104  C     C_3   0.442372 0.798882 0.374602 0.257900
C105  C     C_R   0.244436 0.498817 0.008586 -0.289081
C106  C     C_3   0.381381 0.706429 0.320746 -0.328860
C107  C     C_3   0.406808 0.661819 0.262282 -0.897436
C108  C     C_3   0.540682 0.207448 0.635913 0.240753
C109  C     C_3   0.601719 0.298852 0.697244 -0.252664
C110  C     C_3   0.584132 0.331642 0.767744 -1.003509
C111  C     C_3   0.071401 0.672149 0.513802 0.212733
C112  C     C_3   0.120990 0.763923 0.543343 -0.268154
C113  C     C_3   0.210262 0.790570 0.571656 -0.983168
C114  C     C_3   0.910479 0.325416 0.489458 0.241745
C115  C     C_3   0.892230 0.256415 0.409314 -0.264128
C116  C     C_3   0.497146 0.510701 0.029227 0.322253
C117  C     C_3   0.951905 0.224249 0.422159 -1.051337
C118  C     C_3   0.974754 0.997897 0.108501 0.206971
C119  C     C_3   0.051923 0.005452 0.102321 -0.384337
C120  C     C_3   0.126571 0.084140 0.175273 -0.966425
C121  C     C_3   0.948590 0.929018 0.749417 0.280526
C122  C     C_3   0.031657 0.971766 0.823774 -0.385734
C123  C     C_3   0.097847 0.978412 0.798848 -0.980968
C124  C     C_3   0.780217 0.989434 0.002264 0.227259
C125  C     C_3   0.711948 0.977684 0.930769 -0.347975
C126  C     C_3   0.630784 0.936869 0.928265 -0.991292
H1    H     H_    0.915709 0.814788 0.153007 0.151872
H2    H     H_    0.145800 0.296151 0.997041 0.234258
H3    H     H_    0.851224 0.254292 0.150769 0.140804
H4    H     H_    0.894317 0.350473 0.238297 0.099818
H5    H     H_    0.983184 0.293080 0.145846 0.223201
H6    H     H_    0.029660 0.389601 0.238602 0.181581
H7    H     H_    0.994752 0.312891 0.309195 0.266805
H8    H     H_    0.054806 0.285200 0.264580 0.268871
H9    H     H_    0.947893 0.215524 0.216046 0.269303
H10   H     H_    0.637959 0.260480 0.967948 0.111050
H11   H     H_    0.637874 0.354025 0.990813 0.125219
H12   H     H_    0.719321 0.301689 0.106900 0.223637
H13   H     H_    0.095467 0.199166 0.990772 0.181477
H14   H     H_    0.735169 0.404998 0.143547 0.211263
H15   H     H_    0.585781 0.349738 0.092936 0.290164
H16   H     H_    0.628260 0.321663 0.164359 0.276673
H17   H     H_    0.571134 0.245932 0.057529 0.261061
H18   H     H_    0.319297 0.702113 0.005144 0.143953
H19   H     H_    0.321600 0.606924 0.972976 0.072961
H20   H     H_    0.444568 0.768306 0.136342 0.211091
H21   H     H_    0.445922 0.672106 0.104018 0.225206
H22   H     H_    0.460684 0.676138 0.986062 0.282054
H23   H     H_    0.539844 0.768483 0.080176 0.275649
H24   H     H_    0.172294 0.147933 0.925860 0.258282
H25   H     H_    0.457232 0.772049 0.016133 0.267046
H26   H     H_    0.989056 0.261176 0.684843 0.161975
H27   H     H_    0.045892 0.342620 0.787552 0.166025
H28   H     H_    0.056460 0.362068 0.643455 0.218546
H29   H     H_    0.123144 0.436243 0.749850 0.198834
H30   H     H_    0.168668 0.337338 0.765187 0.282405
H31   H     H_    0.186410 0.361052 0.691138 0.266584
H32   H     H_    0.103167 0.263251 0.658117 0.261445
H33   H     H_    0.991024 0.655164 0.363341 0.129808
H34   H     H_    0.898243 0.614708 0.272186 0.102295
H35   H     H_    0.237808 0.240725 0.023278 0.283207
H36   H     H_    0.039781 0.794045 0.379491 0.210095
H37   H     H_    0.949646 0.757144 0.291111 0.233221
H38   H     H_    0.865819 0.717066 0.355789 0.279574
H39   H     H_    0.939640 0.825688 0.414272 0.269312
H40   H     H_    0.956545 0.756112 0.446198 0.298746
H41   H     H_    0.837495 0.651649 0.158362 0.317993
H42   H     H_    0.202203 0.354278 0.911265 0.317809
H43   H     H_    0.706647 0.186320 0.920512 0.172145
H44   H     H_    0.719263 0.141524 0.833893 0.074419
H45   H     H_    0.567836 0.154514 0.830995 0.206976
H46   H     H_    0.221905 0.246184 0.932557 0.272193
H47   H     H_    0.579370 0.106290 0.743927 0.208945
H48   H     H_    0.584229 0.053540 0.871539 0.267952
H49   H     H_    0.598065 0.005406 0.784764 0.275994
H50   H     H_    0.502784 0.001559 0.770351 0.281472
H51   H     H_    0.290258 0.887329 0.180685 0.089779
H52   H     H_    0.188417 0.816442 0.099501 0.038706
H53   H     H_    0.248404 0.793372 0.001822 0.244553
H54   H     H_    0.255594 0.893063 0.049507 0.155707
H55   H     H_    0.398047 0.954088 0.149732 0.258214
H56   H     H_    0.383729 0.903971 0.047883 0.246281
H57   H     H_    0.537366 0.484528 0.918826 0.141271
H58   H     H_    0.392422 0.854150 0.107043 0.281782
H59   H     H_    0.062587 0.764765 0.915260 0.312613
H60   H     H_    0.845568 0.182092 0.992937 0.313957
H61   H     H_    0.604001 0.683266 0.114101 0.335590
H62   H     H_    0.453090 0.332310 0.082558 0.334528
H63   H     H_    0.560041 0.591707 0.961749 0.142076
H64   H     H_    0.412454 0.444650 0.801828 0.212879
H65   H     H_    0.436257 0.551458 0.844068 0.205547
H66   H     H_    0.565493 0.588865 0.835582 0.271547
H67   H     H_    0.970755 0.844634 0.104072 0.107055
H68   H     H_    0.478923 0.511248 0.738096 0.275379
H69   H     H_    0.541443 0.481518 0.793030 0.274054
H70   H     H_    0.490155 0.447091 0.233553 0.137559
H71   H     H_    0.555948 0.557903 0.301248 0.136192
H72   H     H_    0.590485 0.422017 0.315042 0.218034
H73   H     H_    0.655229 0.532009 0.382750 0.215126
H74   H     H_    0.547956 0.541080 0.419693 0.269344
H75   H     H_    0.573332 0.468057 0.438185 0.286601
H76   H     H_    0.481576 0.430883 0.350482 0.273664
H77   H     H_    0.610835 0.671056 0.262960 0.338090
H78   H     H_    0.023803 0.786611 0.224415 0.286990
H79   H     H_    0.445142 0.344881 0.926884 0.342143
H80   H     H_    0.611228 0.970499 0.619722 0.325462
H81   H     H_    0.371382 0.043231 0.383470 0.319382
H82   H     H_    0.502809 0.807337 0.408405 0.137995
H83   H     H_    0.445442 0.825971 0.334731 0.077199
H84   H     H_    0.375679 0.678334 0.359183 0.216410
H85   H     H_    0.321439 0.697925 0.285475 0.208773
H86   H     H_    0.414421 0.689752 0.224140 0.287172
H87   H     H_    0.359856 0.595601 0.222198 0.259894
H88   H     H_    0.464400 0.665753 0.296669 0.288241
H89   H     H_    0.083407 0.831936 0.184395 0.176672
H90   H     H_    0.538884 0.173034 0.669414 0.065296
H91   H     H_    0.479853 0.200565 0.607404 0.123596
H92   H     H_    0.663392 0.306672 0.721442 0.209341
H93   H     H_    0.599906 0.335636 0.666667 0.207213
H94   H     H_    0.522952 0.325125 0.745336 0.266645
H95   H     H_    0.629127 0.398150 0.810667 0.267561
H96   H     H_    0.588161 0.297305 0.800689 0.288324
H97   H     H_    0.078293 0.634768 0.462358 0.085406
H98   H     H_    0.096548 0.661987 0.564573 0.119850
H99   H     H_    0.099038 0.776308 0.493755 0.199286
H100  H     H_    0.081156 0.963627 0.252798 0.270591
H101  H     H_    0.113721 0.801317 0.594375 0.219461
H102  H     H_    0.234369 0.780525 0.622648 0.267549
H103  H     H_    0.244530 0.857375 0.592647 0.271907
H104  H     H_    0.218988 0.754843 0.521085 0.277089
H105  H     H_    0.908581 0.301174 0.531346 0.154911
H106  H     H_    0.973430 0.376959 0.518455 0.044288
H107  H     H_    0.830062 0.204538 0.380843 0.227439
H108  H     H_    0.896216 0.280305 0.367537 0.223505
H109  H     H_    0.014355 0.274940 0.449233 0.273349
H110  H     H_    0.937242 0.174506 0.363026 0.281176
H111  H     H_    0.124672 0.935051 0.323493 0.279959
H112  H     H_    0.948416 0.198584 0.462759 0.277786
H113  H     H_    0.980479 0.642921 0.667043 0.316352
H114  H     H_    0.795954 0.361727 0.289688 0.321269
H115  H     H_    0.981159 0.998125 0.165535 0.119333
H116  H     H_    0.969401 0.053412 0.114639 0.153318
H117  H     H_    0.058654 0.951243 0.098929 0.204979
H118  H     H_    0.048649 0.007577 0.046878 0.195319
H119  H     H_    0.122434 0.139533 0.178461 0.266765
H120  H     H_    0.181174 0.087674 0.169460 0.273492
H121  H     H_    0.132734 0.084081 0.232121 0.263352
H122  H     H_    0.023277 0.918390 0.294929 0.270695
H123  H     H_    0.956130 0.957475 0.711611 0.114251
H124  H     H_    0.928222 0.862912 0.710007 0.139571
H125  H     H_    0.045847 0.034259 0.867056 0.195086
H126  H     H_    0.031321 0.936047 0.855502 0.222893
H127  H     H_    0.083481 0.916098 0.754304 0.280639
H128  H     H_    0.156188 0.005840 0.852855 0.271793
H129  H     H_    0.104178 0.018618 0.771716 0.261221
H130  H     H_    0.781972 0.028758 0.059162 0.122939
H131  H     H_    0.767539 0.928965 0.999013 0.121782
H132  H     H_    0.724250 0.038766 0.936224 0.208652
H133  H     H_    0.081380 0.186981 0.831630 0.145096
H134  H     H_    0.708694 0.938022 0.873041 0.202494
H135  H     H_    0.617860 0.876151 0.923951 0.269438
H136  H     H_    0.582146 0.926324 0.874453 0.280204
H137  H     H_    0.630933 0.977320 0.983535 0.268017
H138  H     H_    0.783527 0.765235 0.688049 0.121001
H139  H     H_    0.773927 0.708441 0.741749 0.104870
H140  H     H_    0.858828 0.700065 0.635238 0.218880
H141  H     H_    0.846299 0.642335 0.686633 0.206244
H142  H     H_    0.695972 0.573363 0.604802 0.271742
H143  H     H_    0.743762 0.556998 0.541397 0.280634
H144  H     H_    0.008505 0.127826 0.848888 0.072095
H145  H     H_    0.708925 0.631467 0.553192 0.273689
H146  H     H_    0.832252 0.182361 0.683075 0.320937
H147  H     H_    0.172947 0.808858 0.327269 0.317117
H148  H     H_    0.182606 0.735129 0.852875 0.120541
H149  H     H_    0.087511 0.654418 0.772528 0.104064
H150  H     H_    0.252527 0.657812 0.825622 0.200452
H151  H     H_    0.159984 0.563822 0.749653 0.204383
H152  H     H_    0.132658 0.624459 0.663607 0.273826
H153  H     H_    0.230284 0.631499 0.688709 0.267294
H154  H     H_    0.223246 0.722435 0.739800 0.269276
N1    N     N_R   0.999080 0.655880 0.043180 -0.131844
N2    N     N_R   0.999370 0.542940 0.155540 -0.128383
N3    N     N_R   0.886170 0.542970 0.043180 -0.119653
N4    N     N_R   0.113830 0.457030 0.956820 -0.120030
N5    N     N_R   0.844420 0.344140 0.887390 -0.125617
N6    N     N_R   0.155580 0.655860 0.112610 -0.134060
N7    N     N_R   0.042380 0.655890 0.000250 -0.116253
N8    N     N_R   0.957620 0.344110 0.999750 -0.115793
N9    N     N_R   0.000920 0.344120 0.956820 -0.133290
N10   N     N_R   0.887710 0.344150 0.844460 -0.124558
N11   N     N_R   0.112290 0.655850 0.155540 -0.118932
N12   N     N_R   0.043250 0.542980 0.887390 -0.121657
N13   N     N_R   0.956750 0.457020 0.112610 -0.129415
N14   N     N_R   0.843540 0.457050 0.000250 -0.127064
N15   N     N_R   0.156460 0.542950 0.999750 -0.123530
N16   N     N_R   0.000630 0.457060 0.844460 -0.146660
Ni1   Ni    Ni4+2 0.999230 0.598520 0.098470 0.253450
Ni2   Ni    Ni4+2 0.000770 0.401480 0.901530 0.235640
Ni3   Ni    Ni4+2 0.098520 0.598520 0.000000 0.243023
Ni4   Ni    Ni4+2 0.901480 0.401480 0.000000 0.273275
O1    O     O_3   0.919370 0.719768 0.072219 -0.616772
O2    O     O_3   0.563510 0.178777 0.575512 -0.603894
O3    O     O_3   0.989097 0.650149 0.487930 -0.639337
O4    O     O_3   0.850599 0.349776 0.477046 -0.601266
O5    O     O_3   0.994232 0.651460 0.626096 -0.738965
O6    O     O_3   0.812448 0.350947 0.334802 -0.738476
O7    O     O_3   0.904019 0.923149 0.043981 -0.657731
O8    O     O_3   0.887614 0.939001 0.767636 -0.657833
O9    O     O_3   0.855834 0.031035 0.006752 -0.664375
O10   O     O_3   0.890417 0.798650 0.782651 -0.655670
O11   O     O_3   0.874881 0.239081 0.727402 -0.718337
O12   O     O_3   0.017028 0.240854 0.865541 -0.602580
O13   O     O_3   0.131415 0.751755 0.282970 -0.713342
O14   O     O_3   0.135792 0.639732 0.872077 -0.640870
O15   O     O_3   0.876662 0.350658 0.129688 -0.591933
O16   O     O_3   0.748652 0.355139 0.008237 -0.597531
O17   O     O_3   0.296622 0.648650 0.072506 -0.627307
O18   O     O_3   0.958954 0.352850 0.708351 -0.622767
O19   O     O_3   0.005214 0.649611 0.264439 -0.589619
O20   O     O_3   0.879150 0.646240 0.143097 -0.722112
O21   O     O_3   0.150763 0.354235 0.903814 -0.751770
O22   O     O_3   0.713089 0.253560 0.862959 -0.639118
O23   O     O_3   0.458973 0.512658 0.958854 -0.653742
O24   O     O_3   0.262559 0.764026 0.119191 -0.598640
O25   O     O_3   0.076948 0.727015 0.929973 -0.757798
O26   O     O_3   0.859509 0.238707 0.002905 -0.723646
O27   O     O_3   0.632848 0.651218 0.115319 -0.741722
O28   O     O_3   0.422953 0.362320 0.075826 -0.743386
O29   O     O_3   0.598808 0.498195 0.230998 -0.642844
O30   O     O_3   0.552092 0.639349 0.225552 -0.764708
O31   O     O_3   0.503563 0.374800 0.965098 -0.761914
O32   O     O_3   0.562152 0.929489 0.567129 -0.722548
O33   O     O_3   0.422391 0.084371 0.434249 -0.715097
O34   O     O_3   0.417403 0.835452 0.429884 -0.612839

loop_
_geom_bond_atom_site_label_1
_geom_bond_atom_site_label_2
_ccdc_geom_bond_type
C82   C94   A    
C19   C20   S    
C96   H13   S    
C114  C115  S    
C113  H104  S    
C91   H1    S    
N6    N11   A    
C16   H18   S    
C87   N7    A    
C88   N8    A    
C57   C59   A    
C22   H33   S    
N3    N14   A    
C106  H84   S    
C43   N10   A    
C108  C109  S    
C79   O17   S    
C98   H57   S    
C10   H5    S    
C109  H92   S    
H59   O25   S    
C80   N16   A    
H61   O27   S    
C50   C52   S    
C97   H24   S    
C120  H121  S    
C118  H115  S    
C29   H51   S    
C31   H55   S    
C86   N6    A    
C45   C47   A    
C46   C48   A    
C78   O16   S    
C51   C52   T    
C81   O19   S    
N15   Ni3   S    
C107  H86   S    
C117  H110  S    
C82   O20   S    
C24   C34   S    
C75   C76   T    
C103  H75   S    
C15   H16   S    
C84   C105  A    
N8    Ni4   S    
C69   C74   S    
C28   H49   S    
C108  H91   S    
C124  H131  S    
C87   C89   A    
C19   H27   S    
C19   O18   S    
C114  H105  S    
H114  O6    S    
H60   O26   S    
C68   C83   A    
C4    C5    S    
C71   O8    S    
N2    N13   A    
C6    C7    S    
C25   H40   S    
C60   C64   T    
C17   H20   S    
C65   O9    S    
C102  H73   S    
C1    N1    A    
C66   C70   A    
C78   C94   A    
C49   C53   T    
C125  H132  S    
C36   C38   S    
C126  H137  S    
C111  H98   S    
C122  H126  S    
C20   C21   S    
C26   H44   S    
C98   C99   S    
C106  C107  S    
C117  H109  S    
C22   C23   S    
N12   Ni3   S    
C13   O27   S    
C7    H151  S    
C110  H95   S    
C115  H108  S    
H147  O13   S    
C39   N9    A    
C111  C112  S    
C7    C8    S    
C37   C116  S    
C4    H141  S    
C13   C35   S    
C37   C40   S    
C91   H67   S    
C101  H71   S    
H79   O31   S    
C92   H89   S    
C67   C72   A    
C123  H128  S    
C53   C61   S    
C93   H111  S    
C74   C77   T    
C9    C10   S    
C101  H70   S    
C76   C89   S    
H42   O21   S    
C79   N15   A    
C118  O7    S    
C100  H66   S    
C120  H120  S    
C81   C83   A    
H77   O30   S    
C24   C37   S    
C59   O3    S    
C54   C59   A    
C33   C40   T    
N12   N16   A    
C7    H150  S    
C11   H8    S    
C88   O26   S    
C91   C92   S    
H81   O33   S    
C46   C51   S    
C126  H135  S    
C16   H19   S    
C29   C30   S    
C104  O34   S    
N3    Ni1   S    
C107  H87   S    
C67   O14   S    
C68   N13   A    
C17   C18   S    
C30   H54   S    
C15   H17   S    
H80   O32   S    
C98   O23   S    
C97   H35   S    
N5    Ni4   S    
C3    O10   S    
N6    Ni3   S    
C3    C4    S    
C73   O7    S    
C8    H153  S    
C95   H144  S    
C41   C45   A    
C112  H99   S    
C14   H14   S    
C25   H38   S    
C99   H64   S    
C43   C50   A    
C113  H103  S    
C44   C61   A    
C34   O31   S    
N13   Ni4   S    
H146  O11   S    
C72   C80   A    
C28   H48   S    
C121  H124  S    
C22   H34   S    
C106  H85   S    
N4    Ni2   S    
C56   C58   A    
C34   C36   S    
C103  H74   S    
C102  C103  S    
C6    H148  S    
C10   H6    S    
C10   C11   S    
C87   O25   S    
C44   N11   A    
C91   O1    S    
C3    H138  S    
C12   H10   S    
C70   C75   S    
C14   C15   S    
C86   O24   S    
C116  O23   S    
C58   O4    S    
C118  H116  S    
N2    Ni1   S    
C9    O15   S    
C2    C35   S    
C101  C102  S    
C20   H29   S    
C31   H58   S    
C21   H32   S    
N10   Ni2   S    
C54   O5    S    
C44   O13   S    
C104  C106  S    
C66   O10   S    
C9    H4    S    
C125  H134  S    
C26   C27   S    
C97   H46   S    
N7    Ni3   S    
C30   C31   S    
C47   O33   S    
C4    H140  S    
C29   O24   S    
C96   H2    S    
C42   C46   A    
C50   C85   A    
C15   H15   S    
C14   H12   S    
C16   C17   S    
C115  C117  S    
C119  H118  S    
C123  H129  S    
C92   H78   S    
C23   H36   S    
N16   Ni2   S    
C112  H101  S    
H41   O20   S    
C98   H63   S    
C77   C90   S    
C12   O16   S    
C33   C105  S    
N1    Ni1   S    
C28   H50   S    
C25   H39   S    
C67   N12   A    
C56   C60   S    
C68   O15   S    
C63   C83   S    
C62   C63   T    
C109  H93   S    
C11   H9    S    
C6    O14   S    
C66   C71   A    
C45   C49   S    
C70   C73   A    
C111  H97   S    
C121  C122  S    
C108  H90   S    
C20   H28   S    
C88   C90   A    
C117  H112  S    
C100  H68   S    
C29   H52   S    
C31   H56   S    
C125  C126  S    
C18   H25   S    
C110  H96   S    
C115  H107  S    
C100  H69   S    
C35   C37   S    
C81   N2    A    
C8    H152  S    
C119  C120  S    
C84   O21   S    
C5    H143  S    
N4    N15   A    
C11   H7    S    
C103  H76   S    
C109  C110  S    
C99   H65   S    
C65   C69   A    
C92   C93   S    
C104  H82   S    
C85   O22   S    
C123  H127  S    
C13   C116  S    
C61   C86   A    
C26   O22   S    
C5    H142  S    
C55   C58   A    
C80   O18   S    
N1    N7    A    
C32   C94   S    
C3    H139  S    
C39   O12   S    
C95   C96   S    
C124  H130  S    
C27   H47   S    
C57   C62   S    
C101  O29   S    
C95   H133  S    
C84   N4    A    
C79   C105  A    
C2    O29   S    
C85   N5    A    
N9    Ni2   S    
C43   O11   S    
C17   H21   S    
C18   H22   S    
C102  H72   S    
C114  H106  S    
C78   N14   A    
C16   O17   S    
C34   C116  S    
C65   C73   A    
C24   O28   S    
C126  H136  S    
C69   C71   A    
C118  C119  S    
C122  H125  S    
C93   H100  S    
C21   H30   S    
C26   H43   S    
C30   H53   S    
C32   C38   T    
C18   H23   S    
C110  H94   S    
C39   C90   A    
C23   C25   S    
C1    O1    S    
C104  H83   S    
C82   N3    A    
C112  C113  S    
C8    H154  S    
C23   H37   S    
C54   C56   A    
C5    H145  S    
H62   O28   S    
C124  O9    S    
C13   C36   S    
H113  O5    S    
C113  H102  S    
N5    N10   A    
C35   O30   S    
N14   Ni4   S    
C93   H122  S    
C48   O32   S    
C121  H123  S    
C99   C100  S    
C96   C97   S    
C114  O4    S    
C19   H26   S    
C6    H149  S    
C12   C14   S    
C121  O8    S    
C2    C24   S    
C120  H119  S    
C27   H45   S    
C27   C28   S    
C42   O2    S    
C2    C36   S    
C1    C89   A    
C22   O19   S    
C21   H31   S    
C9    H3    S    
N8    N9    A    
C55   C57   A    
C107  H88   S    
C111  O3    S    
C41   C48   A    
C42   C47   A    
C64   C72   S    
N11   Ni1   S    
C55   O6    S    
C95   O12   S    
C41   O34   S    
C12   H11   S    
C122  C123  S    
C119  H117  S    
C124  C125  S    
C108  O2    S    
