data_mof_unit_50444.cif
_audit_creation_date              2012-12-10T19:02:19-0500
_audit_creation_method            fapswitch 2.2
_symmetry_space_group_name_H-M    P1
_symmetry_Int_Tables_number       1
_space_group_crystal_system       triclinic
_cell_length_a                    14.345989
_cell_length_b                    10.81998
_cell_length_c                    9.5348
_cell_angle_alpha                 89.683551
_cell_angle_beta                  90.098912
_cell_angle_gamma                 90.721686
_cell_volume                      1479.88124738

loop_
_atom_site_label
_atom_site_type_symbol
_atom_type_description
_atom_site_fract_x
_atom_site_fract_y
_atom_site_fract_z
_atom_type_partial_charge
C1    C     C_R   0.494890 0.262574 0.500475 0.808082
C2    C     C_1   0.771317 0.501824 0.500408 -0.213568
C3    C     C_R   0.539190 0.062976 0.594542 0.099440
C4    C     C_R   0.483346 0.129365 0.503350 -0.145721
C5    C     C_R   0.412957 0.066117 0.425631 0.060331
C6    C     C_R   0.416843 0.934123 0.415965 0.049147
C7    C     C_R   0.484854 0.870677 0.498343 -0.156218
C8    C     C_R   0.538969 0.936612 0.593786 0.090225
C9    C     C_3   0.641773 0.932230 0.619716 -0.471724
C10   C     C_3   0.641499 0.072505 0.620713 -0.457657
C11   C     C_R   0.569138 0.559755 0.073557 0.265866
C12   C     C_R   0.331064 0.501515 0.500020 0.794121
C13   C     C_R   0.436857 0.431400 0.074672 -0.078711
C14   C     C_R   0.436942 0.431219 0.925728 -0.073228
C15   C     C_R   0.569233 0.559589 0.926211 0.267973
C16   C     C_3   0.593678 0.693811 0.919694 -0.514602
C17   C     C_3   0.593204 0.694063 0.078842 -0.504178
C18   C     C_R   0.494897 0.737426 0.499110 0.811234
C19   C     C_R   0.668977 0.500508 0.500096 0.819121
C20   C     C_1   0.228807 0.503907 0.500529 -0.196501
C21   C     C_1   0.143429 0.505297 0.501174 -0.019527
C22   C     C_1   0.042807 0.505304 0.501231 -0.013754
C23   C     C_1   0.957399 0.504510 0.501032 -0.001107
C24   C     C_1   0.856737 0.503104 0.500703 -0.014365
Cu1   Cu    Cu3+1 0.500000 0.499980 0.640670 0.930690
Cu2   Cu    Cu3+1 0.500000 0.500020 0.359330 0.921729
H1    H     H_    0.537412 0.750827 0.873413 0.223366
H2    H     H_    0.663243 0.711221 0.125353 0.195913
H3    H     H_    0.536365 0.750714 0.123120 0.215225
H4    H     H_    0.658787 0.891747 0.723697 0.198122
H5    H     H_    0.680793 0.892988 0.529978 0.192176
H6    H     H_    0.657608 0.112320 0.725342 0.202614
H7    H     H_    0.680140 0.115146 0.531345 0.191325
H8    H     H_    0.384533 0.378064 0.130592 0.128465
H9    H     H_    0.384878 0.377416 0.870019 0.135880
H10   H     H_    0.664173 0.709980 0.874598 0.189648
N1    N     N_R   0.500540 0.500930 0.147930 -0.181626
N2    N     N_R   0.500540 0.500890 0.852020 -0.179631
O1    O     O_R   0.500000 0.319640 0.618810 -0.575044
O2    O     O_R   0.500010 0.319680 0.381230 -0.579519
O3    O     O_R   0.376050 0.499980 0.618820 -0.567266
O4    O     O_R   0.376060 0.500020 0.381230 -0.567370
O5    O     O_R   0.499990 0.680320 0.618770 -0.572035
O6    O     O_R   0.500000 0.680360 0.381190 -0.591816
O7    O     O_R   0.623940 0.499980 0.618770 -0.555747
O8    O     O_R   0.623950 0.500020 0.381180 -0.554096
C25   C     C_3   0.330249 0.138156 0.368416 -0.413454
C26   C     C_3   0.263333 0.170799 0.487893 -0.356428
C27   C     C_3   0.166825 0.202657 0.431646 -0.841093
H11   H     H_    0.121811 0.232909 0.519269 0.250458
H12   H     H_    0.172055 0.277914 0.352304 0.260092
H13   H     H_    0.133837 0.120227 0.382321 0.247306
H14   H     H_    0.255738 0.091975 0.562415 0.216053
H15   H     H_    0.292105 0.250163 0.547851 0.209332
H16   H     H_    0.353491 0.223584 0.313857 0.198883
H17   H     H_    0.290772 0.087129 0.287556 0.206281
C28   C     C_3   0.350324 0.863775 0.318591 -0.402159
C29   C     C_3   0.257737 0.831724 0.390842 -0.350630
C30   C     C_3   0.190620 0.767099 0.289930 -0.836520
H18   H     H_    0.175392 0.828187 0.198934 0.247395
H19   H     H_    0.221065 0.679649 0.251637 0.261259
H20   H     H_    0.124150 0.745331 0.344709 0.248686
H21   H     H_    0.270930 0.770330 0.482323 0.212327
H22   H     H_    0.223991 0.916369 0.429474 0.232290
H23   H     H_    0.339027 0.916123 0.219954 0.179169
H24   H     H_    0.380086 0.777905 0.278173 0.225071

loop_
_geom_bond_atom_site_label_1
_geom_bond_atom_site_label_2
_ccdc_geom_bond_type
C8    C9    S    
C23   C24   S    
C19   O7    A    
Cu2   N1    S    
C6    C7    A    
C18   O6    A    
Cu1   N2    S    
C14   N2    A    
C17   H3    S    
C9    C10   S    
C1    O1    A    
C13   N1    A    
C25   C26   S    
C28   H24   S    
C7    C18   S    
C12   C20   S    
C16   H1    S    
C29   C30   S    
C19   O8    A    
Cu2   O6    S    
C13   H8    S    
C15   N2    A    
C3    C10   S    
C18   O5    A    
Cu1   O1    S    
C26   H15   S    
C5    C25   S    
C6    C28   S    
Cu2   O2    S    
C28   C29   S    
C26   H14   S    
C9    H4    S    
C10   H6    S    
C4    C5    A    
Cu1   O5    S    
Cu1   Cu2   S    
C27   H11   S    
C10   H7    S    
C2    C24   T    
C5    C6    A    
C13   C14   A    
C30   H19   S    
C1    C4    S    
C16   C17   S    
Cu2   O8    S    
C29   H22   S    
C3    C4    A    
Cu1   O7    S    
C30   H18   S    
C20   C21   T    
Cu2   O4    S    
C12   O3    A    
C25   H16   S    
C3    C8    A    
Cu1   O3    S    
C29   H21   S    
C11   N1    A    
C7    C8    A    
C9    H5    S    
C22   C23   T    
C26   C27   S    
C30   H20   S    
C12   O4    A    
C1    O2    A    
C2    C19   S    
C21   C22   S    
C17   H2    S    
C11   C15   A    
C14   H9    S    
C16   H10   S    
C15   C16   S    
C27   H13   S    
C28   H23   S    
C25   H17   S    
C27   H12   S    
C11   C17   S    
