data_mof_unit_9848.cif
_audit_creation_date              2012-12-11T16:37:23-0500
_audit_creation_method            fapswitch 2.2
_symmetry_space_group_name_H-M    P1
_symmetry_Int_Tables_number       1
_space_group_crystal_system       triclinic
_cell_length_a                    19.492686
_cell_length_b                    6.94158
_cell_length_c                    17.706168
_cell_angle_alpha                 90.015069
_cell_angle_beta                  108.995726
_cell_angle_gamma                 90.030362
_cell_volume                      2265.35209681

loop_
_atom_site_label
_atom_site_type_symbol
_atom_type_description
_atom_site_fract_x
_atom_site_fract_y
_atom_site_fract_z
_atom_type_partial_charge
O1    O     O_R   0.561710 0.369960 0.440200 -0.544319
O2    O     O_R   0.061710 0.630040 0.940200 -0.543717
O3    O     O_R   0.412630 0.033330 0.406330 -0.527181
O4    O     O_R   0.912630 0.966670 0.906330 -0.530101
O5    O     O_R   0.438290 0.869790 0.559800 -0.544506
O6    O     O_R   0.938290 0.130210 0.059800 -0.545053
C1    C     C_R   0.385072 0.203094 0.382881 0.723643
C2    C     C_R   0.884644 0.796832 0.883513 0.729524
O7    O     O_R   0.559570 0.039810 0.430640 -0.520925
O8    O     O_R   0.059570 0.960190 0.930640 -0.519877
O9    O     O_R   0.586280 0.876320 0.584290 -0.542497
O10   O     O_R   0.086280 0.123680 0.084290 -0.542037
C3    C     C_R   0.579026 0.209161 0.413355 0.744547
C4    C     C_R   0.079077 0.790861 0.913416 0.749822
O11   O     O_R   0.413720 0.363440 0.415710 -0.544295
O12   O     O_R   0.913720 0.636560 0.915710 -0.541620
O13   O     O_3   0.508590 0.205630 0.550380 -0.377545
O14   O     O_3   0.008590 0.794370 0.050380 -0.379895
V1    V     V_3+5 0.498410 0.928130 0.490650 1.451033
V2    V     V_3+5 0.998410 0.071870 0.990650 1.451105
O15   O     O_R   0.587370 0.546990 0.593670 -0.542068
O16   O     O_R   0.087370 0.453010 0.093670 -0.542377
C5    C     C_R   0.615628 0.716818 0.616383 0.689719
C6    C     C_R   0.114970 0.283210 0.117269 0.690140
O17   O     O_R   0.440430 0.540520 0.569360 -0.545191
O18   O     O_R   0.940430 0.459480 0.069360 -0.545595
C7    C     C_R   0.419089 0.709281 0.584777 0.677710
C8    C     C_R   0.919037 0.290704 0.084714 0.676190
V3    V     V_3+5 0.501590 0.428960 0.509350 1.405511
V4    V     V_3+5 0.001590 0.571040 0.009350 1.407132
O19   O     O_3   0.491410 0.701330 0.449620 -0.356922
O20   O     O_3   0.991410 0.298670 0.949620 -0.356673
C9    C     C_R   0.302989 0.911148 0.702396 -0.143173
C10   C     C_R   0.803050 0.088918 0.202505 -0.143240
H1    H     H_    0.288849 0.051926 0.719136 0.101082
H2    H     H_    0.789127 0.948191 0.219543 0.100903
C11   C     C_R   0.349685 0.899838 0.656935 -0.163778
C12   C     C_R   0.849801 0.100194 0.157104 -0.163982
H3    H     H_    0.369481 0.032540 0.639353 0.120052
H4    H     H_    0.869860 0.967510 0.139861 0.119657
C13   C     C_R   0.370483 0.720175 0.634529 -0.052614
C14   C     C_R   0.870347 0.279817 0.134361 -0.052326
C15   C     C_R   0.343574 0.552021 0.659388 -0.162138
C16   C     C_R   0.843097 0.447968 0.158767 -0.162324
H5    H     H_    0.358083 0.411197 0.643084 0.117224
H6    H     H_    0.857380 0.588753 0.142159 0.117041
C17   C     C_R   0.296696 0.563428 0.704790 -0.144263
C18   C     C_R   0.796162 0.436596 0.204098 -0.144136
H7    H     H_    0.275881 0.431175 0.721442 0.098606
H8    H     H_    0.775091 0.568823 0.220407 0.098565
C19   C     C_R   0.275522 0.743232 0.726653 0.100107
C20   C     C_R   0.775273 0.256830 0.226347 0.100105
C21   C     C_R   0.228219 0.624444 0.834969 -0.142155
C22   C     C_R   0.727749 0.376505 0.334353 -0.142648
H9    H     H_    0.269624 0.513889 0.850575 0.111753
H10   H     H_    0.768947 0.487753 0.349678 0.111207
C23   C     C_R   0.180064 0.636546 0.878555 -0.194146
C24   C     C_R   0.679640 0.364390 0.377993 -0.195602
C25   C     C_R   0.126094 0.779720 0.861924 -0.068423
C26   C     C_R   0.625950 0.220330 0.361752 -0.067918
C27   C     C_R   0.120107 0.910006 0.798040 -0.003654
C28   C     C_R   0.620170 0.089195 0.298156 -0.004343
C29   C     C_R   0.170151 0.898675 0.756054 -0.220324
C30   C     C_R   0.670176 0.100576 0.256121 -0.220229
H11   H     H_    0.164847 0.997146 0.706976 0.101206
H12   H     H_    0.665040 0.001417 0.207278 0.101592
C31   C     C_R   0.224279 0.756069 0.773534 0.088299
C32   C     C_R   0.724043 0.244029 0.273244 0.088543
C33   C     C_R   0.768306 0.623256 0.811222 0.094385
C34   C     C_R   0.304928 0.377722 0.261287 0.124548
C35   C     C_R   0.814384 0.782596 0.817693 -0.114252
C36   C     C_R   0.318381 0.217039 0.312230 -0.098639
C37   C     C_R   0.790741 0.927707 0.759651 -0.156349
C38   C     C_R   0.265277 0.071507 0.294175 -0.177561
H13   H     H_    0.824174 0.053159 0.761881 0.155106
H14   H     H_    0.272839 0.945508 0.331778 0.128257
C39   C     C_R   0.726138 0.905454 0.694692 -0.178356
C40   C     C_R   0.199252 0.094386 0.231147 -0.175361
H15   H     H_    0.711413 0.016706 0.649482 0.126993
H16   H     H_    0.158574 0.982536 0.221020 0.128999
C41   C     C_R   0.683323 0.736936 0.685511 -0.108497
C42   C     C_R   0.184005 0.264308 0.184671 -0.108908
C43   C     C_R   0.704451 0.601080 0.746986 0.105294
C44   C     C_R   0.239671 0.400443 0.199009 0.097355
C45   C     C_3   0.715683 0.389765 0.742578 -0.421171
C46   C     C_3   0.237925 0.611398 0.213395 -0.431724
C47   C     C_3   0.785003 0.413418 0.812977 -0.387236
C48   C     C_3   0.309330 0.587099 0.280878 -0.383238
H17   H     H_    0.673378 0.304562 0.757202 0.177869
H18   H     H_    0.192090 0.652197 0.234464 0.171009
H19   H     H_    0.835049 0.383908 0.797833 0.185956
H20   H     H_    0.355789 0.658424 0.268844 0.199632
H21   H     H_    0.782565 0.342771 0.868388 0.163866
H22   H     H_    0.305023 0.615432 0.340973 0.163022
H23   H     H_    0.725554 0.348033 0.686399 0.169162
H24   H     H_    0.243068 0.697629 0.162617 0.181336
H25   H     H_    0.185988 0.535022 0.926735 0.122855
H26   H     H_    0.685396 0.466620 0.425921 0.121912
C49   C     C_2   0.060873 0.053390 0.769444 0.353938
H27   H     H_    0.069540 0.182522 0.739148 0.045940
O21   O     O_2   0.000889 0.024718 0.774946 -0.533902
C50   C     C_2   0.561192 0.944772 0.269904 0.355326
H28   H     H_    0.570138 0.815166 0.240062 0.045292
O22   O     O_2   0.501105 0.973051 0.275157 -0.531062

loop_
_geom_bond_atom_site_label_1
_geom_bond_atom_site_label_2
_ccdc_geom_bond_type
V4    O20   S    
C29   H11   S    
C47   H19   S    
O13   V3    S    
C21   H9    S    
C24   H26   S    
O4    C2    A    
V1    O19   S    
C17   H7    S    
C3    C26   S    
C4    C25   S    
O9    V1    S    
C38   H14   S    
C30   C32   A    
C44   C46   S    
C12   C14   A    
O3    C1    A    
C22   C24   A    
C40   H16   S    
C23   C25   A    
C22   C32   A    
C24   C26   A    
O7    C3    A    
C26   C28   A    
C8    C14   S    
C33   C35   A    
C7    C13   S    
C6    C42   S    
O13   V1    S    
O5    C7    A    
O7    V1    S    
O6    C8    A    
C48   H20   S    
O8    V2    S    
C28   C30   A    
O3    V1    S    
O14   V4    S    
C34   C44   A    
C13   C15   A    
C10   H2    S    
C33   C47   S    
C18   H8    S    
C34   C48   S    
C2    O12   A    
C37   H13   S    
C27   C49   S    
C14   C16   A    
C21   C31   A    
C41   C43   A    
C16   H6    S    
O11   V3    S    
C48   H22   S    
C45   C47   S    
O17   V3    S    
C29   C31   A    
C25   C27   A    
C46   C48   S    
C36   C38   A    
C46   H18   S    
C1    C36   S    
C35   C37   A    
C21   C23   A    
C17   C19   A    
C1    O11   A    
O15   V3    S    
C9    C11   A    
C9    C19   A    
C30   H12   S    
C33   C43   A    
C40   C42   A    
C49   H27   S    
C39   C41   A    
C23   H25   S    
O10   V2    S    
O1    V3    S    
C39   H15   S    
C19   C31   S    
C50   O22   D    
C15   H5    S    
C46   H24   S    
C43   C45   S    
O18   V4    S    
C42   C44   A    
O15   C5    A    
O8    C4    A    
O16   C6    A    
O1    C3    A    
O12   V4    S    
V2    O20   S    
C2    C35   S    
C45   H17   S    
C5    C41   S    
C49   O21   D    
C10   C12   A    
O18   C8    A    
C27   C29   A    
C20   C32   S    
C22   H10   S    
O5    V1    S    
O17   C7    A    
O6    V2    S    
O10   C6    A    
C10   C20   A    
O2    V4    S    
V3    O19   S    
O16   V4    S    
C12   H4    S    
C45   H23   S    
C47   H21   S    
O9    C5    A    
C9    H1    S    
O14   V2    S    
C11   C13   A    
C50   H28   S    
O2    C4    A    
O4    V2    S    
C18   C20   A    
C11   H3    S    
C38   C40   A    
C37   C39   A    
C34   C36   A    
C15   C17   A    
C16   C18   A    
C28   C50   S    
