data_mof_unit_54017.cif
_audit_creation_date              2012-12-10T18:43:58-0500
_audit_creation_method            fapswitch 2.2
_symmetry_space_group_name_H-M    P1
_symmetry_Int_Tables_number       1
_space_group_crystal_system       triclinic
_cell_length_a                    11.04724
_cell_length_b                    19.45061
_cell_length_c                    18.171592
_cell_angle_alpha                 89.849133
_cell_angle_beta                  103.198559
_cell_angle_gamma                 90.740344
_cell_volume                      3801.17118665

loop_
_atom_site_label
_atom_site_type_symbol
_atom_type_description
_atom_site_fract_x
_atom_site_fract_y
_atom_site_fract_z
_atom_type_partial_charge
C1    C     C_R   0.500414 0.367561 0.500130 0.789523
C2    C     C_R   0.499592 0.632439 0.499870 0.789470
C3    C     C_R   0.498596 0.707909 0.499733 -0.023989
C4    C     C_R   0.501433 0.292091 0.500270 -0.023958
C5    C     C_R   0.577033 0.964256 0.559103 -0.179526
C6    C     C_R   0.423052 0.035745 0.440902 -0.179525
C7    C     C_R   0.578461 0.035851 0.559148 -0.183741
C8    C     C_R   0.421624 0.964151 0.440856 -0.183734
C9    C     C_R   0.501483 0.072134 0.500048 0.100348
C10   C     C_R   0.498601 0.927867 0.499957 0.100346
C11   C     C_R   0.434361 0.450649 0.711833 0.067698
C12   C     C_R   0.565685 0.549328 0.288167 0.067656
C13   C     C_R   0.430423 0.450435 0.788547 -0.265998
C14   C     C_R   0.569615 0.549536 0.211451 -0.265925
C15   C     C_R   0.492489 0.502234 0.837303 0.118786
C16   C     C_R   0.507489 0.497752 0.162693 0.118723
C17   C     C_R   0.559306 0.552556 0.806595 -0.305930
C18   C     C_R   0.440627 0.447454 0.193403 -0.305895
C19   C     C_R   0.562007 0.550480 0.729707 0.080598
C20   C     C_R   0.437937 0.449537 0.270292 0.080554
C21   C     C_R   0.607242 0.511137 0.973247 -0.238288
C22   C     C_R   0.392744 0.488834 0.026748 -0.238246
C23   C     C_R   0.262738 0.499602 0.469223 0.875241
C24   C     C_R   0.737258 0.500411 0.530778 0.875310
C25   C     C_R   0.615421 0.508666 0.051765 0.011319
C26   C     C_R   0.384573 0.491297 0.948232 0.011256
C27   C     C_R   0.506645 0.497803 0.079638 0.045647
C28   C     C_R   0.493342 0.502169 0.920358 0.045688
C29   C     C_2   0.128478 0.490703 0.452384 -0.408028
C30   C     C_2   0.871501 0.509358 0.547625 -0.408008
C31   C     C_2   0.062359 0.514840 0.500298 -0.004936
C32   C     C_2   0.937685 0.485160 0.499780 -0.004996
C33   C     C_R   0.497472 0.744482 0.432891 -0.196313
C34   C     C_R   0.502562 0.255517 0.567112 -0.196334
C35   C     C_R   0.496980 0.816065 0.432927 -0.174567
C36   C     C_R   0.503078 0.183934 0.567078 -0.174580
C37   C     C_R   0.497592 0.852178 0.499760 0.111004
C38   C     C_R   0.502484 0.147822 0.500247 0.110989
C39   C     C_R   0.498142 0.815635 0.566504 -0.187127
C40   C     C_R   0.501936 0.184368 0.433504 -0.187123
C41   C     C_R   0.498795 0.744074 0.566529 -0.190321
C42   C     C_R   0.501260 0.255928 0.433477 -0.190181
Cu1   Cu    Cu3+1 0.499960 0.500000 0.573360 0.938603
Cu2   Cu    Cu3+1 0.500040 0.500000 0.426640 0.938566
H1    H     H_    0.380729 0.409361 0.809662 0.137962
H2    H     H_    0.619364 0.590586 0.190336 0.137999
H3    H     H_    0.608844 0.593436 0.841790 0.130540
H4    H     H_    0.391048 0.406585 0.158209 0.130566
H5    H     H_    0.613593 0.589552 0.706878 0.113666
H6    H     H_    0.386316 0.410482 0.293122 0.113692
H7    H     H_    0.691849 0.517920 0.953202 0.149169
H8    H     H_    0.308133 0.482049 0.046787 0.149189
H9    H     H_    0.911315 0.544826 0.592894 0.140292
H10   H     H_    0.088583 0.455318 0.407047 0.140289
H11   H     H_    0.497540 0.717878 0.380615 0.145067
H12   H     H_    0.502479 0.282120 0.619387 0.145052
H13   H     H_    0.497985 0.843233 0.380963 0.124515
H14   H     H_    0.502073 0.156765 0.619041 0.124516
H15   H     H_    0.496980 0.842426 0.618506 0.123223
H16   H     H_    0.503112 0.157577 0.381503 0.123210
H17   H     H_    0.499313 0.717153 0.618846 0.147357
H18   H     H_    0.500741 0.282850 0.381160 0.147343
H19   H     H_    0.638575 0.937314 0.604697 0.126262
H20   H     H_    0.361509 0.062687 0.395307 0.126268
H21   H     H_    0.640965 0.062879 0.604813 0.125392
H22   H     H_    0.359118 0.937123 0.395193 0.125399
H23   H     H_    0.384768 0.411050 0.674810 0.117109
H24   H     H_    0.615322 0.588913 0.325191 0.117122
N1    N     N_R   0.499990 0.500020 0.683620 -0.166131
N2    N     N_R   0.500010 0.499980 0.316380 -0.166163
O1    O     O_R   0.499950 0.400180 0.561970 -0.597432
O2    O     O_R   0.500050 0.599820 0.438030 -0.597416
O3    O     O_R   0.500010 0.400190 0.438070 -0.586679
O4    O     O_R   0.499990 0.599810 0.561930 -0.586670
O5    O     O_R   0.320670 0.500000 0.539180 -0.564065
O6    O     O_R   0.679330 0.500000 0.460820 -0.564130
O7    O     O_R   0.320730 0.500010 0.415280 -0.588549
O8    O     O_R   0.679270 0.499990 0.584720 -0.588545
C43   C     C_R   0.887369 0.425590 0.449999 0.147679
C44   C     C_R   0.835235 0.435229 0.372667 -0.104059
C45   C     C_R   0.774039 0.380617 0.328974 -0.135988
C46   C     C_R   0.767508 0.315895 0.361452 -0.126043
C47   C     C_R   0.820958 0.305714 0.438030 -0.132167
C48   C     C_R   0.880020 0.360425 0.482343 -0.168296
H25   H     H_    0.837646 0.485507 0.347232 0.132639
H26   H     H_    0.729667 0.388611 0.270255 0.131926
H27   H     H_    0.719861 0.273816 0.327466 0.117307
H28   H     H_    0.814704 0.255736 0.463337 0.137363
H29   H     H_    0.918090 0.352454 0.542125 0.124288
C49   C     C_R   0.112788 0.574310 0.550207 0.147752
C50   C     C_R   0.120409 0.639510 0.518000 -0.168188
C51   C     C_R   0.179597 0.694114 0.562442 -0.132226
C52   C     C_R   0.232911 0.683787 0.639011 -0.126177
C53   C     C_R   0.226106 0.619030 0.671354 -0.135764
C54   C     C_R   0.164773 0.564529 0.627534 -0.104002
H30   H     H_    0.082456 0.647592 0.458226 0.124270
H31   H     H_    0.186060 0.744118 0.537241 0.137413
H32   H     H_    0.280665 0.725779 0.673096 0.117244
H33   H     H_    0.270385 0.610920 0.730064 0.132180
H34   H     H_    0.162153 0.514220 0.652864 0.132567
C55   C     C_R   0.740429 0.513507 0.102630 0.112647
C56   C     C_R   0.811023 0.574496 0.106494 -0.176644
C57   C     C_R   0.929819 0.578665 0.154118 -0.132446
C58   C     C_R   0.979401 0.521786 0.197280 -0.112427
C59   C     C_R   0.910496 0.460559 0.192548 -0.158604
C60   C     C_R   0.791322 0.456351 0.145376 -0.137737
H35   H     H_    0.773555 0.618835 0.073214 0.121657
H36   H     H_    0.983531 0.625941 0.157453 0.125000
H37   H     H_    0.071409 0.525018 0.234053 0.130883
H38   H     H_    0.949507 0.416345 0.225411 0.129996
H39   H     H_    0.739110 0.408483 0.141416 0.115180
C61   C     C_R   0.259578 0.486437 0.897368 0.112784
C62   C     C_R   0.208436 0.543678 0.854876 -0.138085
C63   C     C_R   0.089270 0.539441 0.807697 -0.158447
C64   C     C_R   0.020626 0.478100 0.802706 -0.112430
C65   C     C_R   0.070460 0.421132 0.845618 -0.132537
C66   C     C_R   0.189244 0.425330 0.893255 -0.176649
H40   H     H_    0.260454 0.591626 0.859025 0.115181
H41   H     H_    0.050073 0.583718 0.775021 0.129973
H42   H     H_    0.928628 0.474844 0.765923 0.130887
H43   H     H_    0.016952 0.373764 0.842081 0.124978
H44   H     H_    0.226914 0.380922 0.926341 0.121646

loop_
_geom_bond_atom_site_label_1
_geom_bond_atom_site_label_2
_ccdc_geom_bond_type
C33   H11   S    
C13   H1    S    
C59   H38   S    
C8    H22   S    
C52   C53   A    
C40   H16   S    
C41   H17   S    
Cu1   Cu2   S    
C6    C9    A    
C45   C46   A    
C49   C50   A    
C49   C54   A    
C39   C41   A    
Cu1   O8    S    
C34   H12   S    
C12   H24   S    
C1    O1    A    
C21   C25   A    
C10   C37   S    
C23   C29   S    
Cu2   O7    S    
C35   C37   A    
C36   H14   S    
C43   C48   A    
C29   H10   S    
C3    C33   A    
C64   C65   A    
C65   C66   A    
C5    H19   S    
C7    C9    A    
C6    H20   S    
Cu2   O6    S    
C58   C59   A    
C20   H6    S    
C17   C19   A    
C50   H30   S    
C31   C32   S    
Cu2   N2    S    
C57   H36   S    
C42   H18   S    
C18   C20   A    
C45   H26   S    
C2    O4    A    
Cu1   O4    S    
C40   C42   A    
C47   H28   S    
Cu1   N1    S    
C38   C40   A    
C20   N2    A    
C53   C54   A    
C2    O2    A    
C61   C62   A    
C11   H23   S    
C51   H31   S    
C63   C64   A    
C60   H39   S    
Cu1   O5    S    
C30   H9    S    
C4    C34   A    
C65   H43   S    
C55   C56   A    
C14   H2    S    
C50   C51   A    
C5    C7    A    
C54   H34   S    
C24   O6    A    
C6    C8    A    
C43   C44   A    
C66   H44   S    
C44   H25   S    
C7    H21   S    
C19   H5    S    
C47   C48   A    
C29   C31   D    
C31   C49   S    
C39   H15   S    
C56   H35   S    
C16   C18   A    
C23   O7    A    
C24   O8    A    
C21   C28   A    
C12   C14   A    
C64   H42   S    
C22   C27   A    
C13   C15   A    
C14   C16   A    
C19   N1    A    
C48   H29   S    
C26   C61   S    
C21   H7    S    
C22   H8    S    
C62   C63   A    
C55   C60   A    
C15   C17   A    
C12   N2    A    
C3    C41   A    
Cu1   O1    S    
C17   H3    S    
C23   O5    A    
C44   C45   A    
C18   H4    S    
C11   N1    A    
C25   C27   A    
C59   C60   A    
C26   C28   A    
C35   H13   S    
C1    C4    S    
C1    O3    A    
C36   C38   A    
C2    C3    S    
C5    C10   A    
C37   C39   A    
C32   C43   S    
C30   C32   D    
C11   C13   A    
C25   C55   S    
C15   C28   S    
C61   C66   A    
C63   H41   S    
C4    C42   A    
C53   H33   S    
C16   C27   S    
C51   C52   A    
C33   C35   A    
Cu2   O2    S    
C34   C36   A    
C56   C57   A    
C24   C30   S    
C62   H40   S    
C8    C10   A    
C46   C47   A    
C22   C26   A    
C57   C58   A    
C58   H37   S    
C9    C38   S    
C52   H32   S    
C46   H27   S    
Cu2   O3    S    
