data_mof_unit_9016.cif
_audit_creation_date              2013-03-05T15:55:31-0500
_audit_creation_method            fapswitch 2.2
_symmetry_space_group_name_H-M    P1
_symmetry_Int_Tables_number       1
_space_group_crystal_system       triclinic
_cell_length_a                    20.140709
_cell_length_b                    7.256076
_cell_length_c                    13.557341
_cell_angle_alpha                 90.001056
_cell_angle_beta                  102.946099
_cell_angle_gamma                 89.99857
_cell_volume                      1930.94165596

loop_
_atom_site_label
_atom_site_type_symbol
_atom_site_description
_atom_site_fract_x
_atom_site_fract_y
_atom_site_fract_z
_atom_type_partial_charge
O1    O     O_R   0.449560 0.506810 0.599700 -0.594871
O2    O     O_R   0.550440 0.006810 0.400300 -0.594883
O3    O     O_R   0.587960 0.180060 0.595760 -0.597725
O4    O     O_R   0.412040 0.680060 0.404240 -0.597703
C1    C     C_R   0.614949 0.344194 0.617432 0.973010
C2    C     C_R   0.385051 0.844195 0.382568 0.972983
O5    O     O_R   0.452380 0.177430 0.611700 -0.576096
O6    O     O_R   0.547620 0.677430 0.388300 -0.576074
O7    O     O_R   0.413900 0.001890 0.416350 -0.603329
O8    O     O_R   0.586100 0.501890 0.583650 -0.603310
C3    C     C_R   0.436951 0.345893 0.638428 1.021484
C4    C     C_R   0.563048 0.845889 0.361570 1.021473
O9    O     O_3   0.487530 0.337490 0.435890 -0.290265
O10   O     O_3   0.512470 0.837490 0.564110 -0.290260
V1    V     V_3+5 0.502310 0.064660 0.511890 1.203869
V2    V     V_3+5 0.497690 0.564660 0.488110 1.203903
C5    C     C_R   0.609030 0.907066 0.108113 -0.195830
C6    C     C_R   0.390961 0.407352 0.891858 -0.195908
H1    H     H_    0.693269 0.937028 0.984434 0.152574
H2    H     H_    0.306717 0.437464 0.015521 0.152599
H3    H     H_    0.584611 0.930560 0.029356 0.190071
H4    H     H_    0.415377 0.430987 0.970601 0.190047
C7    C     C_R   0.601155 0.855397 0.281477 -0.258195
C8    C     C_R   0.398845 0.355424 0.718521 -0.258170
C9    C     C_R   0.930097 0.830026 0.315225 -0.171145
C10   C     C_R   0.069909 0.329826 0.684792 -0.171138
C11   C     C_R   0.893960 0.814183 0.390831 -0.091336
C12   C     C_R   0.106049 0.313897 0.609194 -0.091336
C13   C     C_R   0.823080 0.825007 0.367408 -0.181879
C14   C     C_R   0.176927 0.324796 0.632610 -0.181892
C15   C     C_R   0.786159 0.852911 0.266464 0.106460
C16   C     C_R   0.213842 0.352866 0.733539 0.106463
C17   C     C_R   0.823732 0.871427 0.189452 0.096991
C18   C     C_R   0.176266 0.371481 0.810541 0.097008
C19   C     C_R   0.713394 0.862882 0.239319 0.104385
C20   C     C_R   0.286606 0.362904 0.760678 0.104397
C21   C     C_R   0.680257 0.894463 0.136751 0.104304
C22   C     C_R   0.319737 0.394663 0.863228 0.104348
C23   C     C_R   0.718274 0.913224 0.062931 -0.146114
C24   C     C_R   0.281716 0.413521 0.937038 -0.146153
C25   C     C_R   0.788776 0.901213 0.088576 -0.224908
C26   C     C_R   0.211216 0.401436 0.911400 -0.224933
C27   C     C_R   0.672229 0.842896 0.310392 -0.286525
C28   C     C_R   0.327774 0.342824 0.689616 -0.286550
C29   C     C_R   0.568711 0.887614 0.179337 0.351809
C30   C     C_R   0.431282 0.387823 0.820643 0.351846
C31   C     C_R   0.895765 0.858724 0.214910 -0.150520
C32   C     C_R   0.104236 0.358696 0.785092 -0.150534
H5    H     H_    0.693704 0.819126 0.389562 0.116105
H6    H     H_    0.306304 0.318917 0.610460 0.116116
H7    H     H_    0.985165 0.819440 0.334938 0.103560
H8    H     H_    0.014844 0.319165 0.665086 0.103567
H9    H     H_    0.799000 0.811213 0.430330 0.110441
H10   H     H_    0.201010 0.310921 0.569696 0.110446
H11   H     H_    0.921102 0.792427 0.468418 0.117065
H12   H     H_    0.078911 0.292007 0.531619 0.117068
H13   H     H_    0.815692 0.916134 0.028280 0.127949
H14   H     H_    0.184297 0.416439 0.971687 0.127971
C33   C     C_R   0.217160 0.023062 0.224153 -0.134901
C34   C     C_R   0.782834 0.523064 0.775859 -0.134932
H15   H     H_    0.192959 0.155848 0.206058 0.124315
H16   H     H_    0.807031 0.655852 0.793965 0.124309
C35   C     C_R   0.282347 0.018634 0.287594 -0.130988
C36   C     C_R   0.717648 0.518635 0.712418 -0.130926
H17   H     H_    0.306044 0.147604 0.316444 0.121504
H18   H     H_    0.693946 0.647607 0.683578 0.121502
C37   C     C_R   0.316186 0.850191 0.313635 -0.091928
C38   C     C_R   0.683814 0.350190 0.686365 -0.091913
C39   C     C_R   0.283108 0.686315 0.273946 -0.111436
C40   C     C_R   0.716897 0.186312 0.726042 -0.111495
H19   H     H_    0.307446 0.553667 0.291955 0.124830
H20   H     H_    0.692565 0.053663 0.708023 0.124818
C41   C     C_R   0.217924 0.690699 0.210490 -0.152922
C42   C     C_R   0.782082 0.190698 0.789498 -0.152878
H21   H     H_    0.194363 0.561647 0.181515 0.124017
H22   H     H_    0.805648 0.061645 0.818463 0.124014
C43   C     C_R   0.183864 0.859096 0.184921 -0.109471
C44   C     C_R   0.816135 0.359097 0.815079 -0.109470
O11   O     O_R   0.913920 0.203370 0.916260 -0.594042
O12   O     O_R   0.086080 0.703370 0.083740 -0.594048
O13   O     O_R   0.047620 0.535540 0.888290 -0.588298
O14   O     O_R   0.952380 0.035540 0.111710 -0.588289
C45   C     C_R   0.063932 0.368193 0.862476 0.907431
C46   C     C_R   0.936069 0.868198 0.137525 0.907431
O15   O     O_R   0.912040 0.532780 0.904220 -0.599468
O16   O     O_R   0.087960 0.032780 0.095780 -0.599464
O17   O     O_R   0.949550 0.708160 0.099720 -0.582486
O18   O     O_R   0.050450 0.208160 0.900280 -0.582482
C47   C     C_R   0.885390 0.364926 0.883118 0.900986
C48   C     C_R   0.114610 0.864925 0.116882 0.900982
O19   O     O_3   0.012480 0.375300 0.064060 -0.288712
O20   O     O_3   0.987520 0.875300 0.935940 -0.288715
V3    V     V_3+5 0.997690 0.648180 0.988110 1.157701
V4    V     V_3+5 0.002310 0.148180 0.011890 1.157713
N1    N     N_R   0.495651 0.901204 0.146541 0.232637
O21   O     O_R   0.468454 0.991242 0.064363 -0.383359
O22   O     O_R   0.455847 0.809943 0.192448 -0.436769
N2    N     N_R   0.504339 0.401521 0.853432 0.232646
O23   O     O_R   0.531518 0.491744 0.935550 -0.383413
O24   O     O_R   0.544164 0.310248 0.807554 -0.436762

loop_
_geom_bond_atom_site_label_1
_geom_bond_atom_site_label_2
_geom_bond_distance
_ccdc_geom_bond_type
C14   C16   1.418019 A    
C35   H17   1.083004 S    
C7    C29   1.411997 A    
C11   C13   1.393502 A    
N1    O21   1.301804 A    
O1    C3    1.327893 A    
C46   O17   1.321829 A    
O2    C4    1.327900 A    
C33   C43   1.410072 A    
C2    O7    1.318120 A    
C12   H12   1.082810 S    
C23   C25   1.386922 A    
O5    C3    1.331359 A    
C14   H10   1.076240 S    
C4    C7    1.465023 S    
C34   C44   1.410068 A    
C42   H22   1.082982 S    
O14   V4    2.029918 S    
C16   C20   1.430661 A    
C19   C21   1.419765 A    
C5    C29   1.401103 A    
H2    C24   1.084349 S    
C11   H11   1.082837 S    
C3    C8    1.465016 S    
C7    C27   1.399846 A    
C34   H16   1.082833 S    
C39   H19   1.082891 S    
O16   V4    2.022706 S    
O15   V3    2.022727 S    
C18   C26   1.407555 A    
C40   C42   1.399515 A    
C15   C17   1.426471 A    
C39   C41   1.399516 A    
C19   C27   1.412390 A    
C9    C31   1.396336 A    
C10   C32   1.396312 A    
C24   C26   1.386912 A    
C45   O18   1.321823 A    
C30   N2    1.442037 S    
O6    V2    2.030192 S    
O12   C48   1.338122 A    
C41   H21   1.082985 S    
C26   H14   1.082761 S    
C1    C38   1.489372 S    
C6    C30   1.401099 A    
C10   C12   1.388468 A    
O13   C45   1.325283 A    
O18   V4    2.019027 S    
C44   C47   1.490554 S    
C21   C23   1.396351 A    
C35   C37   1.405407 A    
C43   C48   1.490554 S    
C33   H15   1.082831 S    
O11   V4    1.994072 S    
O4    C2    1.314779 A    
O16   C48   1.335874 A    
O15   C47   1.335882 A    
C27   H5    1.077433 S    
O5    V1    2.030152 S    
C5    H3    1.084304 S    
C37   C39   1.409509 A    
C36   H18   1.083002 S    
O4    V2    2.022608 S    
C9    H7    1.083805 S    
C10   H8    1.083797 S    
O13   V3    2.029878 S    
O6    C4    1.331356 A    
O1    V2    2.015388 S    
C5    C21   1.402674 A    
C31   C46   1.464902 S    
O2    V1    2.015367 S    
H1    C23   1.084380 S    
C2    C37   1.489371 S    
N2    O24   1.300905 A    
C17   C31   1.417058 A    
C15   C19   1.430672 A    
C20   C28   1.412382 A    
C18   C32   1.417049 A    
C29   N1    1.442058 S    
C36   C38   1.405410 A    
O3    V1    2.022625 S    
C28   H6    1.077399 S    
C6    H4    1.084278 S    
C33   C35   1.399483 A    
O3    C1    1.314788 A    
N1    O22   1.300827 A    
C9    C11   1.388471 A    
O14   C46   1.325278 A    
C32   C45   1.464902 S    
C34   C36   1.399483 A    
C17   C25   1.407594 A    
C12   C14   1.393492 A    
O7    V1    2.005604 S    
C8    C30   1.411963 A    
C1    O8    1.318117 A    
C13   C15   1.418055 A    
O8    V2    2.005590 S    
O19   V4    1.786946 S    
C22   C24   1.396340 A    
C13   H9    1.076252 S    
C8    C28   1.399830 A    
O17   V3    2.019006 S    
C20   C22   1.419733 A    
O20   V3    1.786960 S    
C6    C22   1.402665 A    
O11   C47   1.338117 A    
C25   H13   1.082776 S    
C38   C40   1.409505 A    
N2    O23   1.301768 A    
C42   C44   1.406132 A    
O9    V2    1.787527 S    
C41   C43   1.406128 A    
O10   V1    1.787541 S    
C40   H20   1.082893 S    
O12   V3    1.994076 S    
C16   C18   1.426466 A    
