data_mof_unit_47327.cif
_audit_creation_date              2012-12-10T18:32:52-0500
_audit_creation_method            fapswitch 2.2
_symmetry_space_group_name_H-M    P1
_symmetry_Int_Tables_number       1
_space_group_crystal_system       triclinic
_cell_length_a                    15.030658
_cell_length_b                    15.502091
_cell_length_c                    15.740667
_cell_angle_alpha                 89.814529
_cell_angle_beta                  104.9279
_cell_angle_gamma                 82.273244
_cell_volume                      3508.97349493

loop_
_atom_site_label
_atom_site_type_symbol
_atom_type_description
_atom_site_fract_x
_atom_site_fract_y
_atom_site_fract_z
_atom_type_partial_charge
C1    C     C_R   0.441654 0.661932 0.485592 0.863709
C2    C     C_R   0.590981 0.246088 0.503033 -0.054186
C3    C     C_R   0.281790 0.874938 0.451238 -0.208284
C4    C     C_R   0.501442 0.499870 0.661736 0.903024
C5    C     C_R   0.312418 0.785882 0.463788 -0.199456
C6    C     C_R   0.465234 0.810596 0.454351 -0.267314
C7    C     C_R   0.436901 0.900342 0.443445 0.091328
C8    C     C_R   0.344159 0.932563 0.444202 0.178857
C9    C     C_R   0.500633 0.958981 0.439667 0.070240
C10   C     C_R   0.474570 0.048355 0.451138 0.070425
C11   C     C_R   0.380168 0.079094 0.446062 -0.234641
C12   C     C_3   0.410104 0.541674 0.025557 0.277716
C13   C     C_R   0.315751 0.021896 0.441001 -0.241682
C14   C     C_R   0.590024 0.931389 0.427137 -0.238786
C15   C     C_R   0.654632 0.989002 0.433827 -0.239953
C16   C     C_R   0.558044 0.337944 0.510762 0.859573
C17   C     C_R   0.633350 0.074760 0.456024 0.177961
C18   C     C_R   0.543770 0.104171 0.466951 0.092729
C19   C     C_R   0.700323 0.131795 0.467581 -0.211742
C20   C     C_R   0.678569 0.217874 0.489374 -0.199563
C21   C     C_R   0.526849 0.187909 0.496430 -0.264256
C22   C     C_R   0.846166 0.631445 0.635322 -0.363681
C23   C     C_3   0.504416 0.488445 0.084292 0.113119
C24   C     C_R   0.755141 0.612848 0.610624 0.367708
C25   C     C_R   0.793553 0.510516 0.508976 -0.125989
C26   C     C_R   0.886701 0.527376 0.530652 -0.001837
C27   C     C_R   0.911740 0.589560 0.595135 0.141839
C28   C     C_R   0.498856 0.499449 0.338446 0.904534
C29   C     C_R   0.955288 0.484923 0.491297 0.095783
C30   C     C_R   0.047530 0.507381 0.515939 0.091976
C31   C     C_R   0.068820 0.569514 0.580861 -0.240885
C32   C     C_R   0.002108 0.609455 0.619652 -0.201120
C33   C     C_R   0.934859 0.420630 0.428542 -0.248728
C34   C     C_3   0.513799 0.391701 0.054357 0.040843
C35   C     C_R   0.001837 0.380202 0.390277 -0.204602
C36   C     C_R   0.091197 0.402753 0.412171 0.149693
C37   C     C_R   0.115478 0.466698 0.474883 -0.002242
C38   C     C_R   0.156400 0.362156 0.370825 -0.375785
C39   C     C_R   0.245003 0.386559 0.389831 0.368449
C40   C     C_3   0.413378 0.538396 0.927478 -0.496872
C41   C     C_R   0.207164 0.487299 0.492951 -0.124587
C42   C     C_3   0.585221 0.537056 0.972706 -0.515407
C43   C     C_3   0.590729 0.531146 0.072600 0.049210
C44   C     C_1   0.497999 0.495265 0.249597 -0.203334
C45   C     C_3   0.522021 0.389685 0.955657 0.292807
C46   C     C_3   0.506968 0.487986 0.919090 0.146684
C47   C     C_3   0.309994 0.684179 0.027584 -0.746176
C48   C     C_3   0.566271 0.270197 0.168750 -0.825240
C49   C     C_3   0.289951 0.372246 0.253640 -0.776382
C50   C     C_3   0.672104 0.747568 0.645793 -0.787810
C51   C     C_3   0.709444 0.491875 0.215839 -0.777012
C52   C     C_3   0.628945 0.251851 0.949340 -0.785366
C53   C     C_1   0.500648 0.491515 0.175077 -0.013703
C54   C     C_1   0.507280 0.492732 0.827338 -0.081195
C55   C     C_1   0.505553 0.496710 0.751630 -0.202887
C56   C     C_R   0.405211 0.754063 0.467997 -0.053203
H1    H     H_    0.353520 0.510094 0.886014 0.174388
H2    H     H_    0.353712 0.147399 0.444528 0.137618
H3    H     H_    0.611189 0.866076 0.409629 0.145601
H4    H     H_    0.768557 0.110342 0.457941 0.134263
H5    H     H_    0.021517 0.656706 0.669306 0.141235
H6    H     H_    0.232259 0.535139 0.538979 0.141430
H7    H     H_    0.983139 0.331234 0.342351 0.141717
H8    H     H_    0.865636 0.677902 0.685743 0.152012
H9    H     H_    0.767709 0.464283 0.461315 0.142581
H10   H     H_    0.652547 0.511896 0.958677 0.175408
H11   H     H_    0.136857 0.588657 0.604127 0.136497
H12   H     H_    0.244459 0.047633 0.438924 0.144063
H13   H     H_    0.867643 0.399321 0.407456 0.136675
H14   H     H_    0.138354 0.312903 0.323072 0.148528
H15   H     H_    0.571168 0.606947 0.950203 0.167735
H16   H     H_    0.586906 0.598633 0.096304 0.128230
H17   H     H_    0.448822 0.365989 0.055850 0.121407
H18   H     H_    0.450588 0.667878 0.038293 0.206445
H19   H     H_    0.315585 0.752657 0.046301 0.221508
H20   H     H_    0.263893 0.658797 0.063665 0.256929
H21   H     H_    0.278645 0.683577 0.955549 0.234195
H22   H     H_    0.318874 0.446044 0.003334 0.150604
H23   H     H_    0.463178 0.209615 0.514408 0.154956
H24   H     H_    0.328622 0.494681 0.101156 0.189376
H25   H     H_    0.656301 0.328630 0.109700 0.286557
H26   H     H_    0.629314 0.241376 0.219706 0.243895
H27   H     H_    0.538754 0.218061 0.125745 0.241906
H28   H     H_    0.513429 0.298720 0.202502 0.246702
H29   H     H_    0.325640 0.281192 0.357016 0.200584
H30   H     H_    0.228174 0.343757 0.216203 0.215169
H31   H     H_    0.350114 0.347460 0.227575 0.229533
H32   H     H_    0.276318 0.444295 0.243576 0.252909
H33   H     H_    0.697258 0.629002 0.715204 0.212622
H34   H     H_    0.728988 0.262496 0.493461 0.154069
H35   H     H_    0.729260 0.774492 0.692982 0.217682
H36   H     H_    0.605619 0.771296 0.662010 0.245174
H37   H     H_    0.667600 0.771653 0.578095 0.244874
H38   H     H_    0.735275 0.493773 0.094159 0.228775
H39   H     H_    0.786336 0.476764 0.240111 0.224727
H40   H     H_    0.680138 0.443430 0.248566 0.267203
H41   H     H_    0.688090 0.558797 0.235160 0.239187
H42   H     H_    0.383347 0.367896 0.904802 0.149924
H43   H     H_    0.452390 0.341210 0.837019 0.199239
H44   H     H_    0.643939 0.373894 0.907639 0.225257
H45   H     H_    0.722280 0.965726 0.423680 0.145009
H46   H     H_    0.704687 0.228310 0.970210 0.230651
H47   H     H_    0.600778 0.230709 0.881482 0.240036
H48   H     H_    0.594985 0.221641 0.994283 0.267755
H49   H     H_    0.210501 0.899049 0.450593 0.134463
H50   H     H_    0.264432 0.742417 0.472414 0.155954
H51   H     H_    0.535555 0.783395 0.456848 0.158989
H52   H     H_    0.405004 0.605683 0.898643 0.188380
N1    N     N_R   0.731690 0.552720 0.548990 -0.116705
N2    N     N_2   0.614009 0.346287 0.951109 -0.296373
N3    N     N_R   0.268300 0.447240 0.450950 -0.113177
N4    N     N_2   0.401658 0.632952 0.051369 -0.287351
N5    N     N_3   0.327223 0.504436 0.035120 -0.450720
N6    N     N_2   0.589627 0.336957 0.117044 -0.269548
N7    N     N_2   0.311171 0.347811 0.346284 -0.252200
N8    N     N_2   0.687704 0.653286 0.651945 -0.254445
N9    N     N_2   0.681344 0.484503 0.121041 -0.286984
N10   N     N_3   0.450123 0.341024 0.902838 -0.466090
O1    O     O_R   0.383120 0.605620 0.475300 -0.624262
O2    O     O_R   0.531890 0.639510 0.506740 -0.589262
O3    O     O_R   0.425580 0.483050 0.607130 -0.617841
O4    O     O_R   0.574360 0.516930 0.638570 -0.605818
O5    O     O_R   0.468110 0.360490 0.493260 -0.606371
O6    O     O_R   0.616880 0.394380 0.524700 -0.622798
O7    O     O_R   0.425640 0.483070 0.361430 -0.586554
O8    O     O_R   0.574420 0.516950 0.392870 -0.621627
Zn1   Zn    Zn3+2 0.400660 0.477370 0.479010 0.953034
Zn2   Zn    Zn3+2 0.599340 0.522630 0.520990 0.950170

loop_
_geom_bond_atom_site_label_1
_geom_bond_atom_site_label_2
_ccdc_geom_bond_type
C45   N10   S    
C51   H41   S    
C38   H14   S    
C52   H47   S    
H44   N2    S    
C43   H16   S    
C18   C21   A    
C49   H31   S    
C5    C56   A    
C19   C20   A    
C7    C8    A    
C45   C46   S    
C3    H49   S    
C40   C46   S    
C14   H3    S    
C12   C23   S    
C52   H46   S    
C26   C27   A    
C8    C13   A    
C36   C37   A    
C1    C56   S    
C47   H20   S    
O3    Zn1   S    
H18   N4    S    
C30   C31   A    
H38   N9    S    
C47   N4    S    
C29   C33   A    
C23   C43   S    
C15   C17   A    
C42   C46   S    
C51   N9    S    
C44   C53   T    
C35   C36   A    
H25   N6    S    
C6    H51   S    
C23   C53   S    
C11   H2    S    
C2    C16   S    
C9    C10   A    
C33   H13   S    
C51   H40   S    
O6    Zn2   S    
C39   N3    A    
H33   N8    S    
O4    Zn2   S    
C49   H32   S    
C21   H23   S    
C41   H6    S    
C28   O8    A    
H42   N10   S    
C5    H50   S    
C2    C20   A    
H29   N7    S    
C25   H9    S    
C3    C8    A    
C45   N2    S    
C17   C19   A    
C25   C26   A    
C20   H34   S    
C28   C44   S    
C48   H28   S    
C30   C37   A    
C1    O2    A    
C12   C40   S    
C31   H11   S    
C9    C14   A    
C1    O1    A    
C29   C30   A    
N1    Zn2   S    
O5    Zn1   S    
C31   C32   A    
C52   N2    S    
C23   C34   S    
C46   C54   S    
C2    C21   A    
C17   C18   A    
C4    O4    A    
C34   C45   S    
C15   H45   S    
C43   N9    S    
C50   H36   S    
C49   N7    S    
C24   N8    S    
C39   N7    S    
C22   C27   A    
C4    C55   S    
N3    Zn1   S    
C22   C24   A    
H22   N5    S    
C42   C43   S    
C47   H21   S    
C12   N4    S    
C28   O7    A    
C48   N6    S    
C12   N5    S    
C7    C9    A    
C54   C55   T    
C52   H48   S    
O8    Zn2   S    
C40   H1    S    
C27   C32   A    
C49   H30   S    
C16   O5    A    
C42   H10   S    
C24   N1    A    
C6    C56   A    
C3    C5    A    
C32   H5    S    
O2    Zn2   S    
C50   H37   S    
C6    C7    A    
C25   N1    A    
C19   H4    S    
C34   N6    S    
C48   H27   S    
C40   H52   S    
C36   C38   A    
C16   O6    A    
C47   H19   S    
H43   N10   S    
C11   C13   A    
C38   C39   A    
C10   C18   A    
C42   H15   S    
C33   C35   A    
C48   H26   S    
C4    O3    A    
C50   N8    S    
C37   C41   A    
C10   C11   A    
C34   H17   S    
C22   H8    S    
C50   H35   S    
H24   N5    S    
C26   C29   A    
C41   N3    A    
O7    Zn1   S    
C14   C15   A    
C35   H7    S    
C51   H39   S    
C13   H12   S    
O1    Zn1   S    
