data_mof_unit_41088.cif
_audit_creation_date              2012-12-10T17:08:37-0500
_audit_creation_method            fapswitch 2.2
_symmetry_space_group_name_H-M    P1
_symmetry_Int_Tables_number       1
_space_group_crystal_system       triclinic
_cell_length_a                    15.740634
_cell_length_b                    10.642444
_cell_length_c                    10.040383
_cell_angle_alpha                 88.710285
_cell_angle_beta                  89.747403
_cell_angle_gamma                 90.396686
_cell_volume                      1681.46914712

loop_
_atom_site_label
_atom_site_type_symbol
_atom_type_description
_atom_site_fract_x
_atom_site_fract_y
_atom_site_fract_z
_atom_type_partial_charge
C1    C     C_R   0.490727 0.262908 0.501289 0.896401
C2    C     C_2   0.505384 0.871214 0.493561 -0.358890
C3    C     C_2   0.470873 0.068709 0.391807 -0.191653
C4    C     C_R   0.338362 0.499960 0.500298 0.890766
C5    C     C_2   0.459960 0.134608 0.503380 -0.049481
C6    C     C_2   0.556643 0.557214 0.923489 -0.144541
C7    C     C_2   0.544855 0.578887 0.071139 0.100395
C8    C     C_R   0.501967 0.737884 0.498438 0.932277
C9    C     C_R   0.661636 0.500076 0.499685 0.907345
C10   C     C_3   0.047594 0.479795 0.644293 -0.423963
C11   C     C_3   0.047774 0.397855 0.401692 0.376445
C12   C     C_3   0.949677 0.474928 0.642414 -0.402315
C13   C     C_3   0.949587 0.391019 0.409774 -0.470429
C14   C     C_1   0.750527 0.499653 0.499081 -0.197481
C15   C     C_3   0.082814 0.498354 0.500155 0.235899
C16   C     C_3   0.411017 0.084977 0.625987 -0.402932
C17   C     C_3   0.331085 0.162910 0.652078 -0.349745
C18   C     C_3   0.277656 0.104781 0.765114 -0.903593
C19   C     C_3   0.583289 0.695845 0.131412 -0.309331
C20   C     C_3   0.639721 0.777613 0.038474 -0.450132
C21   C     C_3   0.671552 0.894221 0.109403 -0.869096
C22   C     C_3   0.087732 0.213232 0.525144 0.127843
C23   C     C_3   0.917230 0.497962 0.498731 0.302611
C24   C     C_3   0.100824 0.073948 0.501806 -0.848358
C25   C     C_3   0.952054 0.626422 0.445005 -0.409684
C26   C     C_3   0.050344 0.628297 0.449524 -0.481186
C27   C     C_1   0.825833 0.498991 0.498763 -0.093731
C28   C     C_1   0.174196 0.499024 0.500757 -0.077565
C29   C     C_1   0.249489 0.499469 0.500812 -0.180590
C30   C     C_2   0.468389 0.933537 0.393208 -0.189877
H1    H     H_    0.927157 0.381765 0.681488 0.162645
H2    H     H_    0.073038 0.395487 0.696299 0.146582
H3    H     H_    0.479196 0.420458 0.104736 0.153491
H4    H     H_    0.061883 0.437191 0.300134 0.107507
H5    H     H_    0.926885 0.298356 0.449224 0.178243
H6    H     H_    0.922655 0.401809 0.307760 0.149697
H7    H     H_    0.072325 0.704053 0.516213 0.194495
H8    H     H_    0.076171 0.651449 0.348436 0.169367
H9    H     H_    0.926916 0.704148 0.505879 0.179544
H10   H     H_    0.254523 0.009964 0.737865 0.263346
H11   H     H_    0.315791 0.097031 0.857729 0.267326
H12   H     H_    0.068245 0.560142 0.705843 0.182366
H13   H     H_    0.221875 0.165081 0.784464 0.244203
H14   H     H_    0.348889 0.259742 0.679981 0.245925
H15   H     H_    0.292015 0.168428 0.560226 0.226615
H16   H     H_    0.389117 0.986678 0.614078 0.233933
H17   H     H_    0.453319 0.087109 0.714284 0.200670
H18   H     H_    0.617139 0.952337 0.141648 0.262387
H19   H     H_    0.709810 0.866640 0.197935 0.260058
H20   H     H_    0.712124 0.951636 0.040393 0.251874
H21   H     H_    0.695706 0.722820 0.006034 0.224358
H22   H     H_    0.602970 0.808804 0.949507 0.232922
H23   H     H_    0.924051 0.547544 0.709576 0.175293
H24   H     H_    0.529839 0.755369 0.163771 0.213785
H25   H     H_    0.622079 0.668044 0.218702 0.239681
H26   H     H_    0.027269 0.222843 0.581058 0.130713
H27   H     H_    0.141735 0.246615 0.585791 0.150533
H28   H     H_    0.161709 0.059341 0.448181 0.263069
H29   H     H_    0.102730 0.021831 0.598812 0.204458
H30   H     H_    0.047770 0.036334 0.441607 0.253685
H31   H     H_    0.930600 0.643172 0.340645 0.170735
H32   H     H_    0.441095 0.886118 0.308611 0.171090
H33   H     H_    0.535319 0.919027 0.575824 0.153299
H34   H     H_    0.494310 0.112507 0.299864 0.162856
H35   H     H_    0.611246 0.597508 0.871909 0.163698
H36   H     H_    0.445779 0.472487 0.899498 0.162445
N1    N     N_2   0.500900 0.501330 0.852150 -0.204741
N2    N     N_2   0.500920 0.501360 0.147810 -0.215061
O1    O     O_R   0.499990 0.319060 0.613040 -0.613628
O2    O     O_R   0.500010 0.319100 0.386900 -0.624725
O3    O     O_R   0.377130 0.499990 0.613120 -0.626533
O4    O     O_R   0.377160 0.500030 0.386980 -0.601657
O5    O     O_R   0.499990 0.680900 0.613100 -0.609755
O6    O     O_R   0.500010 0.680940 0.386960 -0.633354
O7    O     O_R   0.622840 0.499970 0.613020 -0.609306
O8    O     O_R   0.622870 0.500010 0.386880 -0.622745
O9    O     O_3   0.087978 0.278213 0.401041 -0.609068
Zn1   Zn    Zn3+2 0.499980 0.499970 0.650990 0.929157
Zn2   Zn    Zn3+2 0.500020 0.500030 0.349010 0.923117

loop_
_geom_bond_atom_site_label_1
_geom_bond_atom_site_label_2
_ccdc_geom_bond_type
C10   H12   S    
C19   C20   S    
O8    Zn2   S    
C22   H27   S    
C21   H19   S    
C3    H34   S    
C12   C23   S    
C1    C5    S    
C28   C29   T    
C17   H15   S    
C13   H5    S    
C20   H21   S    
C10   C15   S    
C13   C23   S    
C18   H10   S    
C5    C16   S    
C11   O9    S    
C7    N2    D    
C11   C15   S    
C6    H35   S    
C16   C17   S    
O5    Zn1   S    
C9    O8    A    
C23   C27   S    
C14   C27   T    
C4    C29   S    
C21   H18   S    
N2    Zn2   S    
C23   C25   S    
H36   N1    S    
O1    Zn1   S    
N1    Zn1   S    
C16   H17   S    
C21   H20   S    
C13   H6    S    
C18   H11   S    
C16   H16   S    
C26   H8    S    
C15   C26   S    
C22   H26   S    
C25   C26   S    
C1    O1    A    
C3    C30   S    
C9    C14   S    
C24   H30   S    
C8    O6    A    
C17   C18   S    
C25   H31   S    
C10   C12   S    
C19   H24   S    
C6    N1    D    
C7    C19   S    
O6    Zn2   S    
C30   H32   S    
C12   H1    S    
C22   C24   S    
C4    O4    A    
C2    H33   S    
C19   H25   S    
O2    Zn2   S    
C11   H4    S    
C2    C8    S    
C12   H23   S    
C22   O9    S    
C3    C5    D    
C26   H7    S    
C6    C7    S    
O4    Zn2   S    
C1    O2    A    
C2    C30   D    
C17   H14   S    
C20   H22   S    
C18   H13   S    
C25   H9    S    
C11   C13   S    
C15   C28   S    
C24   H29   S    
C8    O5    A    
O3    Zn1   S    
O7    Zn1   S    
C10   H2    S    
C20   C21   S    
C24   H28   S    
C9    O7    A    
C4    O3    A    
H3    N2    S    
