data_mof_unit_34305.cif
_audit_creation_date              2012-12-10T19:22:23-0500
_audit_creation_method            fapswitch 2.2
_symmetry_space_group_name_H-M    P1
_symmetry_Int_Tables_number       1
_space_group_crystal_system       triclinic
_cell_length_a                    17.790896
_cell_length_b                    16.618194
_cell_length_c                    10.935215
_cell_angle_alpha                 89.999268
_cell_angle_beta                  95.075185
_cell_angle_gamma                 89.991808
_cell_volume                      3220.34912662

loop_
_atom_site_label
_atom_site_type_symbol
_atom_type_description
_atom_site_fract_x
_atom_site_fract_y
_atom_site_fract_z
_atom_type_partial_charge
C1    C     C_R   0.355333 0.500168 0.502591 0.782022
C2    C     C_R   0.454702 0.745317 0.413127 0.272940
C3    C     C_R   0.499991 0.874186 0.500016 0.095737
C4    C     C_1   0.499985 0.962789 0.500020 -0.040913
C5    C     C_1   0.499982 0.036538 0.500019 -0.040418
C6    C     C_R   0.563597 0.169402 0.548662 -0.010082
C7    C     C_R   0.436378 0.169430 0.451369 -0.010077
C8    C     C_R   0.557189 0.254871 0.565779 0.222131
C9    C     C_R   0.442801 0.254895 0.434232 0.222153
C10   C     C_R   0.499985 0.125910 0.500018 0.022330
C11   C     C_R   0.499542 0.500071 0.265095 0.854813
C12   C     C_R   0.644665 0.500160 0.497411 0.782000
C13   C     C_R   0.500461 0.500070 0.734905 0.854818
C14   C     C_2   0.496010 0.434783 0.932880 -0.159145
C15   C     C_2   0.503961 0.434779 0.067117 -0.159157
C16   C     C_2   0.504133 0.501581 0.867294 -0.341152
C17   C     C_2   0.495880 0.501585 0.132706 -0.341176
C18   C     C_R   0.850721 0.560202 0.474509 -0.188493
C19   C     C_R   0.149216 0.560257 0.524961 -0.188501
C20   C     C_R   0.771846 0.568758 0.471674 0.074191
C21   C     C_R   0.228093 0.568813 0.527913 0.074204
C22   C     C_R   0.727974 0.498941 0.492571 -0.108579
C23   C     C_R   0.885566 0.485360 0.493213 0.083409
C24   C     C_R   0.272020 0.498956 0.507412 -0.108557
C25   C     C_R   0.764200 0.423827 0.507441 -0.245910
C26   C     C_R   0.235840 0.423807 0.492912 -0.246110
C27   C     C_R   0.842236 0.415845 0.507021 0.122862
C28   C     C_R   0.157799 0.415839 0.493202 0.122821
C29   C     C_3   0.611409 0.293499 0.664285 -0.359607
C30   C     C_3   0.599680 0.260224 0.792657 -0.397072
C31   C     C_3   0.651422 0.301928 0.892042 -0.859831
C32   C     C_3   0.388577 0.293544 0.335729 -0.359512
C33   C     C_3   0.400278 0.260244 0.207358 -0.397171
C34   C     C_R   0.114418 0.485381 0.506557 0.083482
C35   C     C_3   0.348531 0.301966 0.107979 -0.859861
C36   C     C_3   0.734565 0.650475 0.445609 -0.364836
C37   C     C_3   0.786204 0.720191 0.413804 -0.397774
C38   C     C_3   0.740664 0.797166 0.387161 -0.839415
C39   C     C_3   0.265317 0.650572 0.553700 -0.364894
C40   C     C_3   0.213615 0.720348 0.585091 -0.397745
C41   C     C_3   0.259105 0.797369 0.611487 -0.839465
C42   C     C_3   0.876503 0.332424 0.520613 -0.423112
C43   C     C_3   0.855903 0.282160 0.404698 -0.334967
C44   C     C_3   0.895746 0.200809 0.411286 -0.867565
C45   C     C_1   0.966213 0.482521 0.497721 -0.070980
C46   C     C_3   0.123590 0.332389 0.480104 -0.423079
C47   C     C_3   0.143680 0.282704 0.596770 -0.334983
C48   C     C_3   0.104191 0.201172 0.590372 -0.867626
C49   C     C_3   0.597567 0.708113 0.688385 -0.378292
C50   C     C_3   0.568500 0.721941 0.815071 -0.360509
C51   C     C_3   0.623854 0.688998 0.917668 -0.875618
C52   C     C_3   0.402477 0.708154 0.311561 -0.378322
C53   C     C_3   0.431608 0.721962 0.184919 -0.360427
C54   C     C_3   0.376280 0.689070 0.082263 -0.875625
C55   C     C_3   0.636871 0.123089 0.582758 -0.414363
C56   C     C_1   0.033771 0.482526 0.502014 -0.070943
C57   C     C_3   0.674548 0.099149 0.467050 -0.324829
C58   C     C_3   0.742828 0.045034 0.498653 -0.860561
C59   C     C_3   0.363099 0.123151 0.417269 -0.414372
C60   C     C_3   0.325414 0.099218 0.532968 -0.324789
C61   C     C_3   0.257189 0.045046 0.501359 -0.860910
C62   C     C_R   0.546074 0.830765 0.585091 -0.291061
C63   C     C_R   0.453920 0.830782 0.414924 -0.291043
C64   C     C_R   0.545304 0.745298 0.586869 0.272904
Cu1   Cu    Cu3+1 0.500000 0.580420 0.500000 0.900870
Cu2   Cu    Cu3+1 0.500000 0.419580 0.500000 0.907840
H1    H     H_    0.484941 0.377571 0.887568 0.171431
H2    H     H_    0.417026 0.863756 0.348342 0.136541
H3    H     H_    0.711416 0.289846 0.877673 0.251586
H4    H     H_    0.641662 0.367930 0.890278 0.262665
H5    H     H_    0.639841 0.278621 0.983679 0.241817
H6    H     H_    0.540044 0.269029 0.811619 0.218078
H7    H     H_    0.610874 0.194668 0.798520 0.216041
H8    H     H_    0.670563 0.284960 0.642936 0.154452
H9    H     H_    0.604947 0.358227 0.670454 0.258126
H10   H     H_    0.288538 0.289922 0.122378 0.251608
H11   H     H_    0.358306 0.367962 0.109717 0.262657
H12   H     H_    0.514989 0.377555 0.112426 0.171454
H13   H     H_    0.360091 0.278640 0.016343 0.241808
H14   H     H_    0.459912 0.269014 0.188368 0.218068
H15   H     H_    0.389072 0.194694 0.201513 0.216056
H16   H     H_    0.329423 0.285057 0.357113 0.154489
H17   H     H_    0.395059 0.358264 0.329524 0.258154
H18   H     H_    0.698251 0.788166 0.307499 0.254606
H19   H     H_    0.711241 0.814908 0.468534 0.252256
H20   H     H_    0.779111 0.846744 0.365278 0.241317
H21   H     H_    0.828737 0.732191 0.492388 0.218078
H22   H     H_    0.815517 0.704551 0.331330 0.223982
H23   H     H_    0.516177 0.559167 0.910223 0.160154
H24   H     H_    0.690793 0.643280 0.367243 0.218233
H25   H     H_    0.707277 0.668786 0.528290 0.205716
H26   H     H_    0.301471 0.788512 0.691256 0.254672
H27   H     H_    0.288579 0.814963 0.530102 0.252179
H28   H     H_    0.220614 0.846986 0.633086 0.241351
H29   H     H_    0.171133 0.732206 0.506378 0.218080
H30   H     H_    0.184243 0.704863 0.667563 0.223980
H31   H     H_    0.309037 0.643520 0.632175 0.218281
H32   H     H_    0.292656 0.668723 0.471006 0.205628
H33   H     H_    0.957399 0.209252 0.407859 0.253822
H34   H     H_    0.483875 0.559183 0.089778 0.160179
H35   H     H_    0.885013 0.168757 0.497109 0.256329
H36   H     H_    0.874341 0.163293 0.331686 0.243855
H37   H     H_    0.793960 0.271781 0.393413 0.212620
H38   H     H_    0.872276 0.315131 0.322630 0.223653
H39   H     H_    0.938756 0.334962 0.538690 0.206399
H40   H     H_    0.854996 0.302216 0.601317 0.187668
H41   H     H_    0.042398 0.209385 0.592200 0.254013
H42   H     H_    0.115862 0.168679 0.505382 0.256564
H43   H     H_    0.125062 0.164200 0.670894 0.243725
H44   H     H_    0.205652 0.272625 0.609211 0.212799
H45   H     H_    0.886516 0.611607 0.462141 0.132408
H46   H     H_    0.126616 0.315965 0.678117 0.223607
H47   H     H_    0.061380 0.334891 0.461225 0.206142
H48   H     H_    0.145493 0.301773 0.400065 0.187722
H49   H     H_    0.636026 0.624474 0.901882 0.253731
H50   H     H_    0.677593 0.723317 0.921972 0.255999
H51   H     H_    0.599261 0.695071 0.007101 0.239728
H52   H     H_    0.560840 0.787263 0.831693 0.210902
H53   H     H_    0.512742 0.692555 0.819015 0.230021
H54   H     H_    0.607962 0.643924 0.675517 0.241976
H55   H     H_    0.653915 0.737053 0.687811 0.157151
H56   H     H_    0.113383 0.611686 0.537027 0.132402
H57   H     H_    0.364057 0.624560 0.098038 0.253749
H58   H     H_    0.322560 0.723444 0.077888 0.255985
H59   H     H_    0.400920 0.695112 0.992866 0.239731
H60   H     H_    0.439305 0.787279 0.168317 0.210889
H61   H     H_    0.487360 0.692534 0.181035 0.230025
H62   H     H_    0.392055 0.643973 0.324445 0.241893
H63   H     H_    0.346135 0.737136 0.312046 0.157152
H64   H     H_    0.784417 0.075606 0.564733 0.250365
H65   H     H_    0.724895 0.987676 0.539452 0.253801
H66   H     H_    0.770377 0.031072 0.413910 0.241807
H67   H     H_    0.731591 0.370013 0.519336 0.154249
H68   H     H_    0.634158 0.066604 0.401362 0.226042
H69   H     H_    0.693152 0.154386 0.420904 0.211408
H70   H     H_    0.679095 0.157142 0.641934 0.196772
H71   H     H_    0.624737 0.068739 0.636917 0.201193
H72   H     H_    0.215583 0.075581 0.435252 0.250118
H73   H     H_    0.275183 0.987702 0.460585 0.253916
H74   H     H_    0.229636 0.031066 0.586086 0.241914
H75   H     H_    0.365816 0.066718 0.598707 0.226071
H76   H     H_    0.306743 0.154458 0.579050 0.211574
H77   H     H_    0.320877 0.157225 0.358102 0.196725
H78   H     H_    0.268486 0.369948 0.481429 0.154393
H79   H     H_    0.375232 0.068801 0.363102 0.201229
H80   H     H_    0.582973 0.863726 0.651666 0.136561
N1    N     N_R   0.500000 0.701220 0.500000 -0.189667
N2    N     N_R   0.500000 0.298780 0.500000 -0.213739
O1    O     O_R   0.391260 0.567930 0.500000 -0.609658
O2    O     O_R   0.608740 0.567930 0.500000 -0.609715
O3    O     O_R   0.391280 0.432120 0.500000 -0.598043
O4    O     O_R   0.608720 0.432120 0.500000 -0.598007
O5    O     O_R   0.500000 0.567890 0.321940 -0.592165
O6    O     O_R   0.500000 0.567890 0.678060 -0.592145
O7    O     O_R   0.500030 0.432070 0.321950 -0.586741
O8    O     O_R   0.499970 0.432070 0.678050 -0.586739

loop_
_geom_bond_atom_site_label_1
_geom_bond_atom_site_label_2
_ccdc_geom_bond_type
C7    C10   A    
C54   H57   S    
C19   H56   S    
C34   C56   S    
C23   C45   S    
C12   O4    A    
C37   H22   S    
C6    C55   S    
C52   H62   S    
C48   H42   S    
C53   C54   S    
C52   C53   S    
C28   C46   S    
C29   C30   S    
C38   H20   S    
C8    C29   S    
C36   C37   S    
C19   C21   A    
C24   C26   A    
C49   H54   S    
Cu2   O7    S    
C44   H33   S    
C61   H72   S    
C39   H31   S    
C15   H12   S    
C5    C10   S    
C47   H46   S    
C12   C22   S    
C7    C9    A    
Cu1   O2    S    
C43   H38   S    
C62   C64   A    
C53   H61   S    
C9    C32   S    
C60   H76   S    
C46   C47   S    
C31   H4    S    
C41   H27   S    
C41   H28   S    
C45   C56   T    
C58   H66   S    
C22   C25   A    
Cu1   O5    S    
C14   H1    S    
C1    O1    A    
C23   C27   A    
Cu1   N1    S    
C25   H67   S    
Cu2   N2    S    
C11   O7    A    
C31   H5    S    
C48   H43   S    
C59   H77   S    
C59   C60   S    
C49   C64   S    
C8    N2    A    
C40   H30   S    
C26   H78   S    
C7    C59   S    
C17   H34   S    
C54   H59   S    
C35   H10   S    
C46   H48   S    
C38   H19   S    
C18   C23   A    
C12   O2    A    
C18   H45   S    
C39   C40   S    
C30   H7    S    
C44   H36   S    
C61   H73   S    
C39   H32   S    
C6    C8    A    
C29   H8    S    
C2    N1    A    
C35   H11   S    
C51   H49   S    
C50   H53   S    
C60   C61   S    
C43   C44   S    
C13   O8    A    
Cu2   O4    S    
C37   C38   S    
C60   H75   S    
C47   C48   S    
C21   C39   S    
C31   H3    S    
C58   H65   S    
C49   H55   S    
C50   C51   S    
C33   H14   S    
C42   H40   S    
C2    C52   S    
C59   H79   S    
C36   H25   S    
C40   C41   S    
C20   C22   A    
C49   C50   S    
C55   C57   S    
C64   N1    A    
C51   H51   S    
C14   C16   D    
C57   H68   S    
C21   C24   A    
C42   C43   S    
C52   H63   S    
C40   H29   S    
C3    C4    S    
C2    C63   A    
C3    C62   A    
C36   H24   S    
C15   C17   D    
C32   H17   S    
C54   H58   S    
C63   H2    S    
C11   C17   S    
C46   H47   S    
C38   H18   S    
C50   H52   S    
C37   H21   S    
C4    C5    T    
C19   C34   A    
C6    C10   A    
C30   H6    S    
C44   H35   S    
C61   H74   S    
C29   H9    S    
C3    C63   A    
C25   C27   A    
C47   H44   S    
C32   H16   S    
C9    N2    A    
C26   C28   A    
C51   H50   S    
C55   H71   S    
C32   C33   S    
Cu2   O3    S    
Cu2   O8    S    
C27   C42   S    
C57   C58   S    
C30   C31   S    
C58   H64   S    
C35   H13   S    
C48   H41   S    
C33   C35   S    
C1    O3    A    
C18   C20   A    
Cu1   O1    S    
C42   H39   S    
C43   H37   S    
C13   O6    A    
C53   H60   S    
C11   O5    A    
C28   C34   A    
C20   C36   S    
C16   H23   S    
C41   H26   S    
C1    C24   S    
Cu1   Cu2   S    
C62   H80   S    
C13   C16   S    
C14   C15   S    
C57   H69   S    
Cu1   O6    S    
C33   H15   S    
C55   H70   S    
