data_mof_unit_8424.cif
_audit_creation_date              2012-12-10T20:40:58-0500
_audit_creation_method            fapswitch 2.2
_symmetry_space_group_name_H-M    P1
_symmetry_Int_Tables_number       1
_space_group_crystal_system       triclinic
_cell_length_a                    27.745801
_cell_length_b                    10.669143
_cell_length_c                    9.846267
_cell_angle_alpha                 89.953098
_cell_angle_beta                  89.920246
_cell_angle_gamma                 90.067963
_cell_volume                      2914.7246853

loop_
_atom_site_label
_atom_site_type_symbol
_atom_type_description
_atom_site_fract_x
_atom_site_fract_y
_atom_site_fract_z
_atom_type_partial_charge
C1    C     C_R   0.501500 0.259879 0.500068 0.887840
C2    C     C_R   0.974454 0.386639 0.515386 0.046297
C3    C     C_R   0.974543 0.615324 0.474728 0.046311
C4    C     C_R   0.406019 0.500149 0.499943 0.876197
C5    C     C_R   0.949281 0.501014 0.495461 0.071000
C6    C     C_R   0.947568 0.276926 0.543943 -0.215884
C7    C     C_R   0.897626 0.278551 0.546775 -0.135565
C8    C     C_R   0.872600 0.389481 0.521898 -0.021960
C9    C     C_R   0.898224 0.501094 0.496360 -0.051567
C10   C     C_R   0.872666 0.612794 0.471769 -0.021667
C11   C     C_R   0.822266 0.610717 0.472978 0.504632
C12   C     C_R   0.277499 0.474323 0.617032 -0.097444
C13   C     C_R   0.822204 0.391731 0.522591 0.505163
C14   C     C_R   0.722143 0.492899 0.621900 -0.100881
C15   C     C_R   0.672075 0.492706 0.622521 -0.213173
C16   C     C_R   0.501626 0.740079 0.499952 0.888103
C17   C     C_R   0.671943 0.508816 0.376241 -0.213250
C18   C     C_R   0.722001 0.509313 0.376040 -0.100981
C19   C     C_R   0.747033 0.501243 0.498752 0.321279
C20   C     C_R   0.025434 0.385709 0.507513 0.046782
C21   C     C_R   0.050705 0.500947 0.494382 0.070613
C22   C     C_R   0.025541 0.616194 0.481462 0.046762
C23   C     C_R   0.252971 0.501034 0.496596 0.317986
C24   C     C_R   0.052233 0.272998 0.511365 -0.215056
C25   C     C_R   0.102406 0.727838 0.479095 -0.135420
C26   C     C_R   0.947712 0.725080 0.446916 -0.215935
C27   C     C_R   0.897760 0.723614 0.445847 -0.135725
C28   C     C_R   0.593987 0.500118 0.499910 0.870674
C29   C     C_R   0.052458 0.728874 0.477016 -0.214945
C30   C     C_R   0.509050 0.063741 0.623398 0.146263
C31   C     C_R   0.509362 0.128556 0.500680 -0.105644
C32   C     C_R   0.519108 0.064937 0.379093 -0.215337
C33   C     C_R   0.519234 0.935335 0.379057 -0.215336
C34   C     C_R   0.101763 0.500943 0.494346 -0.051993
C35   C     C_R   0.509596 0.871371 0.500602 -0.104273
C36   C     C_R   0.509226 0.935918 0.623386 0.129250
C37   C     C_3   0.474629 0.928189 0.739670 -0.468504
C38   C     C_3   0.474307 0.070217 0.739373 -0.491085
C39   C     C_R   0.478517 0.404528 0.071610 0.212433
C40   C     C_R   0.177696 0.389338 0.502497 0.504407
C41   C     C_R   0.524985 0.587767 0.071856 -0.131662
C42   C     C_R   0.525003 0.587752 0.927739 -0.134050
C43   C     C_R   0.478318 0.404863 0.928860 0.217013
C44   C     C_3   0.426207 0.370912 0.924652 -0.519239
C45   C     C_R   0.127298 0.387172 0.502454 -0.021202
C46   C     C_3   0.426689 0.368762 0.078622 -0.494069
C47   C     C_R   0.177810 0.612600 0.487328 0.504528
C48   C     C_R   0.278395 0.527707 0.377424 -0.097998
C49   C     C_R   0.328452 0.527468 0.378510 -0.214422
C50   C     C_R   0.327557 0.474283 0.618440 -0.218054
C51   C     C_R   0.102182 0.274027 0.509264 -0.135440
C52   C     C_R   0.127412 0.614718 0.486378 -0.021293
C53   C     C_R   0.353372 0.500721 0.499151 -0.042610
C54   C     C_R   0.646641 0.500518 0.499578 -0.040535
H1    H     H_    0.345901 0.452535 0.712225 0.151732
H2    H     H_    0.523382 0.886371 0.283405 0.166109
H3    H     H_    0.439410 0.886150 0.710691 0.211660
H4    H     H_    0.257693 0.453705 0.709252 0.140255
H5    H     H_    0.491522 0.887516 0.832033 0.201983
H6    H     H_    0.438935 0.110652 0.709585 0.203454
H7    H     H_    0.490869 0.111707 0.831766 0.204856
H8    H     H_    0.544382 0.659979 0.126202 0.143988
H9    H     H_    0.544421 0.659931 0.873120 0.148094
H10   H     H_    0.403691 0.447711 0.882917 0.215542
H11   H     H_    0.419881 0.277270 0.878943 0.201097
H12   H     H_    0.259291 0.548370 0.284232 0.140288
H13   H     H_    0.403856 0.442902 0.124708 0.217184
H14   H     H_    0.421555 0.273422 0.121927 0.205644
H15   H     H_    0.121055 0.185228 0.513005 0.190729
H16   H     H_    0.653381 0.486173 0.718906 0.163667
H17   H     H_    0.741676 0.486807 0.716816 0.139550
H18   H     H_    0.878686 0.191992 0.568802 0.191903
H19   H     H_    0.963961 0.188192 0.567750 0.140960
H20   H     H_    0.035770 0.181578 0.513164 0.138384
H21   H     H_    0.347543 0.549079 0.285427 0.154220
H22   H     H_    0.121365 0.816631 0.475224 0.190808
H23   H     H_    0.964147 0.813754 0.422505 0.140901
H24   H     H_    0.653153 0.515141 0.280141 0.162697
H25   H     H_    0.878864 0.810220 0.424430 0.191795
H26   H     H_    0.741421 0.515603 0.280792 0.139373
H27   H     H_    0.036096 0.820305 0.474984 0.138385
H28   H     H_    0.523189 0.114119 0.283447 0.170813
N1    N     N_R   0.201653 0.500989 0.495322 -0.358515
N2    N     N_R   0.798343 0.501264 0.498231 -0.358516
N3    N     N_R   0.499670 0.499140 0.142800 -0.107689
N4    N     N_R   0.499670 0.499180 0.857150 -0.106507
O1    O     O_R   0.500010 0.316790 0.614690 -0.615528
O2    O     O_R   0.571250 0.500000 0.614690 -0.622717
O3    O     O_R   0.571240 0.499960 0.385340 -0.623516
O4    O     O_2   0.202672 0.280979 0.509073 -0.551166
O5    O     O_2   0.797133 0.285413 0.546423 -0.550252
O6    O     O_2   0.202891 0.720977 0.481167 -0.550936
O7    O     O_2   0.797258 0.717104 0.450013 -0.551001
O8    O     O_R   0.500000 0.316760 0.385350 -0.622612
O9    O     O_R   0.428760 0.500040 0.614660 -0.621150
O10   O     O_R   0.428750 0.500000 0.385310 -0.620778
O11   O     O_R   0.500000 0.683240 0.614650 -0.620266
O12   O     O_R   0.499990 0.683210 0.385310 -0.625529
Zn1   Zn    Zn3+2 0.500000 0.500020 0.653130 0.950339
Zn2   Zn    Zn3+2 0.500000 0.499980 0.346870 0.948935

loop_
_geom_bond_atom_site_label_1
_geom_bond_atom_site_label_2
_ccdc_geom_bond_type
C10   C27   A    
C1    O1    A    
C41   C42   A    
C8    C13   A    
C22   C29   A    
C4    C53   S    
C42   H9    S    
C14   H17   S    
C35   C36   A    
C16   O12   A    
C7    C8    A    
C44   H10   S    
C46   H14   S    
C12   C23   A    
C26   C27   A    
C23   N1    S    
C36   C37   S    
C27   H25   S    
C16   C35   S    
C30   C31   A    
O9    Zn1   S    
C16   O11   A    
C45   C51   A    
C1    C31   S    
C30   C38   S    
C18   C19   A    
C47   O6    S    
C4    O10   A    
C20   C24   A    
C1    O8    A    
C28   O2    A    
C49   H21   S    
C28   O3    A    
C42   N4    A    
C47   N1    A    
C9    C10   A    
C38   H7    S    
C12   H4    S    
C11   O7    S    
C24   C51   A    
C21   C22   A    
C13   O5    S    
C40   N1    A    
C44   H11   S    
C2    C6    A    
C41   H8    S    
O11   Zn1   S    
C44   C46   S    
O1    Zn1   S    
C25   C29   A    
C40   C45   A    
C50   C53   A    
O3    Zn2   S    
C2    C20   A    
C26   H23   S    
C15   C54   A    
C7    H18   S    
C28   C54   S    
C8    C9    A    
C39   C43   A    
C21   C34   A    
C47   C52   A    
C43   C44   S    
C29   H27   S    
C37   C38   S    
C4    O9    A    
C31   C32   A    
C13   N2    A    
O8    Zn2   S    
C17   C18   A    
C34   C45   A    
N4    Zn1   S    
C37   H5    S    
C39   C46   S    
C38   H6    S    
C48   C49   A    
O12   Zn2   S    
C2    C5    A    
C39   N3    A    
C19   N2    S    
C32   H28   S    
C6    H19   S    
C15   H16   S    
C23   C48   A    
C43   N4    A    
C14   C19   A    
C3    C26   A    
C5    C9    A    
C3    C5    A    
C12   C50   A    
C6    C7    A    
C11   N2    A    
C41   N3    A    
C34   C52   A    
C50   H1    S    
C30   C36   A    
C25   H22   S    
C40   O4    S    
C32   C33   A    
C25   C52   A    
C46   H13   S    
N3    Zn2   S    
C24   H20   S    
C33   H2    S    
C49   C53   A    
O10   Zn2   S    
C17   H24   S    
C33   C35   A    
O2    Zn1   S    
C10   C11   A    
C20   C21   A    
C18   H26   S    
C14   C15   A    
C3    C22   A    
C51   H15   S    
C48   H12   S    
C17   C54   A    
C37   H3    S    
