data_mof_unit_16353.cif
_audit_creation_date              2012-12-11T15:55:41-0500
_audit_creation_method            fapswitch 2.2
_symmetry_space_group_name_H-M    P1
_symmetry_Int_Tables_number       1
_space_group_crystal_system       triclinic
_cell_length_a                    6.931857
_cell_length_b                    14.563798
_cell_length_c                    16.078071
_cell_angle_alpha                 90.019394
_cell_angle_beta                  89.872635
_cell_angle_gamma                 90.101278
_cell_volume                      1623.14159745

loop_
_atom_site_label
_atom_site_type_symbol
_atom_type_description
_atom_site_fract_x
_atom_site_fract_y
_atom_site_fract_z
_atom_type_partial_charge
O1    O     O_R   0.505680 0.583900 0.413320 -0.516208
O2    O     O_R   0.176010 0.594950 0.586080 -0.542929
O3    O     O_R   0.005680 0.416100 0.586680 -0.539297
C1    C     C_R   0.345526 0.618811 0.613649 0.740036
O4    O     O_R   0.175960 0.594930 0.413930 -0.544851
O5    O     O_R   0.005640 0.416080 0.413300 -0.543474
C2    C     C_R   0.345630 0.616506 0.384362 0.696767
O6    O     O_R   0.505720 0.583920 0.586700 -0.512857
O7    O     O_3   0.339190 0.441320 0.500000 -0.382658
V1    V     V_3+5 0.064350 0.510890 0.500000 1.434411
O8    O     O_R   0.675920 0.405050 0.413920 -0.548979
C3    C     C_R   0.845079 0.382591 0.385146 0.681925
O9    O     O_R   0.675960 0.405070 0.586070 -0.545294
C4    C     C_R   0.844617 0.382971 0.614894 0.698298
V2    V     V_3+5 0.564340 0.489110 0.500000 1.437037
O10   O     O_3   0.839370 0.558680 0.500000 -0.352130
C5    C     C_R   0.006274 0.317933 0.741955 0.106440
C6    C     C_R   0.852439 0.317487 0.685506 -0.112559
C7    C     C_R   0.701497 0.254720 0.700508 -0.180231
H1    H     H_    0.579506 0.251836 0.658888 0.131187
C8    C     C_R   0.712985 0.190496 0.765904 -0.164638
H2    H     H_    0.598837 0.140364 0.772857 0.130852
C9    C     C_R   0.876048 0.186862 0.818126 -0.115302
C10   C     C_R   0.018058 0.254160 0.806441 0.096482
C11   C     C_3   0.230129 0.243270 0.795150 -0.408658
C12   C     C_3   0.217432 0.313166 0.725256 -0.397237
H3    H     H_    0.268408 0.173244 0.773269 0.169335
H4    H     H_    0.312867 0.268404 0.849774 0.174754
H5    H     H_    0.249260 0.283972 0.662849 0.170022
H6    H     H_    0.291961 0.378912 0.739639 0.168790
C13   C     C_R   0.046412 0.227315 0.215390 -0.161263
H7    H     H_    0.186694 0.211220 0.189521 0.117114
C14   C     C_R   0.035404 0.290726 0.280735 -0.164754
H8    H     H_    0.167683 0.321797 0.302913 0.117050
C15   C     C_R   0.856395 0.314042 0.316516 -0.043990
C16   C     C_R   0.688739 0.272139 0.285100 -0.154480
H9    H     H_    0.548407 0.288476 0.310783 0.113546
C17   C     C_R   0.699721 0.208852 0.219667 -0.152940
H10   H     H_    0.567351 0.178099 0.197248 0.116924
C18   C     C_R   0.878719 0.185494 0.183900 -0.040671
C19   C     C_R   0.195500 0.708912 0.729872 -0.211745
H11   H     H_    0.060085 0.673755 0.719003 0.196718
C20   C     C_R   0.206218 0.771966 0.795357 -0.203816
H12   H     H_    0.078262 0.784149 0.832473 0.211576
C21   C     C_R   0.380481 0.816790 0.814242 -0.231252
C22   C     C_R   0.543238 0.798903 0.764178 0.512988
C23   C     C_R   0.531167 0.738780 0.695648 0.341630
C24   C     C_R   0.357833 0.689863 0.680269 -0.224777
C25   C     C_R   0.194971 0.734023 0.290592 -0.242629
H13   H     H_    0.058722 0.724414 0.322477 0.182119
C26   C     C_R   0.203982 0.797479 0.225402 -0.160482
H14   H     H_    0.074005 0.834144 0.208570 0.134941
C27   C     C_R   0.378843 0.814746 0.183756 -0.093071
C28   C     C_R   0.543825 0.766229 0.208230 -0.253302
H15   H     H_    0.680908 0.780581 0.178567 0.126385
C29   C     C_R   0.534373 0.698372 0.270508 0.437706
C30   C     C_R   0.359115 0.684079 0.314662 -0.133885
O11   O     O_R   0.229200 0.915950 0.913350 -0.542051
O12   O     O_R   0.559090 0.905000 0.086080 -0.547992
O13   O     O_R   0.729280 0.083880 0.086680 -0.545300
C31   C     C_R   0.389864 0.883184 0.115270 0.696042
O14   O     O_R   0.558920 0.904980 0.913920 -0.499595
O15   O     O_R   0.729110 0.083860 0.913300 -0.537413
C32   C     C_R   0.390212 0.883333 0.884528 0.767208
O16   O     O_R   0.229360 0.915970 0.086730 -0.545289
O17   O     O_3   0.395680 0.058580 0.000030 -0.380253
V3    V     V_3+5 0.670570 0.989070 0.999990 1.461312
O18   O     O_R   0.058820 0.094950 0.913870 -0.542025
C33   C     C_R   0.889879 0.116819 0.884882 0.722816
O19   O     O_R   0.058990 0.094970 0.086020 -0.547172
C34   C     C_R   0.889895 0.117237 0.114978 0.671705
V4    V     V_3+5 0.170560 0.010930 0.999930 1.415320
O20   O     O_3   0.895590 0.941310 0.999960 -0.360374
F1    F     F_    0.714486 0.840704 0.780319 -0.703597
O21   O     O_3   0.693381 0.723406 0.647019 -0.555941
C35   C     C_3   0.731699 0.800570 0.595740 0.128448
H16   H     H_    0.890521 0.804835 0.586961 0.144995
H17   H     H_    0.686432 0.867355 0.623563 0.130658
C36   C     C_3   0.637207 0.788430 0.510376 -0.333995
H18   H     H_    0.689152 0.723788 0.481685 0.242382
H19   H     H_    0.478017 0.784160 0.517715 0.165512
C37   C     C_3   0.686031 0.867978 0.452259 -0.839053
H20   H     H_    0.634732 0.933866 0.479107 0.229811
H21   H     H_    0.614102 0.857247 0.391376 0.243491
H22   H     H_    0.844323 0.871808 0.441815 0.230523
O22   O     O_3   0.698406 0.649277 0.291952 -0.573054
C38   C     C_3   0.764790 0.594964 0.224498 0.071446
H23   H     H_    0.904861 0.564588 0.243532 0.141080
H24   H     H_    0.795898 0.636629 0.168120 0.107182
C39   C     C_3   0.625008 0.516070 0.203898 -0.340385
H25   H     H_    0.595124 0.475539 0.260913 0.200339
H26   H     H_    0.486091 0.544138 0.180869 0.177636
C40   C     C_3   0.708628 0.453064 0.137128 -0.819816
H27   H     H_    0.732209 0.491871 0.078511 0.227898
H28   H     H_    0.606355 0.395943 0.124687 0.233491
H29   H     H_    0.847938 0.423575 0.158020 0.239337

loop_
_geom_bond_atom_site_label_1
_geom_bond_atom_site_label_2
_ccdc_geom_bond_type
C38   H23   S    
O21   C35   S    
C40   H27   S    
C18   C34   S    
C19   H11   S    
C4    C6    S    
C15   C16   A    
C35   C36   S    
C1    O6    A    
C27   C28   A    
C13   C18   A    
C11   H4    S    
O14   V3    S    
C37   H22   S    
C5    C12   S    
C16   H9    S    
C7    C8    A    
C35   H17   S    
O5    C3    A    
C17   H10   S    
V2    O10   S    
C25   C30   A    
C29   C30   A    
C6    C7    A    
C25   H13   S    
C9    C33   S    
O14   C32   A    
O12   V3    S    
C22   C23   A    
O8    V2    S    
O17   V4    S    
C23   C24   A    
O13   V3    S    
O18   C33   A    
C25   C26   A    
C9    C10   A    
C13   C14   A    
O19   C34   A    
V3    O20   S    
O7    V1    S    
O17   V3    S    
C40   H28   S    
O9    C4    A    
C19   C20   A    
C27   C31   S    
C5    C6    A    
O15   V3    S    
O11   C32   A    
C28   C29   A    
O12   C31   A    
C5    C10   A    
C26   H14   S    
O15   C33   A    
C10   C11   S    
O4    C2    A    
O22   C38   S    
O13   C34   A    
C11   C12   S    
C21   C22   A    
C26   C27   A    
O2    C1    A    
C20   H12   S    
C29   O22   S    
C39   H26   S    
C13   H7    S    
O18   V4    S    
C14   H8    S    
C35   H16   S    
C3    C15   S    
C20   C21   A    
O3    C4    A    
O1    V2    S    
C40   H29   S    
C12   H6    S    
O6    V2    S    
C37   H21   S    
C8    C9    A    
O2    V1    S    
C22   F1    S    
C39   C40   S    
C36   H19   S    
C1    C24   S    
C28   H15   S    
O1    C2    A    
V4    O20   S    
O5    V1    S    
C36   C37   S    
O8    C3    A    
C11   H3    S    
O16   V4    S    
C21   C32   S    
C7    H1    S    
O9    V2    S    
O7    V2    S    
C23   O21   S    
O4    V1    S    
O3    V1    S    
V1    O10   S    
C17   C18   A    
O11   V4    S    
C39   H25   S    
C16   C17   A    
C14   C15   A    
C19   C24   A    
C36   H18   S    
C31   O16   A    
C12   H5    S    
C37   H20   S    
C38   C39   S    
C38   H24   S    
O19   V4    S    
C8    H2    S    
C2    C30   S    
