data_mof_unit_9108.cif
_audit_creation_date              2012-10-26T19:48:07-0400
_audit_creation_method            fapswitch 2.2
_symmetry_space_group_name_H-M    P1
_symmetry_Int_Tables_number       1
_space_group_crystal_system       triclinic
_cell_length_a                    10.731755
_cell_length_b                    9.472345
_cell_length_c                    10.619207
_cell_angle_alpha                 90.182799
_cell_angle_beta                  91.259845
_cell_angle_gamma                 89.885717
_cell_volume                      1079.22583012

loop_
_atom_site_label
_atom_site_type_symbol
_atom_type_description
_atom_site_fract_x
_atom_site_fract_y
_atom_site_fract_z
_atom_type_partial_charge
Br1   Br    Br    0.689504 0.164810 0.700340 -0.484444
Br2   Br    Br    0.691111 0.833877 0.699268 -0.432721
Br3   Br    Br    0.745836 0.668701 0.109368 -0.485723
Br4   Br    Br    0.138215 0.580886 0.763327 -0.531449
Br5   Br    Br    0.133175 0.421400 0.227967 -0.538941
C1    C     C_R   0.259957 0.500287 0.497341 0.606252
C2    C     C_3   0.927400 0.650468 0.465251 -0.234459
C3    C     C_3   0.624853 0.083672 0.540979 0.185449
C4    C     C_3   0.624970 0.915829 0.540671 0.182331
C5    C     C_3   0.407297 0.083889 0.590260 -0.097389
C6    C     C_3   0.407643 0.917075 0.590602 -0.092152
C7    C     C_3   0.468938 0.083060 0.376379 -0.152766
C8    C     C_3   0.468658 0.916323 0.376433 -0.155285
C9    C     C_R   0.500252 0.499736 0.259539 0.595093
C10   C     C_R   0.739851 0.500088 0.497671 0.573586
C11   C     C_R   0.500296 0.500296 0.740568 0.608901
C12   C     C_3   0.501087 0.499217 0.122671 0.028732
C13   C     C_3   0.397135 0.563947 0.039877 -0.115627
C14   C     C_3   0.504493 0.365779 0.040333 -0.134265
C15   C     C_3   0.400343 0.430476 0.955556 -0.097066
C16   C     C_3   0.501040 0.501045 0.877418 0.018282
C17   C     C_3   0.497795 0.634735 0.959400 -0.085165
C18   C     C_3   0.605324 0.436341 0.959790 -0.087862
C19   C     C_3   0.600864 0.569068 0.043816 0.160467
C20   C     C_3   0.074725 0.458052 0.627971 -0.004029
C21   C     C_3   0.069358 0.392604 0.397044 0.003862
C22   C     C_3   0.930699 0.455750 0.626722 -0.202556
C23   C     C_3   0.925289 0.396692 0.394437 -0.211790
C24   C     C_3   0.069989 0.650213 0.461867 -0.213464
C25   C     C_3   0.121895 0.501173 0.495725 0.054998
C26   C     C_3   0.877895 0.500617 0.495960 -0.018932
Cu1   Cu    Cu3+1 0.499860 0.642410 0.500060 0.975734
Cu2   Cu    Cu3+1 0.499860 0.357590 0.500060 0.958236
H1    H     H_    0.318163 0.372959 0.916366 0.179405
H2    H     H_    0.537473 0.119807 0.306670 0.124197
H3    H     H_    0.536809 0.878573 0.306415 0.150821
H4    H     H_    0.312246 0.121541 0.563310 0.111593
H5    H     H_    0.312644 0.879040 0.564395 0.123127
H6    H     H_    0.312214 0.616610 0.075156 0.186630
H7    H     H_    0.507005 0.255630 0.075736 0.143313
H8    H     H_    0.495469 0.744977 0.924227 0.172651
H9    H     H_    0.691125 0.385464 0.924627 0.185474
H10   H     H_    0.109585 0.350159 0.650971 0.132896
H11   H     H_    0.099643 0.284462 0.425073 0.134310
H12   H     H_    0.897488 0.727470 0.537885 0.183086
H13   H     H_    0.899184 0.347276 0.649026 0.161990
H14   H     H_    0.889510 0.288428 0.411803 0.122796
H15   H     H_    0.893631 0.526920 0.700632 0.207595
H16   H     H_    0.888582 0.429567 0.300210 0.200498
H17   H     H_    0.106415 0.731404 0.528931 0.165083
H18   H     H_    0.100425 0.682248 0.366698 0.169332
H19   H     H_    0.888705 0.686727 0.372785 0.175079
H20   H     H_    0.694316 0.117502 0.470945 0.106676
H21   H     H_    0.693970 0.881870 0.469901 0.109036
H22   H     H_    0.425112 0.123054 0.687629 0.170856
H23   H     H_    0.426295 0.879034 0.688003 0.173040
H24   H     H_    0.376257 0.122779 0.343257 0.151625
H25   H     H_    0.375721 0.877186 0.343694 0.133843
N1    N     N_3   0.500250 0.143650 0.502780 -0.247189
N2    N     N_3   0.500250 0.856350 0.502780 -0.253153
O1    O     O_R   0.317570 0.620260 0.500070 -0.506338
O2    O     O_R   0.317570 0.379740 0.500070 -0.516045
O3    O     O_R   0.499850 0.620240 0.316900 -0.504545
O4    O     O_R   0.499850 0.379760 0.316900 -0.513469
O5    O     O_R   0.682190 0.620260 0.500030 -0.481604
O6    O     O_R   0.682190 0.379740 0.500030 -0.491058
O7    O     O_R   0.499910 0.620280 0.683200 -0.463600
O8    O     O_R   0.499910 0.379720 0.683200 -0.473792

loop_
_geom_bond_atom_site_label_1
_geom_bond_atom_site_label_2
_ccdc_geom_bond_type
C22   H15   S    
C2    H19   S    
C6    H5    S    
C14   C18   S    
C13   H6    S    
C23   H14   S    
C10   C26   S    
C24   C25   S    
C2    C24   S    
C20   C22   S    
Br1   C3    S    
C23   H16   S    
C21   C23   S    
C14   C15   S    
C6    H23   S    
C18   C19   S    
C4    N2    S    
C15   H1    S    
Cu1   Cu2   S    
C1    O2    A    
Br4   C20   S    
Cu2   O8    S    
C3    H20   S    
C9    O4    A    
Cu2   N1    S    
C11   O7    A    
C16   C17   S    
C7    C8    S    
C7    H2    S    
C5    H22   S    
C10   O6    A    
C9    C12   S    
C20   H10   S    
Br3   C19   S    
C11   C16   S    
C18   H9    S    
Cu1   O7    S    
C5    H4    S    
C11   O8    A    
C7    H24   S    
C2    H12   S    
C1    O1    A    
C12   C14   S    
Cu2   O6    S    
C5    N1    S    
C13   C15   S    
C24   H17   S    
C16   C18   S    
C3    N1    S    
C24   H18   S    
C17   C19   S    
C7    N1    S    
C17   H8    S    
C2    C26   S    
C14   H7    S    
C9    O3    A    
Cu1   O5    S    
C21   H11   S    
Br5   C21   S    
C12   C19   S    
Cu2   O4    S    
C15   C16   S    
C22   H13   S    
C8    H3    S    
C12   C13   S    
C5    C6    S    
C20   C25   S    
C8    N2    S    
Cu1   N2    S    
Cu2   O2    S    
C8    H25   S    
C1    C25   S    
C13   C17   S    
Br2   C4    S    
C22   C26   S    
C4    H21   S    
C23   C26   S    
Cu1   O1    S    
C6    N2    S    
Cu1   O3    S    
C3    C4    S    
C21   C25   S    
C10   O5    A    
