data_mof_unit_58745.cif
_audit_creation_date              2012-10-26T20:38:02-0400
_audit_creation_method            fapswitch 2.2
_symmetry_space_group_name_H-M    P1
_symmetry_Int_Tables_number       1
_space_group_crystal_system       triclinic
_cell_length_a                    9.897623
_cell_length_b                    10.90687
_cell_length_c                    13.042641
_cell_angle_alpha                 89.132481
_cell_angle_beta                  75.860227
_cell_angle_gamma                 110.415222
_cell_volume                      1271.74031683

loop_
_atom_site_label
_atom_site_type_symbol
_atom_type_description
_atom_site_fract_x
_atom_site_fract_y
_atom_site_fract_z
_atom_type_partial_charge
C1    C     C_R   0.441173 0.253480 0.504063 0.558653
C2    C     C_R   0.686967 0.621023 0.008937 -0.006738
C3    C     C_R   0.327468 0.402001 0.883297 -0.163439
C4    C     C_R   0.670396 0.601503 0.117421 -0.160934
C5    C     C_R   0.580117 0.559622 0.855402 0.217519
C6    C     C_R   0.421006 0.438035 0.144518 0.219943
C7    C     C_R   0.567843 0.546159 0.965535 0.030439
C8    C     C_R   0.431790 0.453999 0.034762 0.033160
C9    C     C_2   0.413422 0.112256 0.497875 0.258045
C10   C     C_2   0.590588 0.889476 0.476013 0.236830
C11   C     C_2   0.520259 0.074913 0.435944 0.295015
C12   C     C_R   0.559834 0.746946 0.488857 0.563633
C13   C     C_2   0.498243 0.933564 0.438300 0.270558
C14   C     C_3   0.162357 0.283601 0.056526 -0.339627
C15   C     C_3   0.832290 0.724709 0.944961 -0.334071
C16   C     C_2   0.082721 0.499827 0.481124 0.525035
C17   C     C_2   0.918261 0.475723 0.496514 0.452972
C18   C     C_R   0.474081 0.496118 0.702060 0.561714
C19   C     C_R   0.525830 0.503574 0.298000 0.580807
C20   C     C_R   0.539874 0.512460 0.184330 0.027676
C21   C     C_R   0.459948 0.487662 0.815848 0.021604
C22   C     C_R   0.310951 0.382136 0.991768 -0.003332
Cu1   Cu    Cu3+1 0.647370 0.522180 0.481340 1.044735
Cu2   Cu    Cu3+1 0.352630 0.477820 0.518660 1.093996
H1    H     H_    0.759388 0.659044 0.151239 0.134397
H2    H     H_    0.809465 0.802153 0.903742 0.196843
H3    H     H_    0.332464 0.899320 0.374668 0.354595
H4    H     H_    0.710521 0.120480 0.329513 0.333746
H5    H     H_    0.761629 0.929098 0.534842 0.354334
H6    H     H_    0.219181 0.061722 0.600637 0.336886
H7    H     H_    0.741585 0.377600 0.605611 0.346098
H8    H     H_    0.137445 0.570702 0.333997 0.313208
H9    H     H_    0.914206 0.718401 0.378571 0.366053
H10   H     H_    0.091140 0.338562 0.672031 0.353130
H11   H     H_    0.236974 0.346847 0.849893 0.131656
H12   H     H_    0.232007 0.393560 0.244741 0.336411
H13   H     H_    0.770719 0.591672 0.761073 0.337091
H14   H     H_    0.085309 0.238804 0.006690 0.111540
H15   H     H_    0.179373 0.201005 0.095478 0.195749
H16   H     H_    0.104126 0.332843 0.115873 0.154725
H17   H     H_    0.905312 0.775662 0.995740 0.109434
H18   H     H_    0.897527 0.678753 0.887528 0.166070
N1    N     N_2   0.131210 0.444490 0.546730 -0.049531
N2    N     N_2   0.868790 0.555510 0.453270 -0.105573
O1    O     O_R   0.578710 0.332530 0.490040 -0.447839
O2    O     O_3   0.707577 0.644691 0.785149 -0.687282
O3    O     O_3   0.382405 0.847600 0.403565 -0.635099
O4    O     O_3   0.650345 0.167505 0.371845 -0.661001
O5    O     O_3   0.710943 0.978589 0.504267 -0.685798
O6    O     O_3   0.280747 0.017289 0.556367 -0.700891
O7    O     O_3   0.819321 0.357944 0.552958 -0.616278
O8    O     O_3   0.186671 0.577837 0.392447 -0.624770
O9    O     O_3   0.969182 0.675068 0.410405 -0.619913
O10   O     O_3   0.032567 0.372846 0.635851 -0.604584
O11   O     O_R   0.421290 0.667470 0.509960 -0.417391
O12   O     O_R   0.329810 0.295070 0.521560 -0.523981
O13   O     O_R   0.670190 0.704930 0.478440 -0.530270
O14   O     O_R   0.604230 0.515670 0.637800 -0.511346
O15   O     O_R   0.395770 0.484330 0.362200 -0.446092
O16   O     O_R   0.355330 0.478200 0.669330 -0.535748
O17   O     O_R   0.644670 0.521800 0.330670 -0.518011
O18   O     O_3   0.298218 0.345641 0.213491 -0.694760

loop_
_geom_bond_atom_site_label_1
_geom_bond_atom_site_label_2
_ccdc_geom_bond_type
Cu1   O14   S    
C8    C22   A    
Cu1   Cu2   S    
Cu1   O1    S    
C17   O7    S    
Cu2   O12   S    
C18   C21   S    
C9    C11   D    
C5    O2    S    
N1    O10   S    
C2    C4    A    
C19   C20   S    
H13   O2    S    
C3    H11   S    
Cu2   O16   S    
C6    O18   S    
C4    H1    S    
H6    O6    S    
C17   N2    D    
C5    C21   A    
C7    C8    A    
H5    O5    S    
Cu2   O11   S    
C2    C15   S    
C11   C13   S    
C16   N1    D    
C1    O1    A    
C11   O4    S    
C10   C12   S    
C6    C20   A    
C19   O17   A    
Cu2   O15   S    
H12   O18   S    
C12   O13   A    
C18   O16   A    
C1    O12   A    
H10   O10   S    
H9    O9    S    
C14   C22   S    
C3    C21   A    
C12   O11   A    
C14   H14   S    
Cu1   N2    S    
C14   H16   S    
C4    C20   A    
C16   O8    S    
Cu1   O17   S    
C1    C9    S    
C15   H17   S    
Cu1   O13   S    
H3    O3    S    
C5    C7    A    
Cu2   N1    S    
H4    O4    S    
C3    C22   A    
C6    C8    A    
C19   O15   A    
C14   H15   S    
C10   O5    S    
C13   O3    S    
N2    O9    S    
C18   O14   A    
H8    O8    S    
C9    O6    S    
C2    C7    A    
C15   H18   S    
H7    O7    S    
C16   C17   S    
C15   H2    S    
C10   C13   D    
