data_mof_unit_27868.cif
_audit_creation_date              2012-12-11T16:04:54-0500
_audit_creation_method            fapswitch 2.2
_symmetry_space_group_name_H-M    P1
_symmetry_Int_Tables_number       1
_space_group_crystal_system       triclinic
_cell_length_a                    10.579454
_cell_length_b                    10.691613
_cell_length_c                    16.943321
_cell_angle_alpha                 98.5523
_cell_angle_beta                  98.928316
_cell_angle_gamma                 61.541717
_cell_volume                      1658.31067192

loop_
_atom_site_label
_atom_site_type_symbol
_atom_type_description
_atom_site_fract_x
_atom_site_fract_y
_atom_site_fract_z
_atom_type_partial_charge
C1    C     C_R   0.377020 0.720625 0.386468 0.554590
C2    C     C_3   0.710149 0.323788 0.247246 -0.108119
C3    C     C_3   0.803434 0.355279 0.318394 0.001627
C4    C     C_3   0.941834 0.237228 0.287342 -0.141908
C5    C     C_3   0.948209 0.349799 0.242484 -0.147638
C6    C     C_3   0.808201 0.468099 0.274506 -0.069620
C7    C     C_3   0.717237 0.435118 0.201828 -0.140469
C8    C     C_3   0.855932 0.318985 0.170525 0.050915
C9    C     C_3   0.458128 0.794134 0.215309 0.209083
C10   C     C_3   0.403565 0.692406 0.236155 -0.181370
C11   C     C_3   0.356533 0.785880 0.314191 -0.019716
C12   C     C_R   0.367336 0.344460 0.359683 0.563221
C13   C     C_3   0.413125 0.884688 0.294776 0.262235
C14   C     C_3   0.262555 0.979822 0.254359 -0.198925
C15   C     C_3   0.205619 0.879978 0.274947 -0.102331
C16   C     C_3   0.252566 0.786491 0.196818 0.256356
C17   C     C_3   0.307169 0.886480 0.175767 0.025994
C18   C     C_3   0.482465 0.265433 0.789954 -0.101651
C19   C     C_3   0.443848 0.409546 0.758629 -0.234089
C20   C     C_3   0.376324 0.364474 0.679712 0.034756
C21   C     C_3   0.413686 0.222711 0.711199 0.240202
C22   C     C_3   0.265482 0.292280 0.743903 -0.068271
C23   C     C_R   0.769327 0.381066 0.399633 0.547640
C24   C     C_3   0.228879 0.435214 0.713282 0.229843
C25   C     C_3   0.294653 0.480387 0.793148 -0.120211
C26   C     C_3   0.333922 0.336251 0.822488 -0.017241
C27   C     C_1   0.817918 0.341954 0.709580 -0.010178
C28   C     C_1   0.844249 0.314897 0.778033 -0.026957
C29   C     C_1   0.357466 0.766701 0.714514 0.001417
C30   C     C_1   0.326061 0.812865 0.781940 -0.013793
C31   C     C_R   0.896103 0.307997 0.091743 0.543853
C32   C     C_R   0.292724 0.263176 0.123011 0.525393
C33   C     C_R   0.263646 0.947539 0.099832 0.543012
C34   C     C_R   0.379472 0.716659 0.632016 0.529320
C35   C     C_R   0.884882 0.299432 0.860889 0.539073
C36   C     C_R   0.311658 0.297154 0.895156 0.560530
C37   C     C_R   0.282366 0.880616 0.859582 0.551409
C38   C     C_R   0.407860 0.376111 0.601356 0.542475
C39   C     C_R   0.774191 0.379758 0.629606 0.548168
C40   C     C_1   0.328025 0.319804 0.277521 -0.018878
C41   C     C_1   0.309057 0.295258 0.206843 -0.020158
C42   C     C_3   0.850113 0.206975 0.214449 0.249173
Cr1   Cr    Cr6+3 0.608340 0.611040 0.520430 1.157656
Cr2   Cr    Cr6+3 0.287650 0.601120 0.489350 1.104104
Cr3   Cr    Cr6+3 0.604040 0.287870 0.490280 1.120967
Cr4   Cr    Cr6+3 0.054020 0.052700 0.970850 1.109244
Cr5   Cr    Cr6+3 0.059230 0.375120 0.993390 1.122967
Cr6   Cr    Cr6+3 0.374950 0.061200 0.992340 1.122783
H1    H     H_    0.215557 0.097352 0.258484 0.105111
H2    H     H_    0.517311 0.457976 0.763186 0.103711
H3    H     H_    0.587104 0.195974 0.822700 0.167068
H4    H     H_    0.191261 0.244417 0.738809 0.140945
H5    H     H_    0.245307 0.585448 0.828531 0.165201
H6    H     H_    0.025265 0.163454 0.329702 0.132622
H7    H     H_    0.044202 0.363198 0.238605 0.129710
H8    H     H_    0.791937 0.575096 0.301824 0.215371
O1    O     O_R   0.751220 0.499230 0.435170 -0.497778
O2    O     O_R   0.297880 0.469080 0.560050 -0.461489
O3    O     O_R   0.489720 0.254590 0.564810 -0.422998
O4    O     O_R   0.725220 0.304230 0.585080 -0.515721
O5    O     O_3   0.500010 0.500010 0.500020 -0.371528
O6    O     O_R   0.171830 0.913880 0.057510 -0.429185
O7    O     O_R   0.940690 0.186050 0.054730 -0.486796
O8    O     O_R   0.920470 0.405720 0.075010 -0.478332
O9    O     O_R   0.196690 0.370460 0.084120 -0.448748
O10   O     O_R   0.412990 0.180750 0.091610 -0.459305
O11   O     O_R   0.366620 0.943130 0.065760 -0.461136
O12   O     O_R   0.477220 0.727600 0.436870 -0.433140
O13   O     O_R   0.160510 0.906330 0.879210 -0.491917
O14   O     O_R   0.930190 0.179050 0.889450 -0.493536
O15   O     O_R   0.909140 0.398170 0.896710 -0.487753
O16   O     O_R   0.186190 0.363460 0.918830 -0.480052
O17   O     O_R   0.401670 0.173200 0.913310 -0.499490
O18   O     O_R   0.356120 0.936130 0.900470 -0.479308
O19   O     O_3   0.162740 0.163010 0.985530 -0.342153
O20   O     O_R   0.258650 0.745120 0.411470 -0.494766
O21   O     O_R   0.297070 0.467240 0.395960 -0.506844
O22   O     O_R   0.488830 0.252610 0.387790 -0.437909
O23   O     O_R   0.724400 0.302390 0.420980 -0.493347
O24   O     O_R   0.752100 0.501210 0.612190 -0.453098
O25   O     O_R   0.478040 0.729440 0.600970 -0.428064
O26   O     O_R   0.259530 0.747110 0.588490 -0.466704
H9    H     H_    0.612552 0.312669 0.251964 0.149343
H10   H     H_    0.102320 0.912855 0.299983 0.202461
Cl1   Cl    Cl    0.151640 0.705928 0.136876 -0.457421
Cl2   Cl    Cl    0.489986 0.047047 0.661573 -0.486279
Cl3   Cl    Cl    0.057542 0.547355 0.664103 -0.508912
Cl4   Cl    Cl    0.866219 0.038309 0.171735 -0.469100
H11   H     H_    0.631852 0.502920 0.157957 0.176430
H12   H     H_    0.448685 0.575139 0.232846 0.109448
Cl5   Cl    Cl    0.619060 0.761591 0.175565 -0.500537
Cl6   Cl    Cl    0.521391 0.947019 0.362633 -0.460558

loop_
_geom_bond_atom_site_label_1
_geom_bond_atom_site_label_2
_ccdc_geom_bond_type
C37   O18   A    
Cr3   O4    S    
C37   O13   A    
C18   C21   S    
C3    C23   S    
C2    C7    S    
C1    C11   S    
C8    C42   S    
C3    C6    S    
C9    Cl5   S    
C7    C8    S    
Cr1   O5    S    
Cr4   O6    S    
C22   H4    S    
Cr2   O21   S    
C25   H5    S    
C33   O6    A    
Cr2   O26   S    
C5    C6    S    
C14   H1    S    
C15   C16   S    
C7    H11   S    
C1    O12   A    
C18   C19   S    
Cr2   O20   S    
C9    C13   S    
Cr4   O13   S    
C38   O2    A    
C18   C26   S    
C11   C15   S    
C19   C20   S    
C35   O14   A    
Cr2   O2    S    
Cr1   O12   S    
C12   O22   A    
C32   C41   S    
Cr3   O22   S    
C34   O25   A    
C9    C10   S    
C35   O15   A    
C21   C22   S    
C1    O20   A    
Cr6   O19   S    
C2    H9    S    
C17   C33   S    
C31   O8    A    
Cr4   O19   S    
C18   H3    S    
Cr6   O18   S    
C24   C25   S    
C28   C35   S    
C36   O17   A    
C27   C39   S    
Cr5   O8    S    
C16   C17   S    
Cr1   O24   S    
C29   C34   S    
C30   C37   S    
C12   C40   S    
C29   C30   T    
C31   O7    A    
C20   C38   S    
C12   O21   A    
Cr3   O23   S    
Cr5   O15   S    
C6    C7    S    
C9    C17   S    
C40   C41   T    
C13   Cl6   S    
C16   Cl1   S    
Cr1   O25   S    
C22   C24   S    
C42   Cl4   S    
C3    C4    S    
C33   O11   A    
C32   O10   A    
C26   C36   S    
C23   O1    A    
C21   Cl2   S    
Cr3   O3    S    
C4    H6    S    
C8    C31   S    
Cr6   O17   S    
C5    H7    S    
C6    H8    S    
C4    C5    S    
C5    C8    S    
C15   H10   S    
Cr2   O5    S    
Cr4   O7    S    
C23   O23   A    
C39   O24   A    
C2    C3    S    
C25   C26   S    
Cr5   O19   S    
C10   C16   S    
C11   C13   S    
C19   H2    S    
C4    C42   S    
C2    C42   S    
C39   O4    A    
Cr3   O5    S    
Cr5   O9    S    
Cr6   O11   S    
C19   C25   S    
C24   Cl3   S    
Cr5   O16   S    
Cr4   O14   S    
C10   C11   S    
Cr1   O1    S    
C38   O3    A    
C20   C21   S    
C10   H12   S    
C22   C26   S    
C27   C28   T    
C14   C15   S    
C34   O26   A    
Cr6   O10   S    
C13   C14   S    
C20   C24   S    
C36   O16   A    
C32   O9    A    
C14   C17   S    
