data_mof_unit_19497.cif
_audit_creation_date              2012-12-10T17:34:23-0500
_audit_creation_method            fapswitch 2.2
_symmetry_space_group_name_H-M    P1
_symmetry_Int_Tables_number       1
_space_group_crystal_system       triclinic
_cell_length_a                    12.336939
_cell_length_b                    13.087615
_cell_length_c                    14.336047
_cell_angle_alpha                 78.718503
_cell_angle_beta                  100.866195
_cell_angle_gamma                 116.269299
_cell_volume                      2021.83228755

loop_
_atom_site_label
_atom_site_type_symbol
_atom_type_description
_atom_site_fract_x
_atom_site_fract_y
_atom_site_fract_z
_atom_type_partial_charge
C1    C     C_R   0.854655 0.285795 0.508920 0.793956
C2    C     C_1   0.999677 0.499808 0.228850 -0.200555
C3    C     C_R   0.275422 0.022100 0.374729 -0.186980
C4    C     C_R   0.227905 0.835014 0.467046 -0.053979
C5    C     C_R   0.812542 0.081233 0.573561 0.475939
C6    C     C_R   0.733551 0.964499 0.582310 -0.232004
C7    C     C_R   0.611665 0.928401 0.546968 -0.266629
C8    C     C_R   0.565850 0.007589 0.496050 0.081002
C9    C     C_R   0.649694 0.122331 0.470673 0.018621
C10   C     C_R   0.439540 0.975437 0.467191 0.093234
C11   C     C_R   0.399983 0.053314 0.404025 0.160105
C12   C     C_R   0.000071 0.500007 0.668741 0.791812
C13   C     C_R   0.485372 0.160229 0.369051 -0.238302
C14   C     C_R   0.608347 0.193671 0.400654 -0.167382
C15   C     C_R   0.351033 0.868466 0.500703 -0.252584
C16   C     C_R   0.189708 0.912958 0.405467 -0.189821
C17   C     C_R   0.772374 0.161445 0.515042 -0.207150
C18   C     C_R   0.342653 0.325183 0.646660 -0.302158
C19   C     C_R   0.761854 0.647184 0.377076 0.083086
C20   C     C_R   0.666816 0.680391 0.349050 -0.255930
C21   C     C_R   0.562375 0.624818 0.395412 -0.191073
C22   C     C_R   0.552229 0.535179 0.471068 -0.008159
C23   C     C_R   0.145012 0.713662 0.486738 0.795532
C24   C     C_R   0.652727 0.504998 0.498007 0.288760
C25   C     C_R   0.446880 0.474848 0.521087 -0.037412
C26   C     C_R   0.444334 0.385932 0.596539 0.173382
C27   C     C_R   0.543606 0.358737 0.622253 -0.275400
C28   C     C_R   0.645970 0.417649 0.574612 -0.178075
C29   C     C_R   0.343145 0.498683 0.499955 0.018358
C30   C     C_R   0.244039 0.353052 0.622508 0.104434
C31   C     C_R   0.999964 0.500088 0.331232 0.801388
C32   C     C_1   0.999903 0.499648 0.771143 -0.199872
C33   C     C_1   0.999710 0.499355 0.856609 -0.012059
C34   C     C_1   0.999541 0.499180 0.957307 -0.005187
C35   C     C_1   0.999491 0.499248 0.042748 -0.000329
C36   C     C_1   0.999543 0.499522 0.143417 -0.012640
Cu1   Cu    Cu3+1 0.098280 0.475420 0.520190 0.944243
Cu2   Cu    Cu3+1 0.901720 0.524580 0.479810 0.914539
H1    H     H_    0.094618 0.888148 0.378329 0.148059
H2    H     H_    0.542639 0.291575 0.680454 0.151890
H3    H     H_    0.339736 0.257089 0.704404 0.137180
H4    H     H_    0.336916 0.564660 0.444060 0.123778
H5    H     H_    0.842616 0.690492 0.340509 0.124952
H6    H     H_    0.491512 0.653953 0.370593 0.137610
H7    H     H_    0.674011 0.749164 0.291136 0.146208
H8    H     H_    0.718148 0.392117 0.601076 0.200897
H9    H     H_    0.457024 0.218607 0.317183 0.145143
H10   H     H_    0.244684 0.081038 0.326034 0.137072
H11   H     H_    0.375546 0.808671 0.553069 0.149933
H12   H     H_    0.556152 0.837194 0.558249 0.155452
H13   H     H_    0.765962 0.901174 0.619690 0.150711
H14   H     H_    0.670074 0.274930 0.366997 0.175313
H15   H     H_    0.165432 0.307162 0.661245 0.143386
N1    N     N_R   0.246290 0.438200 0.550780 -0.177678
N2    N     N_R   0.754310 0.561180 0.449760 -0.200329
O1    O     O_R   0.972510 0.318130 0.525390 -0.520637
O2    O     O_R   0.806530 0.359650 0.491290 -0.607940
O3    O     O_R   0.083010 0.479240 0.641000 -0.569161
O4    O     O_R   0.917030 0.520750 0.606900 -0.571749
O5    O     O_R   0.193470 0.640350 0.508710 -0.582889
O6    O     O_R   0.027490 0.681870 0.474610 -0.580483
O7    O     O_R   0.082970 0.479250 0.393100 -0.558138
O8    O     O_R   0.916990 0.520760 0.359000 -0.572264
O9    O     O_3   0.931733 0.116755 0.616880 -0.602178
C37   C     C_3   0.935474 0.095089 0.718083 0.036089
H16   H     H_    0.028058 0.101956 0.747709 0.160708
H17   H     H_    0.871304 0.006580 0.744049 0.133423
C38   C     C_3   0.913514 0.184208 0.757771 -0.373492
H18   H     H_    0.981227 0.271358 0.734026 0.228556
H19   H     H_    0.820988 0.178819 0.730009 0.199826
C39   C     C_3   0.925366 0.165475 0.866951 -0.904737
H20   H     H_    0.857549 0.078894 0.892702 0.255378
H21   H     H_    0.908692 0.231049 0.893240 0.262211
H22   H     H_    0.018379 0.173741 0.896696 0.253192

loop_
_geom_bond_atom_site_label_1
_geom_bond_atom_site_label_2
_ccdc_geom_bond_type
C29   H4    S    
C19   C20   A    
C18   C26   A    
Cu1   O7    S    
C7    C8    A    
C24   N2    A    
C30   N1    A    
C28   H8    S    
C26   C27   A    
C1    O1    A    
C10   C15   A    
C5    C6    A    
C5    C17   A    
C29   N1    A    
C19   N2    A    
C21   H6    S    
C3    H10   S    
C34   C35   T    
C12   O4    A    
C14   H14   S    
Cu2   N2    S    
C35   C36   S    
C8    C9    A    
C37   H17   S    
C22   C25   A    
C18   C30   A    
C6    H13   S    
C24   C28   A    
Cu1   O3    S    
Cu2   O6    S    
C12   O3    A    
C21   C22   A    
C12   C32   S    
Cu1   O1    S    
C31   O7    A    
C19   H5    S    
C25   C29   A    
C23   O5    A    
C30   H15   S    
C31   O8    A    
C18   H3    S    
C39   H21   S    
C4    C23   S    
C38   H18   S    
C25   C26   A    
C5    O9    S    
C2    C31   S    
C4    C16   A    
C9    C14   A    
Cu1   Cu2   S    
C1    O2    A    
Cu2   O2    S    
C27   H2    S    
C37   C38   S    
C33   C34   S    
Cu1   N1    S    
C9    C17   A    
C22   C24   A    
C13   H9    S    
Cu2   O8    S    
C2    C36   T    
C8    C10   A    
C20   H7    S    
C7    H12   S    
C39   H22   S    
C6    C7    A    
C1    C17   S    
C32   C33   T    
C4    C15   A    
C39   H20   S    
O9    C37   S    
C11   C13   A    
C38   C39   S    
C15   H11   S    
Cu1   O5    S    
C3    C11   A    
C10   C11   A    
C16   H1    S    
Cu2   O4    S    
C23   O6    A    
C20   C21   A    
C38   H19   S    
C37   H16   S    
C27   C28   A    
C13   C14   A    
C3    C16   A    
