data_mof_unit_39967.cif
_audit_creation_date              2012-12-11T16:16:15-0500
_audit_creation_method            fapswitch 2.2
_symmetry_space_group_name_H-M    P1
_symmetry_Int_Tables_number       1
_space_group_crystal_system       triclinic
_cell_length_a                    30.059695
_cell_length_b                    30.061422
_cell_length_c                    32.364984
_cell_angle_alpha                 90.072611
_cell_angle_beta                  90.028514
_cell_angle_gamma                 89.784212
_cell_volume                      29245.9683053

loop_
_atom_site_label
_atom_site_type_symbol
_atom_type_description
_atom_site_fract_x
_atom_site_fract_y
_atom_site_fract_z
_atom_type_partial_charge
C1    C     C_R   0.953349 0.099210 0.075343 -0.145405
C2    C     C_R   0.059638 0.112105 0.056341 -0.135444
C3    C     C_R   0.798438 0.162641 0.885266 -0.180466
C4    C     C_R   0.784024 0.838999 0.061330 -0.136078
C5    C     C_R   0.107573 0.149392 0.807628 -0.160508
C6    C     C_R   0.890669 0.149814 0.191966 -0.172617
C7    C     C_R   0.201402 0.837841 0.884393 -0.177170
C8    C     C_R   0.713379 0.664411 0.562001 -0.131908
C9    C     C_R   0.392481 0.350410 0.307504 -0.159702
C10   C     C_R   0.609225 0.350140 0.691759 -0.172283
C11   C     C_R   0.298788 0.661979 0.383978 -0.177062
C12   C     C_R   0.298280 0.336418 0.611660 -0.177506
C13   C     C_R   0.111853 0.939991 0.942786 -0.156114
C14   C     C_R   0.583811 0.618608 0.292980 -0.119619
C15   C     C_R   0.391547 0.649769 0.692126 -0.175203
C16   C     C_R   0.701564 0.336576 0.386019 -0.179303
C17   C     C_R   0.197263 0.205606 0.095182 0.104195
C18   C     C_R   0.879361 0.870437 0.783463 0.091521
C19   C     C_R   0.120851 0.883283 0.220429 0.044879
C20   C     C_R   0.801831 0.205099 0.903030 0.104095
C21   C     C_R   0.790908 0.804253 0.089262 0.068037
C22   C     C_R   0.126123 0.117143 0.781370 0.038151
C23   C     C_R   0.877957 0.116825 0.220169 0.044249
C24   C     C_R   0.901530 0.046098 0.075755 -0.124680
C25   C     C_R   0.198487 0.795454 0.902251 0.103141
C26   C     C_R   0.706622 0.697538 0.591732 0.059498
C27   C     C_R   0.374893 0.382814 0.280895 0.036438
C28   C     C_R   0.621931 0.383090 0.720093 0.043595
C29   C     C_R   0.301736 0.704434 0.401795 0.103148
C30   C     C_R   0.303903 0.293520 0.595295 0.098432
C31   C     C_R   0.626241 0.637171 0.289358 0.050562
C32   C     C_R   0.379325 0.616800 0.720532 0.044529
C33   C     C_R   0.697539 0.294056 0.403462 0.102104
C34   C     C_R   0.918882 0.081252 0.098371 0.083223
C35   C     C_R   0.046624 0.099082 0.924623 -0.142328
C36   C     C_R   0.103427 0.896139 0.932390 0.089228
C37   C     C_R   0.103520 0.104039 0.066660 0.091214
C38   C     C_R   0.917859 0.917599 0.902426 0.084529
C39   C     C_R   0.080863 0.918944 0.098466 0.081738
C40   C     C_R   0.896495 0.103875 0.932599 0.089324
C41   C     C_R   0.895239 0.896022 0.064686 0.093699
C42   C     C_R   0.081426 0.081064 0.901743 0.084711
C43   C     C_R   0.419122 0.581164 0.598460 0.081735
C44   C     C_R   0.603454 0.396035 0.432602 0.089099
C45   C     C_R   0.604164 0.603683 0.566278 0.092969
C46   C     C_R   0.939515 0.887721 0.055588 -0.146377
C47   C     C_R   0.418580 0.418798 0.401728 0.083751
C48   C     C_R   0.581239 0.418758 0.598295 0.082951
C49   C     C_R   0.396667 0.603772 0.432210 0.089329
C50   C     C_R   0.396542 0.395886 0.566483 0.092303
C51   C     C_R   0.584031 0.583989 0.404145 0.079558
C52   C     C_R   0.845080 0.867400 0.715786 0.548358
C53   C     C_R   0.202292 0.271383 0.137328 0.532953
C54   C     C_R   0.794852 0.272756 0.863597 0.535903
C55   C     C_R   0.124015 0.844215 0.285718 0.492754
C56   C     C_R   0.130501 0.153652 0.714828 0.483559
C57   C     C_R   0.888112 0.059981 0.942832 -0.150091
C58   C     C_R   0.730291 0.805068 0.137132 0.477345
C59   C     C_R   0.205805 0.727746 0.862823 0.533251
C60   C     C_R   0.874752 0.155393 0.285818 0.492580
C61   C     C_R   0.371131 0.345426 0.214665 0.483717
C62   C     C_R   0.772589 0.700375 0.633311 0.477175
C63   C     C_R   0.294453 0.772024 0.362337 0.533427
C64   C     C_R   0.624867 0.344227 0.785508 0.492197
C65   C     C_R   0.651049 0.640925 0.218390 0.470742
C66   C     C_R   0.299365 0.228914 0.638801 0.528613
C67   C     C_R   0.704509 0.226421 0.363802 0.539219
C68   C     C_R   0.098344 0.954012 0.075872 -0.122785
C69   C     C_R   0.376220 0.655877 0.785909 0.492801
C70   C     C_R   0.869562 0.800485 0.748478 0.518632
C71   C     C_R   0.268270 0.241538 0.106761 0.521076
C72   C     C_R   0.729541 0.238900 0.891112 0.518510
C73   C     C_R   0.189415 0.878296 0.258671 0.558271
C74   C     C_R   0.196724 0.127003 0.747396 0.559467
C75   C     C_R   0.746722 0.738128 0.100325 0.572831
C76   C     C_R   0.270938 0.761934 0.890488 0.520170
C77   C     C_R   0.809267 0.121848 0.258230 0.558621
C78   C     C_R   0.304833 0.374154 0.245549 0.558605
C79   C     C_R   0.453508 0.599144 0.575373 -0.143993
C80   C     C_R   0.745232 0.767173 0.602470 0.572427
C81   C     C_R   0.229307 0.737992 0.390005 0.520166
C82   C     C_R   0.690440 0.377994 0.758479 0.558374
C83   C     C_R   0.637082 0.707668 0.256342 0.549420
C84   C     C_R   0.233443 0.256462 0.606357 0.524028
C85   C     C_R   0.769752 0.259959 0.391926 0.517638
C86   C     C_R   0.310829 0.621662 0.758846 0.558275
C87   C     C_R   0.848395 0.774307 0.718248 -0.206143
C88   C     C_R   0.294996 0.271416 0.129464 -0.218556
C89   C     C_R   0.702037 0.268930 0.869202 -0.217342
C90   C     C_R   0.559712 0.387983 0.443290 -0.135135
C91   C     C_R   0.216274 0.856437 0.288035 -0.219897
C92   C     C_R   0.223449 0.147901 0.717519 -0.220699
C93   C     C_R   0.718046 0.713672 0.126210 -0.238471
C94   C     C_R   0.298582 0.731757 0.868862 -0.218078
C95   C     C_R   0.782480 0.143230 0.287987 -0.220228
C96   C     C_R   0.278288 0.353168 0.215509 -0.220137
C97   C     C_R   0.774148 0.793100 0.626939 -0.240813
C98   C     C_R   0.201679 0.768195 0.368437 -0.217956
C99   C     C_R   0.717116 0.356432 0.788180 -0.220071
C100  C     C_R   0.657364 0.733545 0.225552 -0.223981
C101  C     C_R   0.612176 0.559754 0.556084 -0.150290
C102  C     C_R   0.206852 0.226795 0.629345 -0.219022
C103  C     C_R   0.797308 0.230047 0.369894 -0.217192
C104  C     C_R   0.283994 0.643452 0.788299 -0.219797
C105  C     C_R   0.824843 0.796186 0.686260 -0.055654
C106  C     C_R   0.273922 0.300167 0.158093 -0.061422
C107  C     C_R   0.722485 0.300119 0.842676 -0.061134
C108  C     C_R   0.195757 0.826556 0.315787 -0.060127
C109  C     C_R   0.202319 0.173532 0.686529 -0.060130
C110  C     C_R   0.697968 0.735887 0.160003 -0.067317
C111  C     C_R   0.278299 0.700293 0.842415 -0.060918
C112  C     C_R   0.059747 0.887986 0.943228 -0.145272
C113  C     C_R   0.401135 0.453849 0.424539 -0.123583
C114  C     C_R   0.803076 0.172610 0.316233 -0.059668
C115  C     C_R   0.299493 0.326273 0.185459 -0.059989
C116  C     C_R   0.800359 0.771299 0.657117 -0.067396
C117  C     C_R   0.221971 0.799597 0.342025 -0.060864
C118  C     C_R   0.696432 0.326811 0.816066 -0.059893
C119  C     C_R   0.674477 0.711657 0.190191 -0.063876
C120  C     C_R   0.227911 0.199347 0.659020 -0.062359
C121  C     C_R   0.776937 0.199106 0.342981 -0.061001
C122  C     C_R   0.304510 0.673381 0.816096 -0.060142
C123  C     C_R   0.823946 0.843004 0.684549 -0.073990
C124  C     C_R   0.546718 0.400801 0.575278 -0.145011
C125  C     C_R   0.227225 0.301418 0.160692 -0.071021
C126  C     C_R   0.769137 0.303279 0.841328 -0.071721
C127  C     C_R   0.149190 0.821765 0.315715 -0.059983
C128  C     C_R   0.155570 0.175281 0.684398 -0.056903
C129  C     C_R   0.703034 0.782114 0.164666 -0.053263
C130  C     C_R   0.231659 0.697064 0.840844 -0.071162
C131  C     C_R   0.849645 0.177390 0.316183 -0.060372
C132  C     C_R   0.346230 0.323549 0.184201 -0.057420
C133  C     C_R   0.800702 0.724580 0.659261 -0.052570
C134  C     C_R   0.268614 0.802727 0.340415 -0.071330
C135  C     C_R   0.440356 0.611939 0.443081 -0.142019
C136  C     C_R   0.649869 0.322002 0.815773 -0.060205
C137  C     C_R   0.670154 0.665201 0.186031 -0.066581
C138  C     C_R   0.274564 0.199131 0.662475 -0.065337
C139  C     C_R   0.730285 0.196013 0.341394 -0.073240
C140  C     C_R   0.351066 0.678274 0.815984 -0.060154
C141  C     C_R   0.847928 0.727239 0.720341 0.606404
C142  C     C_R   0.341908 0.272410 0.125650 0.605000
C143  C     C_R   0.655018 0.267830 0.871777 0.605004
C144  C     C_R   0.263126 0.861102 0.288565 0.586008
C145  C     C_R   0.270493 0.146226 0.719187 0.583464
C146  C     C_R   0.388004 0.439891 0.556559 -0.157633
C147  C     C_R   0.710722 0.667552 0.120876 0.580503
C148  C     C_R   0.345583 0.732923 0.871679 0.605530
C149  C     C_R   0.735629 0.138547 0.288521 0.586050
C150  C     C_R   0.231264 0.355933 0.216207 0.584628
C151  C     C_R   0.775966 0.840006 0.623854 0.587224
C152  C     C_R   0.154681 0.767126 0.371294 0.605533
C153  C     C_R   0.763958 0.361160 0.788969 0.585825
C154  C     C_R   0.663506 0.779926 0.230229 0.610749
C155  C     C_R   0.160046 0.224802 0.624786 0.604966
C156  C     C_R   0.844318 0.231071 0.372697 0.605244
C157  C     C_R   0.601019 0.548234 0.426157 -0.139833
C158  C     C_R   0.237155 0.638675 0.788877 0.585824
C159  C     C_R   0.206360 0.330817 0.188190 -0.299701
C160  C     C_R   0.800303 0.864427 0.652892 -0.303297
C161  C     C_R   0.129042 0.792850 0.343984 -0.299969
C162  C     C_R   0.789294 0.335204 0.816099 -0.300586
C163  C     C_R   0.684057 0.803966 0.198615 -0.302566
C164  C     C_R   0.134902 0.200172 0.653156 -0.299072
C165  C     C_R   0.869874 0.205814 0.344913 -0.299902
C166  C     C_R   0.211659 0.664872 0.815710 -0.300912
C167  C     C_R   0.826203 0.703008 0.689420 -0.308354
C168  C     C_R   0.453349 0.400814 0.424636 -0.141678
C169  C     C_R   0.366995 0.297403 0.153867 -0.299178
C170  C     C_R   0.629552 0.293311 0.844133 -0.300035
C171  C     C_R   0.288627 0.834856 0.315314 -0.300687
C172  C     C_R   0.295448 0.171057 0.691079 -0.296471
C173  C     C_R   0.687393 0.643762 0.150990 -0.284345
C174  C     C_R   0.371216 0.707239 0.844295 -0.299659
C175  C     C_R   0.710203 0.164314 0.315776 -0.299598
C176  C     C_3   0.838681 0.682785 0.777791 0.206749
C177  C     C_3   0.816758 0.715098 0.808495 -0.284312
C178  C     C_3   0.783610 0.691159 0.836288 -0.992178
C179  C     C_R   0.560095 0.612065 0.556502 -0.145132
C180  C     C_3   0.383855 0.271834 0.066244 0.197924
C181  C     C_3   0.350428 0.283471 0.032071 -0.267581
C182  C     C_3   0.372451 0.309862 0.997482 -1.006082
C183  C     C_3   0.611260 0.262147 0.929788 0.198003
C184  C     C_3   0.642959 0.273450 0.965405 -0.269076
C185  C     C_3   0.618488 0.296954 0.000532 -1.002269
C186  C     C_3   0.306029 0.870070 0.231119 0.222305
C187  C     C_3   0.322967 0.904650 0.200420 -0.212728
C188  C     C_3   0.346873 0.882692 0.164104 -1.013751
C189  C     C_3   0.311002 0.145916 0.778750 0.222047
C190  C     C_R   0.611865 0.439989 0.442794 -0.146213
C191  C     C_3   0.328863 0.115785 0.812978 -0.212639
C192  C     C_3   0.349364 0.142831 0.848036 -1.012626
C193  C     C_3   0.696366 0.639363 0.057270 0.212837
C194  C     C_3   0.717362 0.617074 0.019541 -0.209679
C195  C     C_3   0.683414 0.610705 0.984981 -1.030615
C196  C     C_3   0.388876 0.739005 0.929994 0.198656
C197  C     C_3   0.356850 0.727966 0.965379 -0.268094
C198  C     C_3   0.380983 0.704673 0.000793 -1.005802
C199  C     C_3   0.692525 0.130510 0.231023 0.220646
C200  C     C_3   0.675485 0.096431 0.199795 -0.210668
C201  C     C_R   0.401665 0.546036 0.575852 -0.122888
C202  C     C_3   0.651421 0.118972 0.163908 -1.012580
C203  C     C_3   0.189262 0.359016 0.274792 0.222823
C204  C     C_3   0.171482 0.390578 0.307985 -0.213724
C205  C     C_3   0.149345 0.365110 0.343121 -1.011670
C206  C     C_3   0.779474 0.873087 0.561038 0.213469
C207  C     C_3   0.751822 0.894983 0.527011 -0.209882
C208  C     C_3   0.780434 0.906707 0.489669 -1.031209
C209  C     C_3   0.111504 0.761177 0.429641 0.198521
C210  C     C_3   0.143632 0.772181 0.465011 -0.268253
C211  C     C_3   0.119627 0.795557 0.500486 -1.004864
C212  C     C_R   0.547576 0.600240 0.425622 -0.125085
C213  C     C_3   0.807350 0.369737 0.731782 0.221202
C214  C     C_3   0.824463 0.404095 0.700953 -0.212043
C215  C     C_3   0.848762 0.381889 0.664992 -1.012385
C216  C     C_3   0.685866 0.816562 0.289288 0.186532
C217  C     C_3   0.706062 0.778484 0.314877 -0.255953
C218  C     C_3   0.744480 0.794787 0.341657 -1.005829
C219  C     C_3   0.119188 0.222814 0.564717 0.197174
C220  C     C_3   0.153445 0.210719 0.531402 -0.267158
C221  C     C_3   0.132536 0.182875 0.497118 -1.004787
C222  C     C_3   0.887815 0.236188 0.430973 0.198534
C223  C     C_R   0.111989 0.060034 0.056677 -0.158303
C224  C     C_R   0.440448 0.387905 0.556279 -0.136264
C225  C     C_3   0.855929 0.224613 0.466313 -0.269365
C226  C     C_3   0.880201 0.200768 0.501329 -1.002968
C227  C     C_3   0.194102 0.629571 0.731483 0.222595
C228  C     C_3   0.177179 0.594935 0.700735 -0.213566
C229  C     C_3   0.153092 0.616816 0.664511 -1.013202
C230  C     C_3   0.117636 0.272701 0.044943 0.200231
C231  C     C_3   0.118800 0.323410 0.042192 -0.231291
C232  C     C_3   0.072088 0.342916 0.037756 -1.016141
C233  C     C_3   0.780605 0.924305 0.799779 0.193121
C234  C     C_3   0.737862 0.920106 0.774526 -0.237237
C235  C     C_R   0.388176 0.559978 0.442701 -0.156996
C236  C     C_3   0.712632 0.964196 0.772655 -0.992657
C237  C     C_3   0.087916 0.971441 0.261280 0.131426
C238  C     C_3   0.098722 0.008263 0.292206 -0.216182
C239  C     C_3   0.057938 0.020956 0.317776 -1.022014
C240  C     C_3   0.878689 0.272278 0.956530 0.203085
C241  C     C_3   0.876320 0.322882 0.960429 -0.229796
C242  C     C_3   0.922448 0.342924 0.966488 -1.017447
C243  C     C_3   0.837106 0.779520 0.174746 0.143709
C244  C     C_3   0.821514 0.742282 0.203374 -0.235196
C245  C     C_3   0.811785 0.759758 0.246715 -1.039242
C246  C     C_R   0.598554 0.453900 0.575726 -0.124590
C247  C     C_3   0.112321 0.027658 0.737670 0.140082
C248  C     C_3   0.132768 0.992510 0.709263 -0.229272
C249  C     C_3   0.100097 0.978220 0.675717 -1.005116
C250  C     C_3   0.909983 0.028119 0.260752 0.133470
C251  C     C_3   0.898529 0.991273 0.291356 -0.216679
C252  C     C_3   0.938954 0.978040 0.317186 -1.026204
C253  C     C_3   0.122707 0.727332 0.954950 0.204401
C254  C     C_3   0.126191 0.676767 0.958514 -0.238710
C255  C     C_3   0.080424 0.655548 0.963103 -0.999058
C256  C     C_3   0.668053 0.715790 0.680658 0.134731
C257  C     C_R   0.163328 0.214512 0.066448 0.626583
C258  C     C_3   0.682969 0.753331 0.709380 -0.229929
C259  C     C_3   0.700070 0.735345 0.750531 -1.020401
C260  C     C_3   0.390970 0.471658 0.237137 0.141420
C261  C     C_3   0.371709 0.507096 0.208396 -0.230147
C262  C     C_3   0.405157 0.520467 0.175247 -1.004466
C263  C     C_3   0.590143 0.471746 0.760932 0.133516
C264  C     C_3   0.601641 0.508590 0.791620 -0.217324
C265  C     C_3   0.561265 0.521805 0.817516 -1.025588
C266  C     C_3   0.377550 0.772707 0.454489 0.204454
C267  C     C_3   0.374094 0.823287 0.457995 -0.240190
C268  C     C_R   0.846811 0.887759 0.810350 0.575793
C269  C     C_3   0.419874 0.844501 0.462589 -0.995107
C270  C     C_3   0.384462 0.224618 0.551247 0.240565
C271  C     C_3   0.403309 0.218517 0.507655 -0.322168
C272  C     C_3   0.450475 0.199556 0.508803 -1.013097
C273  C     C_3   0.726164 0.638509 0.293882 0.151640
C274  C     C_3   0.773415 0.641087 0.311060 -0.270208
C275  C     C_3   0.807523 0.624942 0.279446 -0.979303
C276  C     C_3   0.412352 0.528655 0.761177 0.131602
C277  C     C_3   0.401590 0.491797 0.791983 -0.216302
C278  C     C_3   0.442391 0.479118 0.817542 -1.022229
C279  C     C_R   0.115699 0.928450 0.210049 0.620343
C280  C     C_3   0.619099 0.228062 0.456923 0.205951
C281  C     C_3   0.620009 0.177420 0.460668 -0.231851
C282  C     C_3   0.573446 0.158875 0.467883 -1.017833
C283  C     C_R   0.834942 0.213956 0.932595 0.625989
C284  C     C_R   0.833506 0.796976 0.106219 0.593905
C285  C     C_R   0.125445 0.072017 0.792972 0.611901
C286  C     C_R   0.883022 0.071675 0.209616 0.620080
C287  C     C_R   0.900241 0.952787 0.925078 -0.136993
C288  C     C_R   0.165649 0.786464 0.931972 0.622838
C289  C     C_R   0.664968 0.701579 0.611448 0.596623
C290  C     C_R   0.376121 0.427990 0.292425 0.612889
C291  C     C_R   0.617028 0.428259 0.709626 0.620132
C292  C     C_R   0.334568 0.713510 0.431549 0.622599
C293  C     C_R   0.338286 0.284745 0.567001 0.627487
C294  C     C_R   0.656244 0.635624 0.323143 0.565582
C295  C     C_R   0.384505 0.571640 0.710042 0.620223
C296  C     C_R   0.663997 0.285382 0.432617 0.627394
C297  C     C_R   0.133701 0.180110 0.055905 -0.395742
C298  C     C_R   0.046434 0.900953 0.075371 -0.144370
C299  C     C_R   0.859774 0.904272 0.849134 -0.373549
C300  C     C_R   0.102947 0.939990 0.169890 -0.338255
C301  C     C_R   0.865026 0.179738 0.943214 -0.398514
C302  C     C_R   0.868423 0.825669 0.096213 -0.351315
C303  C     C_R   0.110586 0.060460 0.832370 -0.320382
C304  C     C_R   0.896174 0.060198 0.169544 -0.335098
C305  C     C_R   0.135314 0.820413 0.942687 -0.393564
C306  C     C_R   0.630695 0.672109 0.601479 -0.345758
C307  C     C_R   0.390518 0.439503 0.332028 -0.321239
C308  C     C_R   0.604018 0.439771 0.669536 -0.335296
C309  C     C_R   0.940226 0.112005 0.943345 -0.135200
C310  C     C_R   0.364863 0.679576 0.442344 -0.393114
C311  C     C_R   0.367231 0.319425 0.556125 -0.382187
C312  C     C_R   0.642397 0.616712 0.360274 -0.284488
C313  C     C_R   0.397201 0.560115 0.669851 -0.338080
C314  C     C_R   0.634266 0.319955 0.443219 -0.399931
C315  C     C_R   0.137104 0.138210 0.074821 0.109316
C316  C     C_R   0.904671 0.903736 0.860737 0.102137
C317  C     C_R   0.092710 0.906808 0.140895 0.080801
C318  C     C_R   0.862796 0.138018 0.923764 0.111531
C319  C     C_R   0.860520 0.862451 0.070710 0.083101
C320  C     C_R   0.887633 0.940206 0.055421 -0.147833
C321  C     C_R   0.094288 0.093171 0.859506 0.078544
C322  C     C_R   0.906829 0.093405 0.140785 0.079560
C323  C     C_R   0.137134 0.862103 0.923244 0.108525
C324  C     C_R   0.638446 0.637401 0.573482 0.078650
C325  C     C_R   0.405920 0.406678 0.359422 0.078423
C326  C     C_R   0.593333 0.406592 0.640673 0.079756
C327  C     C_R   0.363009 0.637806 0.422952 0.108634
C328  C     C_R   0.363136 0.361549 0.574568 0.100026
C329  C     C_R   0.599411 0.599783 0.364147 0.062171
C330  C     C_R   0.407346 0.593306 0.640924 0.080444
C331  C     C_R   0.098886 0.046092 0.924587 -0.122816
C332  C     C_R   0.637073 0.361710 0.424005 0.111015
C333  C     C_R   0.172258 0.129353 0.101896 -0.180164
C334  C     C_R   0.936982 0.888561 0.832757 -0.182132
C335  C     C_R   0.093939 0.862023 0.152605 -0.183906
C336  C     C_R   0.828585 0.129234 0.895694 -0.184081
C337  C     C_R   0.818559 0.868025 0.052182 -0.170969
C338  C     C_R   0.091289 0.137428 0.846312 -0.183200
C339  C     C_R   0.905631 0.138168 0.152687 -0.181263
C340  C     C_R   0.171070 0.871047 0.894968 -0.183417
C341  C     C_R   0.679603 0.634330 0.553100 -0.175769
C342  C     C_R   0.953342 0.900587 0.924918 -0.132017
C343  C     C_R   0.408390 0.362316 0.346373 -0.183705
C344  C     C_R   0.594401 0.361826 0.652467 -0.181460
C345  C     C_R   0.329080 0.628782 0.394636 -0.182984
C346  C     C_R   0.327657 0.370298 0.601301 -0.177857
C347  C     C_R   0.570248 0.600377 0.330411 -0.188473
C348  C     C_R   0.406096 0.638091 0.652738 -0.183494
C349  C     C_R   0.671639 0.370248 0.396317 -0.181611
C350  C     C_R   0.202064 0.162920 0.112101 -0.179719
C351  C     C_R   0.924399 0.872223 0.794271 -0.150278
C352  C     C_R   0.108547 0.850328 0.191954 -0.175920
H1    H     H_    0.974951 0.126098 0.084470 0.105354
H2    H     H_    0.043971 0.144433 0.053798 0.090077
H3    H     H_    0.798881 0.741821 0.791498 0.196647
H4    H     H_    0.756744 0.675961 0.817454 0.272407
H5    H     H_    0.768387 0.715349 0.858098 0.281054
H6    H     H_    0.800697 0.664779 0.854394 0.271411
H7    H     H_    0.411192 0.251805 0.052413 0.139745
H8    H     H_    0.399598 0.302648 0.078559 0.071124
H9    H     H_    0.336368 0.252360 0.018966 0.245916
H10   H     H_    0.322739 0.303608 0.045170 0.189912
H11   H     H_    0.386084 0.341549 0.009723 0.269954
H12   H     H_    0.347457 0.317724 0.973269 0.278807
H13   H     H_    0.144465 0.954842 0.945307 0.108216
H14   H     H_    0.399767 0.290127 0.983262 0.270156
H15   H     H_    0.584647 0.240173 0.941871 0.139704
H16   H     H_    0.594225 0.292820 0.918503 0.071085
H17   H     H_    0.658274 0.242354 0.977438 0.245781
H18   H     H_    0.669917 0.295478 0.954063 0.190407
H19   H     H_    0.603546 0.328600 0.989398 0.269750
H20   H     H_    0.642273 0.304636 0.025790 0.279297
H21   H     H_    0.591842 0.275288 0.013019 0.270047
H22   H     H_    0.282855 0.847235 0.214553 0.100284
H23   H     H_    0.334973 0.850675 0.242934 0.085080
H24   H     H_    0.874918 0.024269 0.085034 0.112959
H25   H     H_    0.294439 0.924502 0.188533 0.233709
H26   H     H_    0.346313 0.927560 0.216376 0.203161
H27   H     H_    0.376002 0.863237 0.175201 0.272620
H28   H     H_    0.358765 0.908685 0.142458 0.280253
H29   H     H_    0.323867 0.860261 0.147208 0.273444
H30   H     H_    0.285472 0.168668 0.792353 0.101040
H31   H     H_    0.339038 0.165966 0.766338 0.084202
H32   H     H_    0.301269 0.095321 0.825515 0.234344
H33   H     H_    0.354538 0.093029 0.799994 0.202835
H34   H     H_    0.377547 0.163021 0.836342 0.271971
H35   H     H_    0.024891 0.125981 0.915458 0.103494
H36   H     H_    0.362022 0.119983 0.872311 0.280548
H37   H     H_    0.324017 0.165228 0.862012 0.273858
H38   H     H_    0.682629 0.672316 0.047689 0.098379
H39   H     H_    0.668812 0.617968 0.068743 0.081607
H40   H     H_    0.745116 0.637975 0.007962 0.228338
H41   H     H_    0.731112 0.584101 0.028547 0.201804
H42   H     H_    0.655693 0.589264 0.995658 0.271668
H43   H     H_    0.699715 0.594448 0.958108 0.278929
H44   H     H_    0.669838 0.643373 0.974945 0.273235
H45   H     H_    0.415390 0.761048 0.942228 0.140281
H46   H     H_    0.954453 0.855118 0.052253 0.103203
H47   H     H_    0.405995 0.708247 0.918963 0.070832
H48   H     H_    0.341458 0.759154 0.977178 0.245943
H49   H     H_    0.329973 0.705884 0.953886 0.189983
H50   H     H_    0.395994 0.672940 0.989894 0.269890
H51   H     H_    0.356965 0.697179 0.025870 0.278380
H52   H     H_    0.407535 0.726399 0.013439 0.270851
H53   H     H_    0.715625 0.153627 0.214786 0.100993
H54   H     H_    0.663617 0.149691 0.243227 0.084803
H55   H     H_    0.703977 0.076796 0.187511 0.235549
H56   H     H_    0.652216 0.073245 0.215425 0.203224
H57   H     H_    0.855524 0.045082 0.945318 0.100847
H58   H     H_    0.622325 0.138221 0.175397 0.272486
H59   H     H_    0.639460 0.093332 0.141862 0.280423
H60   H     H_    0.674346 0.141694 0.147331 0.273583
H61   H     H_    0.213777 0.335913 0.289421 0.101307
H62   H     H_    0.160945 0.339461 0.262179 0.084318
H63   H     H_    0.199365 0.410564 0.320710 0.234463
H64   H     H_    0.146810 0.413708 0.293969 0.202828
H65   H     H_    0.120861 0.345439 0.331220 0.272091
H66   H     H_    0.136789 0.388972 0.366633 0.280459
H67   H     H_    0.173675 0.342374 0.358112 0.273853
H68   H     H_    0.124939 0.975858 0.085243 0.109147
H69   H     H_    0.795217 0.842357 0.548210 0.098687
H70   H     H_    0.805934 0.896692 0.570948 0.081633
H71   H     H_    0.725046 0.871885 0.517109 0.229110
H72   H     H_    0.736073 0.925815 0.539241 0.201173
H73   H     H_    0.807032 0.930361 0.498712 0.271839
H74   H     H_    0.759376 0.922565 0.465599 0.278836
H75   H     H_    0.795826 0.876206 0.476438 0.273333
H76   H     H_    0.084973 0.739197 0.441867 0.140311
H77   H     H_    0.094420 0.791960 0.418678 0.070878
H78   H     H_    0.158984 0.740972 0.476746 0.245990
H79   H     H_    0.475231 0.625954 0.584475 0.104725
H80   H     H_    0.170530 0.794196 0.453526 0.190088
H81   H     H_    0.104659 0.827311 0.489652 0.269864
H82   H     H_    0.143717 0.803022 0.525550 0.278360
H83   H     H_    0.093058 0.773898 0.513124 0.270977
H84   H     H_    0.784389 0.346689 0.715215 0.101003
H85   H     H_    0.836242 0.350533 0.743967 0.084468
H86   H     H_    0.795986 0.423756 0.688694 0.235381
H87   H     H_    0.847596 0.427216 0.716914 0.202446
H88   H     H_    0.877847 0.362621 0.676463 0.272274
H89   H     H_    0.860773 0.407726 0.643242 0.280398
H90   H     H_    0.544252 0.355663 0.445728 0.091650
H91   H     H_    0.825977 0.359240 0.648090 0.273614
H92   H     H_    0.673505 0.842508 0.310933 0.146573
H93   H     H_    0.712069 0.832799 0.270305 0.073999
H94   H     H_    0.680128 0.764095 0.335257 0.260072
H95   H     H_    0.718651 0.751881 0.294040 0.197264
H96   H     H_    0.771080 0.809271 0.322103 0.273361
H97   H     H_    0.758681 0.766393 0.359248 0.281623
H98   H     H_    0.732558 0.820330 0.363917 0.272862
H99   H     H_    0.091781 0.241931 0.549950 0.139759
H100  H     H_    0.103742 0.192118 0.577512 0.071263
H101  H     H_    0.644521 0.544163 0.553286 0.102333
H102  H     H_    0.167207 0.241659 0.517772 0.245885
H103  H     H_    0.181226 0.191489 0.545448 0.190765
H104  H     H_    0.119228 0.151339 0.509907 0.269920
H105  H     H_    0.158110 0.174711 0.473525 0.279138
H106  H     H_    0.105153 0.201673 0.481969 0.269928
H107  H     H_    0.914397 0.258019 0.443411 0.139945
H108  H     H_    0.904865 0.205594 0.419468 0.070847
H109  H     H_    0.840596 0.255621 0.478578 0.245780
H110  H     H_    0.828999 0.202720 0.454615 0.190217
H111  H     H_    0.895157 0.169202 0.489956 0.269682
H112  H     H_    0.044383 0.855619 0.945637 0.096760
H113  H     H_    0.374074 0.475530 0.415685 0.106878
H114  H     H_    0.856284 0.192894 0.526387 0.279023
H115  H     H_    0.906813 0.222289 0.514169 0.270369
H116  H     H_    0.217157 0.652475 0.714931 0.100392
H117  H     H_    0.165135 0.648879 0.743389 0.085122
H118  H     H_    0.205732 0.575172 0.688754 0.233698
H119  H     H_    0.153954 0.571953 0.716679 0.202928
H120  H     H_    0.123936 0.636179 0.675702 0.272855
H121  H     H_    0.141216 0.590783 0.642826 0.280086
H122  H     H_    0.175975 0.639317 0.647627 0.273423
H123  H     H_    0.096887 0.263398 0.072179 0.124067
H124  H     H_    0.525141 0.373915 0.584369 0.105513
H125  H     H_    0.102278 0.259498 0.016185 0.092874
H126  H     H_    0.134540 0.337098 0.070562 0.220645
H127  H     H_    0.139135 0.333466 0.015110 0.203207
H128  H     H_    0.055956 0.330193 0.009223 0.266577
H129  H     H_    0.074116 0.379723 0.035775 0.278689
H130  H     H_    0.051416 0.334022 0.064941 0.273614
H131  H     H_    0.801661 0.950580 0.785343 0.127298
H132  H     H_    0.771815 0.934441 0.831824 0.095252
H133  H     H_    0.746221 0.909303 0.742575 0.220871
H134  H     H_    0.716133 0.894459 0.788682 0.202565
H135  H     H_    0.455794 0.644286 0.445392 0.096772
H136  H     H_    0.703344 0.975308 0.804252 0.266773
H137  H     H_    0.681787 0.959942 0.754203 0.277045
H138  H     H_    0.733428 0.990101 0.757773 0.273801
H139  H     H_    0.076491 0.941609 0.278712 0.126116
H140  H     H_    0.060587 0.983304 0.240663 0.098545
H141  H     H_    0.125633 0.996760 0.313253 0.208385
H142  H     H_    0.110656 0.038100 0.275316 0.210234
H143  H     H_    0.030864 0.033325 0.297369 0.272264
H144  H     H_    0.066852 0.047710 0.339929 0.278975
H145  H     H_    0.045854 0.991762 0.335474 0.276308
H146  H     H_    0.355354 0.454844 0.553752 0.107548
H147  H     H_    0.900429 0.263936 0.929630 0.122556
H148  H     H_    0.893485 0.258597 0.985364 0.091907
H149  H     H_    0.861097 0.337050 0.932003 0.222072
H150  H     H_    0.854996 0.331976 0.987216 0.203018
H151  H     H_    0.938037 0.329725 0.995111 0.266752
H152  H     H_    0.919547 0.379638 0.969275 0.279273
H153  H     H_    0.944086 0.335001 0.939633 0.273292
H154  H     H_    0.813166 0.807875 0.177593 0.115946
H155  H     H_    0.870435 0.791162 0.184939 0.120065
H156  H     H_    0.790706 0.727166 0.190709 0.204632
H157  H     H_    0.629099 0.527565 0.417844 0.105740
H158  H     H_    0.847540 0.715989 0.205080 0.211275
H159  H     H_    0.842097 0.774868 0.260348 0.278983
H160  H     H_    0.800865 0.731952 0.266730 0.278328
H161  H     H_    0.784745 0.785024 0.245629 0.270149
H162  H     H_    0.102577 0.056937 0.718553 0.123722
H163  H     H_    0.082110 0.013446 0.752580 0.104874
H164  H     H_    0.163110 0.006248 0.694445 0.211350
H165  H     H_    0.142542 0.962937 0.727803 0.208143
H166  H     H_    0.069770 0.963707 0.689835 0.271456
H167  H     H_    0.115946 0.952698 0.655671 0.273721
H168  H     H_    0.475060 0.373879 0.415479 0.104491
H169  H     H_    0.090524 0.007162 0.656295 0.272990
H170  H     H_    0.921606 0.057742 0.278459 0.125654
H171  H     H_    0.937331 0.016049 0.240258 0.098054
H172  H     H_    0.871556 0.002962 0.312253 0.208356
H173  H     H_    0.886426 0.961639 0.274180 0.208998
H174  H     H_    0.966088 0.965510 0.296927 0.272188
H175  H     H_    0.929574 0.951261 0.339073 0.278398
H176  H     H_    0.951167 0.007017 0.335193 0.277288
H177  H     H_    0.101432 0.735342 0.927643 0.127378
H178  H     H_    0.106864 0.740524 0.983516 0.093969
H179  H     H_    0.545126 0.644691 0.553560 0.104405
H180  H     H_    0.142640 0.663174 0.930417 0.222740
H181  H     H_    0.146889 0.668004 0.985812 0.203014
H182  H     H_    0.063628 0.668169 0.991372 0.267330
H183  H     H_    0.084158 0.618896 0.965690 0.275977
H184  H     H_    0.059462 0.663116 0.935703 0.276232
H185  H     H_    0.694980 0.690104 0.679805 0.114033
H186  H     H_    0.637573 0.700133 0.693470 0.120963
H187  H     H_    0.710044 0.772475 0.694381 0.207878
H188  H     H_    0.654588 0.776327 0.715090 0.209985
H189  H     H_    0.673664 0.716051 0.766361 0.274814
H190  H     H_    0.644450 0.454902 0.445276 0.101429
H191  H     H_    0.710082 0.763469 0.770730 0.278988
H192  H     H_    0.729558 0.713622 0.745433 0.268562
H193  H     H_    0.400308 0.442062 0.218209 0.123181
H194  H     H_    0.421292 0.485268 0.252397 0.104294
H195  H     H_    0.341271 0.493961 0.193217 0.211433
H196  H     H_    0.362345 0.536979 0.226748 0.208131
H197  H     H_    0.435606 0.534376 0.189726 0.271676
H198  H     H_    0.390161 0.546225 0.154945 0.273554
H199  H     H_    0.414349 0.491215 0.156011 0.273001
H200  H     H_    0.578589 0.442107 0.778572 0.125521
H201  H     H_    0.375108 0.524168 0.585200 0.109184
H202  H     H_    0.562737 0.483798 0.740499 0.097992
H203  H     H_    0.628660 0.496908 0.812465 0.208507
H204  H     H_    0.613697 0.538233 0.774510 0.208437
H205  H     H_    0.534098 0.534356 0.797312 0.272123
H206  H     H_    0.570687 0.548565 0.839480 0.278592
H207  H     H_    0.549082 0.492815 0.835443 0.277306
H208  H     H_    0.398808 0.764576 0.427201 0.127952
H209  H     H_    0.393400 0.759619 0.483076 0.094319
H210  H     H_    0.357641 0.836777 0.429874 0.222969
H211  H     H_    0.353411 0.832170 0.485272 0.203317
H212  H     H_    0.526551 0.627895 0.416937 0.111364
H213  H     H_    0.436673 0.831985 0.490882 0.267256
H214  H     H_    0.416159 0.881165 0.465132 0.275911
H215  H     H_    0.440822 0.836812 0.435210 0.276703
H216  H     H_    0.381879 0.191333 0.565921 0.147920
H217  H     H_    0.408071 0.244009 0.570833 0.097557
H218  H     H_    0.381576 0.195502 0.489955 0.220697
H219  H     H_    0.403789 0.250939 0.491271 0.199266
H220  H     H_    0.473056 0.222641 0.525431 0.263070
H221  H     H_    0.462984 0.195152 0.476774 0.277768
H222  H     H_    0.450795 0.166708 0.524483 0.276476
H223  H     H_    0.144619 0.045028 0.053899 0.107920
H224  H     H_    0.456219 0.355621 0.553751 0.092374
H225  H     H_    0.724939 0.658130 0.264865 0.113218
H226  H     H_    0.718620 0.602923 0.286810 0.114422
H227  H     H_    0.781041 0.676042 0.319680 0.209849
H228  H     H_    0.775887 0.620260 0.339328 0.203183
H229  H     H_    0.801141 0.589679 0.271122 0.274037
H230  H     H_    0.841462 0.627464 0.292774 0.273755
H231  H     H_    0.805961 0.645698 0.251099 0.268810
H232  H     H_    0.423753 0.558486 0.778705 0.125993
H233  H     H_    0.439685 0.516834 0.740540 0.098556
H234  H     H_    0.374675 0.503259 0.813049 0.208275
H235  H     H_    0.355547 0.545168 0.445183 0.108368
H236  H     H_    0.389676 0.461964 0.774995 0.210286
H237  H     H_    0.469470 0.466792 0.797115 0.272309
H238  H     H_    0.433507 0.452335 0.839604 0.278961
H239  H     H_    0.454452 0.508306 0.835342 0.276332
H240  H     H_    0.596969 0.237047 0.430481 0.120596
H241  H     H_    0.605447 0.242118 0.486106 0.092783
H242  H     H_    0.633896 0.162792 0.431837 0.222771
H243  H     H_    0.641847 0.167651 0.486887 0.202952
H244  H     H_    0.559192 0.172528 0.496937 0.271313
H245  H     H_    0.575230 0.122087 0.470492 0.279261
H246  H     H_    0.625219 0.475696 0.585012 0.112547
H247  H     H_    0.551223 0.167547 0.441643 0.273254
H248  H     H_    0.170422 0.333429 0.189093 0.186271
H249  H     H_    0.799463 0.900409 0.651092 0.190048
H250  H     H_    0.093220 0.789026 0.344327 0.187106
H251  H     H_    0.825085 0.339267 0.816283 0.185707
H252  H     H_    0.687304 0.839655 0.202077 0.189908
H253  H     H_    0.098948 0.201675 0.651165 0.187708
H254  H     H_    0.905697 0.209639 0.345258 0.187412
H255  H     H_    0.872977 0.974211 0.916165 0.099940
H256  H     H_    0.175871 0.660773 0.815734 0.186624
H257  H     H_    0.827529 0.667015 0.690508 0.189241
H258  H     H_    0.402947 0.295159 0.152535 0.187926
H259  H     H_    0.593731 0.289449 0.844278 0.187381
H260  H     H_    0.324424 0.838874 0.315303 0.186790
H261  H     H_    0.331404 0.169277 0.692750 0.186425
H262  H     H_    0.684137 0.608095 0.147299 0.191312
H263  H     H_    0.407031 0.711138 0.844611 0.187254
H264  H     H_    0.674406 0.160299 0.315747 0.185768
H265  H     H_    0.108052 0.185799 0.033060 0.124496
H266  H     H_    0.024612 0.874236 0.084450 0.104762
H267  H     H_    0.834738 0.915017 0.871054 0.136620
H268  H     H_    0.100955 0.974817 0.161485 0.149172
H269  H     H_    0.889997 0.185330 0.966695 0.124900
H270  H     H_    0.900770 0.820725 0.110294 0.146575
H271  H     H_    0.112167 0.025916 0.841746 0.146102
H272  H     H_    0.898096 0.025383 0.161011 0.150881
H273  H     H_    0.110543 0.814619 0.966281 0.127319
H274  H     H_    0.598977 0.674928 0.617175 0.149500
H275  H     H_    0.389371 0.474111 0.341340 0.146402
H276  H     H_    0.602194 0.474591 0.661080 0.150528
H277  H     H_    0.955637 0.144355 0.945806 0.090225
H278  H     H_    0.389627 0.685443 0.465966 0.127329
H279  H     H_    0.393112 0.313487 0.533588 0.132294
H280  H     H_    0.664550 0.617098 0.386706 0.150376
H281  H     H_    0.399210 0.525290 0.661365 0.149259
H282  H     H_    0.609033 0.314616 0.466462 0.124129
H283  H     H_    0.175567 0.097036 0.116374 0.136342
H284  H     H_    0.971919 0.888580 0.840946 0.131399
H285  H     H_    0.085811 0.836058 0.130658 0.131460
H286  H     H_    0.826196 0.097055 0.880767 0.129598
H287  H     H_    0.812036 0.895479 0.031415 0.125249
H288  H     H_    0.855459 0.956119 0.052564 0.100853
H289  H     H_    0.078640 0.163085 0.866728 0.129095
H290  H     H_    0.914053 0.164157 0.130931 0.130350
H291  H     H_    0.173123 0.903206 0.880034 0.136433
H292  H     H_    0.685895 0.608294 0.530685 0.126880
H293  H     H_    0.420360 0.336583 0.367009 0.129673
H294  H     H_    0.585949 0.335859 0.630630 0.130395
H295  H     H_    0.327000 0.596562 0.379742 0.136493
H296  H     H_    0.323788 0.402767 0.615434 0.136124
H297  H     H_    0.536804 0.587449 0.333349 0.136010
H298  H     H_    0.414157 0.664063 0.630845 0.131835
H299  H     H_    0.126003 0.024431 0.915813 0.106482
H300  H     H_    0.674485 0.402442 0.381572 0.133039
H301  H     H_    0.227818 0.156383 0.134726 0.152110
H302  H     H_    0.949445 0.858971 0.773555 0.150786
H303  H     H_    0.112459 0.815492 0.199679 0.150000
H304  H     H_    0.773325 0.156088 0.862063 0.150534
H305  H     H_    0.751184 0.845104 0.048739 0.144790
H306  H     H_    0.108059 0.184165 0.798947 0.150577
H307  H     H_    0.886841 0.184641 0.199837 0.149795
H308  H     H_    0.226309 0.844497 0.861065 0.152751
H309  H     H_    0.745528 0.660703 0.547290 0.146998
H310  H     H_    0.974768 0.873251 0.916210 0.105982
H311  H     H_    0.391575 0.315602 0.298899 0.151134
H312  H     H_    0.612938 0.315300 0.699552 0.149896
H313  H     H_    0.273882 0.655253 0.360627 0.152725
H314  H     H_    0.272237 0.342911 0.634000 0.150948
H315  H     H_    0.560671 0.620262 0.267371 0.143578
H316  H     H_    0.387613 0.684602 0.699936 0.150276
H317  H     H_    0.726998 0.342979 0.363123 0.151935
H318  H     H_    0.857287 0.657278 0.795690 0.141743
H319  H     H_    0.812791 0.664362 0.760178 0.074054
H320  H     H_    0.842768 0.730649 0.828105 0.248993
N1    N     N_R   0.957630 0.074620 0.040900 -0.040756
N2    N     N_R   0.042370 0.074620 0.040900 -0.039886
N3    N     N_R   0.074620 0.957630 0.959100 -0.039381
N4    N     N_R   0.925380 0.042370 0.040900 -0.041594
N5    N     N_R   0.042370 0.074620 0.959100 -0.040891
N6    N     N_R   0.957630 0.925380 0.040900 -0.039520
N7    N     N_R   0.925380 0.042370 0.959100 -0.038151
N8    N     N_R   0.074620 0.957630 0.040900 -0.041032
N9    N     N_R   0.457630 0.574620 0.540900 -0.040278
N10   N     N_R   0.542370 0.425380 0.459100 -0.039982
N11   N     N_R   0.574620 0.542370 0.540900 -0.040898
N12   N     N_R   0.042370 0.925380 0.959100 -0.039985
N13   N     N_R   0.425380 0.457630 0.459100 -0.040776
N14   N     N_R   0.542370 0.425380 0.540900 -0.040796
N15   N     N_R   0.457630 0.574620 0.459100 -0.040675
N16   N     N_R   0.425380 0.457630 0.540900 -0.039743
N17   N     N_R   0.574620 0.542370 0.459100 -0.040539
N18   N     N_R   0.457630 0.425380 0.459100 -0.040863
N19   N     N_R   0.542370 0.574620 0.540900 -0.039602
N20   N     N_R   0.574620 0.457630 0.459100 -0.038544
N21   N     N_R   0.425380 0.542370 0.540900 -0.041046
N22   N     N_R   0.542370 0.574620 0.459100 -0.042376
N23   N     N_R   0.074620 0.042370 0.040900 -0.039638
N24   N     N_R   0.457630 0.425380 0.540900 -0.039892
N25   N     N_R   0.425380 0.542370 0.459100 -0.039554
N26   N     N_R   0.574620 0.457630 0.540900 -0.041624
N27   N     N_R   0.865856 0.845853 0.747596 -0.171760
N28   N     N_R   0.223109 0.241310 0.112084 -0.171260
N29   N     N_R   0.774822 0.240583 0.886874 -0.171217
N30   N     N_R   0.144621 0.870302 0.257003 -0.174154
N31   N     N_R   0.151367 0.131362 0.746160 -0.177152
N32   N     N_R   0.753434 0.782438 0.107403 -0.178424
N33   N     N_R   0.225681 0.760101 0.886084 -0.171284
N34   N     N_R   0.925380 0.957630 0.959100 -0.040184
N35   N     N_R   0.854083 0.129754 0.256716 -0.174545
N36   N     N_R   0.350107 0.368777 0.245274 -0.177224
N37   N     N_R   0.743791 0.722034 0.607493 -0.178409
N38   N     N_R   0.274560 0.739748 0.385586 -0.171307
N39   N     N_R   0.645636 0.370068 0.756700 -0.174586
N40   N     N_R   0.637025 0.662362 0.253290 -0.179766
N41   N     N_R   0.278479 0.257719 0.612423 -0.171510
N42   N     N_R   0.724488 0.258433 0.387405 -0.171266
N43   N     N_R   0.355603 0.629751 0.757151 -0.174208
N44   N     N_R   0.042370 0.925380 0.040900 -0.040176
N45   N     N_R   0.957630 0.074620 0.959100 -0.039608
N46   N     N_R   0.925380 0.957630 0.040900 -0.041286
N47   N     N_R   0.074620 0.042370 0.959100 -0.040739
N48   N     N_R   0.957630 0.925380 0.959100 -0.040812
Ni1   Ni    Ni4+2 0.000000 0.073960 0.000000 0.207836
Ni2   Ni    Ni4+2 0.000000 0.926040 0.000000 0.212997
Ni3   Ni    Ni4+2 0.073960 0.000000 0.000000 0.219849
Ni4   Ni    Ni4+2 0.926040 0.000000 0.000000 0.214365
Ni5   Ni    Ni4+2 0.500000 0.573960 0.500000 0.212750
Ni6   Ni    Ni4+2 0.500000 0.426040 0.500000 0.208854
Ni7   Ni    Ni4+2 0.573960 0.500000 0.500000 0.214280
Ni8   Ni    Ni4+2 0.426040 0.500000 0.500000 0.219537
O1    O     O_2   0.844141 0.912268 0.714952 -0.580818
O2    O     O_2   0.771896 0.655542 0.635733 -0.563488
O3    O     O_2   0.339193 0.773100 0.358901 -0.581276
O4    O     O_2   0.580326 0.339033 0.783993 -0.564834
O5    O     O_2   0.648196 0.596223 0.215862 -0.562157
O6    O     O_2   0.343945 0.230652 0.643616 -0.587768
O7    O     O_2   0.659756 0.225386 0.360438 -0.578647
O8    O     O_2   0.420744 0.661214 0.784492 -0.566889
O9    O     O_2   0.892784 0.780987 0.779234 -0.520757
O10   O     O_2   0.287015 0.212046 0.080547 -0.511934
O11   O     O_2   0.711470 0.207450 0.915501 -0.514054
O12   O     O_2   0.157592 0.270733 0.141338 -0.581324
O13   O     O_2   0.208022 0.905602 0.230567 -0.508420
O14   O     O_2   0.215788 0.104087 0.778585 -0.506322
O15   O     O_2   0.769022 0.717861 0.069404 -0.505335
O16   O     O_2   0.288849 0.793644 0.914779 -0.512399
O17   O     O_2   0.790577 0.095063 0.229662 -0.506540
O18   O     O_2   0.285604 0.398100 0.276012 -0.506251
O19   O     O_2   0.717586 0.786668 0.575053 -0.504522
O20   O     O_2   0.211382 0.706345 0.414266 -0.512556
O21   O     O_2   0.709237 0.404959 0.730202 -0.506794
O22   O     O_2   0.618147 0.727165 0.289558 -0.508411
O23   O     O_2   0.839616 0.273863 0.860434 -0.581310
O24   O     O_2   0.214655 0.284790 0.579136 -0.511514
O25   O     O_2   0.787766 0.291177 0.416699 -0.513539
O26   O     O_2   0.292212 0.594331 0.730688 -0.508465
O27   O     O_3   0.869717 0.704867 0.751974 -0.609963
O28   O     O_3   0.363611 0.245498 0.097221 -0.610688
O29   O     O_3   0.633843 0.238472 0.898188 -0.611356
O30   O     O_3   0.284135 0.892210 0.263915 -0.617787
O31   O     O_3   0.292344 0.119182 0.747284 -0.617435
O32   O     O_3   0.729221 0.644585 0.088065 -0.614497
O33   O     O_3   0.366598 0.762467 0.898108 -0.610793
O34   O     O_2   0.079477 0.838967 0.284331 -0.567434
O35   O     O_3   0.714556 0.107841 0.263395 -0.617635
O36   O     O_3   0.209451 0.384329 0.243207 -0.618121
O37   O     O_3   0.751342 0.862703 0.594560 -0.615606
O38   O     O_3   0.133662 0.737645 0.397692 -0.610914
O39   O     O_3   0.785099 0.392104 0.764238 -0.618143
O40   O     O_3   0.649015 0.801897 0.265503 -0.608789
O41   O     O_3   0.138388 0.250443 0.595376 -0.610808
O42   O     O_3   0.865415 0.260169 0.399496 -0.611090
O43   O     O_3   0.216161 0.607502 0.764194 -0.618023
O44   O     O_3   0.161716 0.256538 0.048507 -0.667104
O45   O     O_2   0.085662 0.155684 0.713754 -0.563091
O46   O     O_3   0.802324 0.882551 0.800313 -0.673323
O47   O     O_3   0.126412 0.961372 0.238062 -0.637873
O48   O     O_3   0.835097 0.255590 0.951454 -0.666479
O49   O     O_3   0.840199 0.762696 0.133997 -0.650011
O50   O     O_3   0.143926 0.039669 0.767900 -0.638786
O51   O     O_3   0.871770 0.038722 0.237326 -0.636532
O52   O     O_3   0.166022 0.745017 0.951021 -0.667605
O53   O     O_3   0.658320 0.733850 0.641302 -0.647151
O54   O     O_3   0.358689 0.460533 0.266989 -0.638205
O55   O     O_3   0.628309 0.461191 0.737436 -0.636697
O56   O     O_2   0.735959 0.849356 0.141627 -0.563065
O57   O     O_3   0.334224 0.755029 0.450558 -0.667648
O58   O     O_3   0.340936 0.242833 0.548959 -0.672202
O59   O     O_3   0.696588 0.657773 0.322823 -0.672667
O60   O     O_3   0.373837 0.538704 0.737968 -0.637855
O61   O     O_3   0.663023 0.243506 0.450960 -0.665784
O62   O     O_2   0.161061 0.726582 0.859416 -0.581637
O63   O     O_2   0.919298 0.160595 0.284522 -0.565007
O64   O     O_2   0.415939 0.342525 0.214403 -0.562419

loop_
_geom_bond_atom_site_label_1
_geom_bond_atom_site_label_2
_ccdc_geom_bond_type
C324  C341  A    
C144  O30   S    
C207  H72   S    
C8    C26   A    
C278  H239  S    
C105  C116  A    
C342  H310  S    
C279  O47   S    
C74   O14   S    
C252  H174  S    
C2    N2    A    
C73   O13   S    
C102  C120  A    
C15   C32   A    
C98   C152  A    
C59   N33   A    
C50   C224  A    
C52   O1    S    
C37   C315  S    
C247  C248  S    
C319  C337  A    
C38   C316  S    
N7    N45   A    
C268  C299  A    
C53   O12   S    
C205  H65   S    
C225  H110  S    
C271  H218  S    
C236  H138  S    
C92   C109  A    
C32   C295  A    
C272  H221  S    
C249  H169  S    
C271  C272  S    
C295  C313  A    
C35   H35   S    
C18   N27   S    
C247  H162  S    
C346  H296  S    
C244  C245  S    
C105  C123  A    
N16   N24   A    
C274  C275  S    
C39   C68   A    
C74   C92   A    
C215  H88   S    
C35   C42   A    
C184  H18   S    
C260  H193  S    
C31   N40   S    
C48   C246  A    
C61   C132  A    
C76   C94   A    
C169  H258  S    
C350  H301  S    
C264  H204  S    
C78   C96   A    
C196  O33   S    
C43   C201  A    
C180  H7    S    
C5    H306  S    
C232  H130  S    
C273  H225  S    
C311  C328  A    
C85   C103  A    
C256  H186  S    
C93   C110  A    
C65   C137  A    
C283  C301  A    
C217  H95   S    
C113  H113  S    
C199  C200  S    
C331  H299  S    
C190  N20   A    
C221  H106  S    
C146  H146  S    
C234  C236  S    
C240  O48   S    
C283  O48   S    
C203  H62   S    
C228  C229  S    
C192  H34   S    
C180  O28   S    
C14   C347  A    
C145  C172  A    
C150  C159  A    
C145  O31   S    
C313  H281  S    
C191  C192  S    
C251  C252  S    
C329  C347  A    
C236  H136  S    
C206  C207  S    
C276  H232  S    
C275  H230  S    
C268  O46   S    
C286  O51   S    
C89   C143  A    
C152  C161  A    
N1    Ni1   S    
C51   C157  A    
C24   C34   A    
N14   Ni6   S    
C135  N15   A    
C313  C330  A    
C183  C184  S    
C265  H205  S    
C332  C349  A    
N15   N25   A    
C54   C126  A    
C111  C130  A    
C227  C228  S    
C327  C345  A    
C211  H83   S    
C334  C351  A    
C49   C235  A    
C96   C150  A    
C90   N10   A    
C147  C173  A    
C81   O20   S    
C46   H46   S    
C157  N17   A    
C170  H259  S    
C87   C141  A    
C265  H206  S    
C277  H236  S    
C37   C223  A    
C15   H316  S    
C297  H265  S    
C13   C36   A    
N10   Ni6   S    
C68   N8    A    
C147  O32   S    
C69   N43   A    
C185  H20   S    
C83   C100  A    
C176  H319  S    
C120  C138  A    
C201  H201  S    
C103  C121  A    
C261  H196  S    
C72   N29   A    
C186  O30   S    
N1    N4    A    
C118  C136  A    
C75   C93   A    
C113  N13   A    
C8    C341  A    
C263  H202  S    
C286  C304  A    
C214  H86   S    
C198  H51   S    
C305  C323  A    
C192  H37   S    
N20   Ni7   S    
C4    C337  A    
C62   N37   A    
C196  C197  S    
C205  H67   S    
C188  H27   S    
C213  H85   S    
C228  H119  S    
C258  H187  S    
C175  H264  S    
N9    Ni5   S    
C302  C319  A    
C222  C225  S    
N25   Ni8   S    
C208  H74   S    
C106  C115  A    
C69   O8    S    
C43   C330  S    
N2    N23   A    
C67   N42   A    
C135  H135  S    
C337  H287  S    
N5    Ni1   S    
C25   C288  A    
C35   N5    A    
C193  O32   S    
C39   C298  A    
C269  H213  S    
C56   C128  A    
C231  H126  S    
C260  O54   S    
C314  H282  S    
C206  H70   S    
C76   N33   A    
C11   H313  S    
C19   N30   S    
N34   Ni4   S    
C203  O36   S    
C103  C156  A    
C82   N39   A    
C217  H94   S    
C200  C202  S    
C193  C194  S    
C233  H132  S    
C342  N48   A    
C291  C308  A    
C95   C114  A    
C186  C187  S    
C206  O37   S    
C57   H57   S    
C86   N43   A    
C303  C321  A    
N6    Ni2   S    
C243  C244  S    
C30   C293  A    
C84   N41   A    
C64   C136  A    
C281  H242  S    
C333  H283  S    
C54   N29   A    
C157  H157  S    
C293  O58   S    
C189  O31   S    
C84   C102  A    
C270  O58   S    
C178  H4    S    
C193  H38   S    
C179  H179  S    
C14   C31   A    
C86   C104  A    
C315  C333  A    
C212  N22   A    
C154  O40   S    
C44   C90   A    
C259  H191  S    
C298  H266  S    
C144  C171  A    
N15   Ni5   S    
C186  H23   S    
N4    Ni4   S    
C250  O51   S    
C265  H207  S    
N12   Ni2   S    
C302  H270  S    
C253  C254  S    
C209  O38   S    
C250  H170  S    
C104  C122  A    
C211  H81   S    
C58   C129  A    
N23   Ni3   S    
C82   O21   S    
C181  H9    S    
C128  C164  A    
C184  C185  S    
C110  C129  A    
C241  C242  S    
C330  C348  A    
C189  C191  S    
C270  H217  S    
C155  C164  A    
C289  O53   S    
C298  N44   A    
C239  H143  S    
C51   C329  S    
C278  H237  S    
C291  O55   S    
C264  C265  S    
C256  C258  S    
C247  H163  S    
C43   C79   A    
C219  O41   S    
C20   C283  A    
C67   C139  A    
C233  C234  S    
C107  C118  A    
C242  H151  S    
C218  H98   S    
C31   C294  A    
C223  H223  S    
C151  O37   S    
C200  H55   S    
C44   C190  A    
C308  H276  S    
C49   C135  A    
C56   N31   A    
C323  C340  A    
C27   C290  A    
C267  H210  S    
C253  H177  S    
C277  C278  S    
C111  C122  A    
N47   Ni3   S    
C195  H44   S    
C242  H153  S    
N11   N19   A    
C24   N4    A    
C336  H286  S    
C230  H123  S    
C287  H255  S    
C70   C87   A    
C220  C221  S    
C1    C34   A    
C13   N3    A    
C115  C132  A    
C94   C148  A    
C226  H111  S    
C296  C314  A    
C280  C281  S    
C2    H2    S    
C20   N29   S    
N3    Ni3   S    
C262  H199  S    
C204  H64   S    
C17   C350  A    
C229  H120  S    
C41   C320  A    
C217  C218  S    
C266  H209  S    
C251  H172  S    
C60   O63   S    
C19   C352  A    
C71   C88   A    
N10   N20   A    
C269  H215  S    
C172  H261  S    
C114  C131  A    
C76   O16   S    
C189  H30   S    
C255  H184  S    
N22   Ni5   S    
N5    N47   A    
C174  H263  S    
C275  H231  S    
C191  H32   S    
C66   C138  A    
C187  H26   S    
C209  C210  S    
C55   O34   S    
C100  C119  A    
C67   O7    S    
C219  H100  S    
C29   C292  A    
C42   C331  A    
C53   C125  A    
C299  C316  A    
C224  N24   A    
C176  O27   S    
C241  H149  S    
C85   N42   A    
C55   C127  A    
C202  H59   S    
C29   N38   S    
C58   N32   A    
C71   O10   S    
C17   C257  A    
C237  H140  S    
C229  H121  S    
C240  H148  S    
C25   N33   S    
C100  C154  A    
C259  H189  S    
C30   N41   S    
C50   C328  S    
C232  H129  S    
C312  C329  A    
C46   N6    A    
C207  H71   S    
C16   H317  S    
C248  H164  S    
C176  H318  S    
C108  C117  A    
C73   N30   A    
C143  C170  A    
C104  C158  A    
C282  H247  S    
C325  C343  A    
C110  C119  A    
C250  H171  S    
C333  C350  A    
C57   N7    A    
C177  H3    S    
C90   H90   S    
C253  H178  S    
C304  C322  A    
C121  C139  A    
C191  H33   S    
C56   O45   S    
C22   N31   S    
C238  H141  S    
C122  C140  A    
C335  C352  A    
C248  C249  S    
N14   N26   A    
C47   C168  A    
C312  H280  S    
C228  H118  S    
C321  C338  A    
C112  N12   A    
C272  H222  S    
N13   N18   A    
C142  O28   S    
C240  C241  S    
C254  H181  S    
C68   H68   S    
C246  N26   A    
C197  C198  S    
C245  H160  S    
C307  H275  S    
C74   N31   A    
C24   H24   S    
C199  H54   S    
C308  C326  A    
C344  H294  S    
C23   C286  A    
C79   H79   S    
C204  C205  S    
C131  C165  A    
C196  H47   S    
N48   Ni2   S    
C173  H262  S    
C64   N39   A    
N44   Ni2   S    
C195  H42   S    
C180  H8    S    
C231  H127  S    
C274  H227  S    
C233  O46   S    
C149  O35   S    
C19   C279  A    
C280  H241  S    
C276  O60   S    
C10   C28   A    
C14   H315  S    
C220  H103  S    
C221  H105  S    
C82   C99   A    
C70   O9    S    
C71   N28   A    
C203  H61   S    
C45   C324  S    
C262  H197  S    
C40   C318  S    
C263  C264  S    
C246  H246  S    
C213  C214  S    
C249  H167  S    
C338  H289  S    
C168  H168  S    
C223  N23   A    
C282  H244  S    
C285  C303  A    
C62   O2    S    
C62   C133  A    
C318  C336  A    
C304  H272  S    
N7    Ni4   S    
C227  H116  S    
C310  H278  S    
C255  H182  S    
C80   C97   A    
C81   N38   A    
C275  H229  S    
C124  N14   A    
C81   C98   A    
C266  O57   S    
C166  H256  S    
N17   N22   A    
C292  O57   S    
C221  H104  S    
C129  C163  A    
C248  H165  S    
C183  O29   S    
C6    C23   A    
C235  N25   A    
C215  H91   S    
C244  H156  S    
C114  C121  A    
C51   C212  A    
C229  H122  S    
C9    H311  S    
C72   O11   S    
C209  H77   S    
C36   C112  A    
C287  N34   A    
C252  H175  S    
C222  H107  S    
C182  H12   S    
C183  H16   S    
C340  H291  S    
C227  O43   S    
N11   Ni7   S    
C50   C146  A    
C69   C140  A    
C263  O55   S    
C194  C195  S    
C153  O39   S    
C326  C344  A    
C66   O6    S    
C185  H19   S    
C1    H1    S    
C15   C348  A    
C80   O19   S    
C84   O24   S    
C245  H161  S    
C282  H245  S    
C117  C134  A    
C261  H195  S    
C60   C131  A    
C216  O40   S    
C210  H80   S    
C209  H76   S    
C156  O42   S    
C214  H87   S    
C141  C167  A    
C28   N39   S    
C198  H52   S    
N18   Ni6   S    
C138  C172  A    
C207  C208  S    
C55   N30   A    
C243  O49   S    
C267  H211  S    
C40   C309  A    
C219  C220  S    
C188  H28   S    
C64   O4    S    
C236  H137  S    
C260  C261  S    
C206  H69   S    
C258  H188  S    
C320  H288  S    
C299  H267  S    
C143  O29   S    
C305  H273  S    
C17   N28   S    
C124  H124  S    
C48   C124  A    
C254  C255  S    
C345  H295  S    
C22   C285  A    
C328  C346  A    
C130  C166  A    
C109  C128  A    
C106  C125  A    
C264  H203  S    
C94   C111  A    
C78   O18   S    
C348  H298  S    
C251  H173  S    
C77   O17   S    
C97   C151  A    
C7    C340  A    
C3    C20   A    
C78   N36   A    
C97   C116  A    
C75   O15   S    
N3    N12   A    
N9    N21   A    
C273  H226  S    
C222  O42   S    
C194  H41   S    
C45   C101  A    
C256  H185  S    
C142  C169  A    
C208  H73   S    
C199  O35   S    
C192  H36   S    
C233  H131  S    
C249  H166  S    
C101  H101  S    
C132  C169  A    
C205  H66   S    
C197  H49   S    
C180  C181  S    
C9    C27   A    
C7    H308  S    
C188  H29   S    
C47   C113  A    
C238  C239  S    
C40   C57   A    
C12   C30   A    
C182  H14   S    
C331  N47   A    
C91   C108  A    
C232  H128  S    
C290  O54   S    
C28   C291  A    
C54   O23   S    
C125  C159  A    
C216  H93   S    
C116  C133  A    
N2    Ni1   S    
C6    H307  S    
N34   N48   A    
C7    C25   A    
C153  C162  A    
C257  O44   S    
C75   N32   A    
C289  C306  A    
C187  C188  S    
C215  H89   S    
C243  H154  S    
C244  H158  S    
C197  H48   S    
C152  O38   S    
C18   C351  A    
C267  C269  S    
C261  C262  S    
C156  C165  A    
C168  N18   A    
C4    H305  S    
C99   C153  A    
C273  O59   S    
C178  H6    S    
N21   Ni8   S    
C77   N35   A    
C230  C231  S    
C39   C317  S    
C148  C174  A    
C288  C305  A    
C33   C296  A    
C89   C107  A    
C293  C311  A    
N46   Ni4   S    
C294  C312  A    
C278  H238  S    
C185  H21   S    
C177  C178  S    
C258  C259  S    
C41   C319  S    
C270  C271  S    
C307  C325  A    
C149  C175  A    
C83   N40   A    
C320  N46   A    
C242  H152  S    
C284  O49   S    
C210  H78   S    
C60   N35   A    
C301  C318  A    
C200  H56   S    
C136  C170  A    
C203  C204  S    
C285  O50   S    
C198  H50   S    
C58   O56   S    
C237  O47   S    
C195  H43   S    
C11   C345  A    
C26   C289  A    
C139  C175  A    
C184  H17   S    
C167  H257  S    
C163  H252  S    
C65   O5    S    
C314  C332  A    
C239  H145  S    
C171  H260  S    
C59   C130  A    
C137  C173  A    
C284  C302  A    
C290  C307  A    
N17   Ni7   S    
C178  H5    S    
C220  H102  S    
N6    N46   A    
C21   C284  A    
C63   C134  A    
C133  C167  A    
C266  H208  S    
C155  O41   S    
C52   C123  A    
C123  C160  A    
C80   N37   A    
C63   O3    S    
C158  O43   S    
C181  C182  S    
C33   N42   S    
C269  H214  S    
C26   N37   S    
N19   Ni5   S    
C6    C339  A    
C148  O33   S    
C10   H312  S    
C322  C339  A    
C66   N41   A    
C109  C120  A    
C5    C22   A    
C48   C326  S    
C187  H25   S    
C41   C46   A    
N16   Ni8   S    
C96   C115  A    
C93   C147  A    
C95   C149  A    
C52   N27   A    
C227  H117  S    
C87   C105  A    
C23   N35   S    
C255  H183  S    
C224  H224  S    
C83   O22   S    
C202  H60   S    
C201  N21   A    
C127  C161  A    
C9    C343  A    
C352  H303  S    
C5    C338  A    
C247  O50   S    
N8    Ni3   S    
C34   C322  S    
C193  H39   S    
C271  H219  S    
C182  H11   S    
C303  H271  S    
C237  H139  S    
C88   C142  A    
C276  H233  S    
C288  O52   S    
C260  H194  S    
C253  O52   S    
C259  H192  S    
C296  O61   S    
C36   C323  S    
C222  H108  S    
C310  C327  A    
C202  H58   S    
C119  C137  A    
C234  H134  S    
C154  C163  A    
C186  H22   S    
N13   Ni8   S    
C243  H155  S    
C216  C217  S    
C73   C91   A    
C351  H302  S    
C49   C327  S    
C281  H243  S    
C214  C215  S    
C21   N32   S    
C311  H279  S    
C159  H248  S    
C194  H40   S    
C211  H82   S    
C281  C282  S    
C161  H250  S    
C181  H10   S    
C77   C95   A    
C279  C300  A    
N8    N44   A    
C146  N16   A    
C295  O60   S    
C270  H216  S    
C238  H142  S    
C177  H320  S    
C235  H235  S    
C16   C33   A    
C65   N40   A    
C88   C106  A    
C226  H115  S    
C343  H293  S    
N24   Ni6   S    
C239  H144  S    
C234  H133  S    
N45   Ni1   S    
C86   O26   S    
C10   C344  A    
N26   Ni7   S    
C102  C155  A    
C85   O25   S    
C225  C226  S    
C16   C349  A    
C276  C277  S    
C245  H159  S    
C61   N36   A    
C112  H112  S    
C199  H53   S    
C218  H97   S    
C38   C342  A    
C213  H84   S    
C179  N19   A    
C70   N27   A    
C12   C346  A    
C176  C177  S    
C230  O44   S    
C230  H125  S    
C134  C171  A    
C141  O27   S    
C341  H292  S    
C61   O64   S    
C309  H277  S    
C294  O59   S    
C213  O39   S    
C280  O61   S    
C274  H228  S    
C219  H99   S    
C339  H290  S    
C98   C117  A    
C91   C144  A    
C272  H220  S    
C257  C297  A    
C212  H212  S    
C47   C325  S    
C13   H13   S    
C208  H75   S    
C225  H109  S    
C92   C145  A    
C347  H297  S    
C280  H240  S    
C252  H176  S    
C3    H304  S    
C160  H249  S    
C107  C126  A    
C12   H314  S    
C44   C332  S    
C165  H254  S    
C42   C321  S    
C309  N45   A    
C263  H200  S    
C262  H198  S    
C204  H63   S    
C150  O36   S    
C300  C317  A    
C334  H284  S    
C256  O53   S    
C63   N38   A    
C151  C160  A    
C79   N9    A    
C32   N43   S    
C8    H309  S    
C335  H285  S    
C189  H31   S    
C218  H96   S    
C99   C118  A    
C18   C268  A    
C4    C21   A    
C2    C37   A    
C297  C315  A    
C216  H92   S    
C317  C335  A    
C3    C336  A    
C277  H234  S    
C101  N11   A    
C301  H269  S    
C300  H268  S    
C108  C127  A    
C306  C324  A    
C53   N28   A    
C237  C238  S    
C250  C251  S    
C292  C310  A    
C266  C267  S    
C45   C179  A    
C1    N1    A    
C241  H150  S    
C158  C166  A    
C190  H190  S    
C196  H45   S    
C11   C29   A    
C140  C174  A    
C210  C211  S    
C59   O62   S    
C306  H274  S    
C231  C232  S    
C349  H300  S    
C254  H180  S    
C162  H251  S    
C226  H114  S    
C72   C89   A    
C27   N36   S    
C183  H15   S    
C126  C162  A    
C164  H253  S    
C240  H147  S    
C316  C334  A    
C38   C287  A    
C273  C274  S    
