data_mof_unit_18580.cif
_audit_creation_date              2012-12-10T17:31:05-0500
_audit_creation_method            fapswitch 2.2
_symmetry_space_group_name_H-M    P1
_symmetry_Int_Tables_number       1
_space_group_crystal_system       triclinic
_cell_length_a                    12.002562
_cell_length_b                    12.891884
_cell_length_c                    15.481111
_cell_angle_alpha                 87.276275
_cell_angle_beta                  115.47369
_cell_angle_gamma                 93.32477
_cell_volume                      2158.28047473

loop_
_atom_site_label
_atom_site_type_symbol
_atom_type_description
_atom_site_fract_x
_atom_site_fract_y
_atom_site_fract_z
_atom_type_partial_charge
C1    C     C_R   0.477256 0.299486 0.498305 0.896851
C2    C     C_R   0.642749 0.970594 0.487973 -0.202205
C3    C     C_R   0.364269 0.136887 0.508216 -0.178268
C4    C     C_R   0.635781 0.863083 0.491875 -0.178775
C5    C     C_R   0.555684 0.132754 0.489960 -0.270505
C6    C     C_R   0.444415 0.867215 0.510205 -0.270241
C7    C     C_R   0.549946 0.025993 0.494386 0.177071
C8    C     C_R   0.450159 0.973974 0.505790 0.176986
C9    C     C_R   0.003587 0.599754 0.408961 -0.085754
C10   C     C_R   0.996678 0.400771 0.591409 -0.092023
C11   C     C_R   0.123767 0.587305 0.417502 -0.088672
C12   C     C_R   0.522754 0.700509 0.501717 0.894488
C13   C     C_R   0.876398 0.412978 0.582714 -0.090138
C14   C     C_R   0.162696 0.460197 0.541102 -0.019286
C15   C     C_R   0.837325 0.539925 0.458951 -0.016036
C16   C     C_R   0.576352 0.496731 0.680454 0.878637
C17   C     C_R   0.424241 0.507522 0.319646 0.879528
C18   C     C_R   0.040496 0.464256 0.533533 0.027508
C19   C     C_R   0.959611 0.536051 0.466636 0.029766
C20   C     C_R   0.624147 0.511057 0.783407 -0.060928
C21   C     C_R   0.380569 0.527509 0.216883 -0.060510
C22   C     C_R   0.789940 0.546489 0.939116 -0.197156
C23   C     C_R   0.654644 0.585561 0.108458 -0.215642
C24   C     C_R   0.219969 0.561999 0.058673 -0.199121
C25   C     C_R   0.750711 0.522908 0.843050 -0.196592
C26   C     C_R   0.255675 0.540425 0.155916 -0.198311
C27   C     C_R   0.538220 0.523568 0.819977 -0.249077
C28   C     C_R   0.469059 0.539915 0.180956 -0.247905
C29   C     C_R   0.574796 0.553990 0.913617 0.090667
C30   C     C_R   0.436238 0.564950 0.084873 0.094348
C31   C     C_R   0.702735 0.561051 0.975059 0.179624
C32   C     C_R   0.309138 0.571887 0.022376 0.178670
C33   C     C_R   0.486504 0.570925 0.948733 0.070058
C34   C     C_R   0.359795 0.583160 0.887590 -0.221559
C35   C     C_R   0.526357 0.574584 0.048553 0.068037
C36   C     C_2   0.931293 0.681580 0.340249 0.330615
C37   C     C_2   0.069499 0.319664 0.660766 0.352632
C38   C     C_R   0.741320 0.580841 0.071573 -0.232542
C39   C     C_R   0.272882 0.585701 0.924386 -0.233828
C40   C     C_R   0.535995 0.811801 0.502189 -0.067971
C41   C     C_R   0.464057 0.188175 0.497904 -0.070357
C42   C     C_R   0.357340 0.029373 0.512177 -0.202119
H1    H     H_    0.838769 0.588737 0.119396 0.134762
H2    H     H_    0.122783 0.568991 0.011633 0.129047
H3    H     H_    0.690265 0.600315 0.183882 0.162476
H4    H     H_    0.325865 0.593108 0.810955 0.150651
H5    H     H_    0.367663 0.827523 0.519124 0.166438
H6    H     H_    0.632448 0.172441 0.481057 0.167101
H7    H     H_    0.706888 0.820361 0.485490 0.190089
H8    H     H_    0.293124 0.179607 0.514545 0.190125
H9    H     H_    0.280410 0.989741 0.520729 0.155073
H10   H     H_    0.719676 0.010224 0.479416 0.155419
H11   H     H_    0.770576 0.589420 0.406374 0.181551
H12   H     H_    0.176449 0.593744 0.875614 0.146033
H13   H     H_    0.229390 0.410607 0.593596 0.186063
H14   H     H_    0.948193 0.701307 0.277837 0.067640
H15   H     H_    0.053432 0.301074 0.723726 0.070530
H16   H     H_    0.842525 0.366220 0.627093 0.129746
H17   H     H_    0.157747 0.634161 0.373240 0.128652
H18   H     H_    0.563785 0.525458 0.228467 0.158972
H19   H     H_    0.441900 0.507101 0.774570 0.160660
H20   H     H_    0.186023 0.532731 0.183024 0.151767
H21   H     H_    0.818714 0.514487 0.815545 0.152940
H22   H     H_    0.888028 0.553419 0.985188 0.128610
N1    N     N_R   0.799120 0.480200 0.517090 -0.106320
N2    N     N_R   0.200880 0.519800 0.482910 -0.106991
O1    O     O_R   0.580150 0.341050 0.504560 -0.621756
O2    O     O_2   0.141444 0.268209 0.645986 -0.582767
O3    O     O_R   0.419850 0.658950 0.495440 -0.623544
O4    O     O_R   0.388090 0.353760 0.493600 -0.615188
O5    O     O_R   0.611910 0.646240 0.506400 -0.617365
O6    O     O_R   0.650890 0.490020 0.640860 -0.618856
O7    O     O_R   0.349110 0.509980 0.359140 -0.617898
O8    O     O_R   0.458830 0.502730 0.629890 -0.623882
O9    O     O_R   0.541170 0.497270 0.370110 -0.623683
O10   O     O_2   0.858760 0.732329 0.354970 -0.585226
Zn1   Zn    Zn3+2 0.628240 0.491510 0.507320 0.949448
Zn2   Zn    Zn3+2 0.371760 0.508490 0.492680 0.949717

loop_
_geom_bond_atom_site_label_1
_geom_bond_atom_site_label_2
_ccdc_geom_bond_type
C12   O3    A    
C3    C42   A    
C23   H3    S    
O4    Zn2   S    
C14   C18   A    
C2    C7    A    
O1    Zn1   S    
C21   C26   A    
C7    C8    A    
C13   N1    A    
C15   C19   A    
C30   C35   A    
C10   C37   S    
C16   O8    A    
C15   H11   S    
C24   C26   A    
C39   H12   S    
C27   C29   A    
C20   C25   A    
C15   N1    A    
C37   O2    D    
C29   C33   A    
C18   C19   A    
C25   H21   S    
C32   C39   A    
C27   H19   S    
C1    O1    A    
C9    C19   A    
C4    C40   A    
C22   C25   A    
C16   O6    A    
C9    C36   S    
O7    Zn2   S    
C34   H4    S    
C36   O10   D    
C11   N2    A    
C42   H9    S    
C14   H13   S    
C17   O7    A    
O3    Zn2   S    
C11   H17   S    
C3    H8    S    
C28   H18   S    
N2    Zn2   S    
C5    H6    S    
N1    Zn1   S    
C22   C31   A    
C34   C39   A    
C6    H5    S    
C5    C7    A    
C6    C8    A    
C13   H16   S    
C17   C21   S    
C12   C40   S    
C2    C4    A    
C24   C32   A    
O6    Zn1   S    
C36   H14   S    
C9    C11   A    
C16   C20   S    
C33   C34   A    
C14   N2    A    
O9    Zn1   S    
C2    H10   S    
C1    C41   S    
C12   O5    A    
C23   C35   A    
C24   H2    S    
C6    C40   A    
O5    Zn1   S    
C5    C41   A    
C3    C41   A    
C21   C28   A    
C8    C42   A    
C10   C13   A    
C20   C27   A    
C23   C38   A    
C1    O4    A    
C31   C38   A    
C4    H7    S    
C28   C30   A    
C26   H20   S    
C38   H1    S    
C29   C31   A    
C30   C32   A    
C10   C18   A    
C33   C35   A    
C22   H22   S    
O8    Zn2   S    
C17   O9    A    
C37   H15   S    
