data_mof_unit_16280.cif
_audit_creation_date              2012-12-11T15:35:24-0500
_audit_creation_method            fapswitch 2.2
_symmetry_space_group_name_H-M    P1
_symmetry_Int_Tables_number       1
_space_group_crystal_system       monoclinic
_cell_length_a                    17.362592
_cell_length_b                    24.273854
_cell_length_c                    14.795992
_cell_angle_alpha                 90.0
_cell_angle_beta                  124.586757
_cell_angle_gamma                 90.0
_cell_volume                      5133.79360072

loop_
_atom_site_label
_atom_site_type_symbol
_atom_type_description
_atom_site_fract_x
_atom_site_fract_y
_atom_site_fract_z
_atom_type_partial_charge
C1    C     C_R   0.308937 0.122555 0.908786 -0.195920
C2    C     C_R   0.308937 0.877445 0.908786 -0.195919
C3    C     C_R   0.808937 0.622555 0.908787 -0.195920
C4    C     C_R   0.808937 0.377445 0.908786 -0.195920
C5    C     C_R   0.648321 0.151553 0.090720 -0.066333
C6    C     C_R   0.648321 0.848447 0.090720 -0.066327
C7    C     C_R   0.148321 0.651553 0.090720 -0.066329
C8    C     C_R   0.148321 0.348447 0.090720 -0.066329
C9    C     C_R   0.556867 0.847777 0.908882 -0.138387
C10   C     C_R   0.556867 0.152223 0.908882 -0.138388
C11   C     C_R   0.056867 0.347777 0.908882 -0.138387
C12   C     C_R   0.056867 0.652223 0.908882 -0.138387
C13   C     C_R   0.552110 1.000000 0.726735 0.040324
C14   C     C_R   0.052110 0.500000 0.726735 0.040323
C15   C     C_R   0.812339 0.000003 0.353611 -0.194228
C16   C     C_R   0.312339 0.500000 0.353610 -0.194231
C17   C     C_R   0.617686 0.183803 0.999173 0.023732
C18   C     C_R   0.617686 0.816196 0.999173 0.023731
C19   C     C_R   0.117686 0.683803 0.999173 0.023731
C20   C     C_R   0.117686 0.316196 0.999173 0.023731
C21   C     C_3   0.052934 0.999989 0.621510 -0.416305
C22   C     C_3   0.063783 0.051532 0.479837 -0.419550
C23   C     C_3   0.552933 0.500001 0.621510 -0.416304
C24   C     C_3   0.563784 0.551520 0.479818 -0.419504
C25   C     C_3   0.946229 0.999967 0.545241 -0.337173
C26   C     C_3   0.956943 0.051642 0.403923 -0.371343
C27   C     C_3   0.446229 0.500002 0.545241 -0.337173
C28   C     C_3   0.456946 0.551617 0.403867 -0.371397
C29   C     C_3   0.063786 0.948490 0.479802 -0.419455
C30   C     C_3   0.563784 0.448478 0.479823 -0.419508
C31   C     C_3   0.097003 0.000004 0.554421 0.386110
C32   C     C_3   0.597002 0.500000 0.554422 0.386113
C33   C     C_3   0.915668 0.000004 0.425383 0.368809
C34   C     C_3   0.415668 0.499999 0.425383 0.368811
C35   C     C_R   0.404825 0.870096 0.092447 0.444155
C36   C     C_R   0.404826 0.129905 0.092447 0.444155
C37   C     C_R   0.904825 0.370095 0.092447 0.444155
C38   C     C_R   0.904825 0.629904 0.092447 0.444155
C39   C     C_3   0.956948 0.948404 0.403816 -0.371437
C40   C     C_3   0.456946 0.448380 0.403874 -0.371392
C41   C     C_R   0.165225 0.808321 0.896775 -0.159183
C42   C     C_R   0.165225 0.191679 0.896775 -0.159183
C43   C     C_R   0.665226 0.308321 0.896775 -0.159184
C44   C     C_R   0.665225 0.691679 0.896775 -0.159183
C45   C     C_R   0.616198 0.263771 0.896477 -0.157738
C46   C     C_R   0.616198 0.736229 0.896477 -0.157738
C47   C     C_R   0.116198 0.763770 0.896477 -0.157737
C48   C     C_R   0.116198 0.236229 0.896477 -0.157739
C49   C     C_R   0.640017 0.241263 0.996331 0.134777
C50   C     C_R   0.640017 0.758736 0.996331 0.134776
C51   C     C_R   0.140017 0.741264 0.996331 0.134776
C52   C     C_R   0.140016 0.258736 0.996331 0.134777
C53   C     C_R   0.697108 0.271256 0.093590 -0.152560
C54   C     C_R   0.697108 0.728744 0.093590 -0.152559
C55   C     C_R   0.197108 0.771256 0.093590 -0.152559
C56   C     C_R   0.197108 0.228744 0.093590 -0.152559
C57   C     C_R   0.244674 0.817089 0.093191 -0.104526
C58   C     C_R   0.244674 0.182911 0.093191 -0.104529
C59   C     C_R   0.744674 0.317089 0.093191 -0.104528
C60   C     C_R   0.744674 0.682911 0.093191 -0.104526
C61   C     C_R   0.238159 0.830677 0.997005 0.152432
C62   C     C_R   0.238159 0.169323 0.997005 0.152434
C63   C     C_R   0.738159 0.330677 0.997005 0.152433
C64   C     C_R   0.738159 0.669323 0.997005 0.152432
C65   C     C_R   0.610997 0.950154 0.631494 -0.168173
C66   C     C_R   0.610998 0.049846 0.631495 -0.168175
C67   C     C_R   0.110997 0.450154 0.631494 -0.168174
C68   C     C_R   0.110997 0.549846 0.631494 -0.168173
C69   C     C_R   0.614184 0.950124 0.540091 -0.132546
C70   C     C_R   0.614185 0.049875 0.540092 -0.132545
C71   C     C_R   0.114185 0.450124 0.540091 -0.132547
C72   C     C_R   0.114184 0.549876 0.540091 -0.132547
C73   C     C_R   0.605371 1.000000 0.487133 0.143789
C74   C     C_R   0.105371 0.500000 0.487133 0.143789
C75   C     C_R   0.551668 0.045177 0.305738 -0.037309
C76   C     C_R   0.551669 0.954823 0.305738 -0.037324
C77   C     C_R   0.051669 0.545177 0.305738 -0.037317
C78   C     C_R   0.051669 0.454823 0.305738 -0.037317
C79   C     C_R   0.598081 1.000000 0.669063 0.131531
C80   C     C_R   0.098080 0.500000 0.669063 0.131531
C81   C     C_R   0.246385 0.954161 0.695721 -0.148240
C82   C     C_R   0.246388 0.045841 0.695724 -0.148216
C83   C     C_R   0.746387 0.454160 0.695723 -0.148229
C84   C     C_R   0.746386 0.545840 0.695723 -0.148230
C85   C     C_R   0.313219 0.139365 0.001138 -0.069743
C86   C     C_R   0.313219 0.860635 0.001137 -0.069741
C87   C     C_R   0.813219 0.639365 0.001138 -0.069742
C88   C     C_R   0.813219 0.360635 0.001138 -0.069742
C89   C     C_R   0.569089 1.000000 0.370554 -0.036427
C90   C     C_R   0.069089 0.500000 0.370554 -0.036427
C91   C     C_R   0.198422 0.000002 0.634137 0.011683
C92   C     C_R   0.698422 0.500000 0.634138 0.011686
C93   C     C_R   0.519941 0.045877 0.751895 -0.118062
C94   C     C_R   0.519941 0.954122 0.751895 -0.118060
C95   C     C_R   0.019941 0.545877 0.751895 -0.118060
C96   C     C_R   0.019941 0.454123 0.751895 -0.118061
C97   C     C_R   0.759082 0.953872 0.298819 0.371452
C98   C     C_R   0.759078 0.046131 0.298817 0.371447
C99   C     C_R   0.259080 0.453870 0.298818 0.371451
C100  C     C_R   0.259080 0.546129 0.298818 0.371451
H1    H     H_    0.250114 0.124322 0.824410 0.121257
H2    H     H_    0.250114 0.875679 0.824409 0.121256
H3    H     H_    0.750114 0.624322 0.824410 0.121256
H4    H     H_    0.750114 0.375678 0.824410 0.121256
H5    H     H_    0.076234 0.036936 0.675583 0.166681
H6    H     H_    0.086130 0.090094 0.528884 0.162131
H7    H     H_    0.576254 0.536945 0.675593 0.166667
H8    H     H_    0.586108 0.590085 0.528854 0.162149
H9    H     H_    0.918130 0.036959 0.561773 0.195803
H10   H     H_    0.932961 0.090368 0.419819 0.224554
H11   H     H_    0.418154 0.537017 0.561742 0.195849
H12   H     H_    0.432940 0.590359 0.419677 0.224537
H13   H     H_    0.918179 0.962930 0.561715 0.195891
H14   H     H_    0.934140 0.052383 0.316798 0.159176
H15   H     H_    0.418154 0.462988 0.561746 0.195843
H16   H     H_    0.434170 0.552315 0.316752 0.159166
H17   H     H_    0.932920 0.909648 0.419547 0.224516
H18   H     H_    0.934195 0.947745 0.316708 0.159153
H19   H     H_    0.432941 0.409639 0.419692 0.224539
H20   H     H_    0.434168 0.447677 0.316759 0.159168
H21   H     H_    0.151848 0.820335 0.818874 0.116906
H22   H     H_    0.151847 0.179664 0.818874 0.116904
H23   H     H_    0.651848 0.320335 0.818874 0.116905
H24   H     H_    0.651847 0.679664 0.818874 0.116905
H25   H     H_    0.568151 0.243834 0.818614 0.117927
H26   H     H_    0.568150 0.756166 0.818614 0.117927
H27   H     H_    0.068151 0.743834 0.818614 0.117927
H28   H     H_    0.068150 0.256166 0.818614 0.117926
H29   H     H_    0.711063 0.257225 0.170927 0.141004
H30   H     H_    0.711063 0.742774 0.170927 0.141005
H31   H     H_    0.211063 0.757225 0.170926 0.141005
H32   H     H_    0.211063 0.242775 0.170927 0.141005
H33   H     H_    0.291750 0.838517 0.169503 0.169759
H34   H     H_    0.291751 0.161483 0.169504 0.169758
H35   H     H_    0.791751 0.338517 0.169504 0.169759
H36   H     H_    0.791750 0.661483 0.169504 0.169759
H37   H     H_    0.608058 0.910881 0.663831 0.119726
H38   H     H_    0.608060 0.089118 0.663833 0.119727
H39   H     H_    0.108060 0.410882 0.663833 0.119726
H40   H     H_    0.108058 0.589119 0.663832 0.119726
H41   H     H_    0.576422 0.086152 0.335889 0.197207
H42   H     H_    0.576426 0.913848 0.335890 0.197195
H43   H     H_    0.076424 0.586152 0.335889 0.197200
H44   H     H_    0.076424 0.413848 0.335889 0.197201
H45   H     H_    0.530323 0.088664 0.742097 0.098285
H46   H     H_    0.530323 0.911336 0.742097 0.098285
H47   H     H_    0.030323 0.588664 0.742097 0.098285
H48   H     H_    0.030323 0.411336 0.742097 0.098285
H49   H     H_    0.686858 0.165684 0.174418 0.172888
H50   H     H_    0.686857 0.834315 0.174418 0.172888
H51   H     H_    0.186857 0.665685 0.174418 0.172889
H52   H     H_    0.186858 0.334315 0.174418 0.172889
H53   H     H_    0.076276 0.963050 0.675606 0.166655
H54   H     H_    0.093951 0.051770 0.430582 0.170222
H55   H     H_    0.576253 0.463059 0.675596 0.166668
H56   H     H_    0.593978 0.551758 0.430589 0.170201
N1    N     N_R   0.392140 0.102630 0.941800 -0.060629
N2    N     N_R   0.392140 0.897370 0.941800 -0.060628
N3    N     N_R   0.892140 0.602630 0.941800 -0.060628
N4    N     N_R   0.892140 0.397370 0.941800 -0.060629
N5    N     N_R   0.450890 0.896450 0.057150 -0.073813
N6    N     N_R   0.450890 0.103550 0.057150 -0.073810
N7    N     N_R   0.950890 0.396450 0.057150 -0.073811
N8    N     N_R   0.950890 0.603550 0.057150 -0.073812
N9    N     N_R   0.525160 0.027960 0.206160 -0.061130
N10   N     N_R   0.525160 0.972040 0.206160 -0.061133
N11   N     N_R   0.025160 0.527960 0.206160 -0.061131
N12   N     N_R   0.025160 0.472040 0.206160 -0.061131
N13   N     N_R   0.317870 0.971120 0.792790 -0.036189
N14   N     N_R   0.317870 0.028880 0.792790 -0.036191
N15   N     N_R   0.817870 0.471120 0.792790 -0.036190
N16   N     N_R   0.817870 0.528880 0.792790 -0.036190
N17   N     N_R   0.473480 0.027920 0.793480 -0.040860
N18   N     N_R   0.473480 0.972080 0.793480 -0.040859
N19   N     N_R   0.973480 0.527920 0.793480 -0.040860
N20   N     N_R   0.973480 0.472080 0.793480 -0.040860
N21   N     N_R   0.681610 0.971120 0.207570 -0.100211
N22   N     N_R   0.681610 0.028880 0.207570 -0.100211
N23   N     N_R   0.181610 0.471120 0.207570 -0.100211
N24   N     N_R   0.181610 0.528880 0.207570 -0.100211
N25   N     N_R   0.605410 0.102620 0.056870 -0.045001
N26   N     N_R   0.605410 0.897380 0.056870 -0.045003
N27   N     N_R   0.105410 0.602620 0.056870 -0.045002
N28   N     N_R   0.105410 0.397380 0.056870 -0.045002
N29   N     N_R   0.549680 0.896430 0.944180 -0.047703
N30   N     N_R   0.549680 0.103570 0.944180 -0.047704
N31   N     N_R   0.049680 0.396430 0.944180 -0.047703
N32   N     N_R   0.049680 0.603570 0.944180 -0.047704
Ni1   Ni    Ni4+2 0.433410 0.064680 0.868830 0.207909
Ni2   Ni    Ni4+2 0.433410 0.935320 0.868830 0.207911
Ni3   Ni    Ni4+2 0.933410 0.564680 0.868830 0.207911
Ni4   Ni    Ni4+2 0.933410 0.435320 0.868830 0.207910
Ni5   Ni    Ni4+2 0.565650 0.934380 0.131170 0.278179
Ni6   Ni    Ni4+2 0.565650 0.065620 0.131170 0.278186
Ni7   Ni    Ni4+2 0.065650 0.434380 0.131170 0.278183
Ni8   Ni    Ni4+2 0.065650 0.565620 0.131170 0.278182
H57   H     H_    0.086089 0.909922 0.528830 0.162162
H58   H     H_    0.094003 0.948250 0.430599 0.170180
H59   H     H_    0.586109 0.409913 0.528863 0.162147
H60   H     H_    0.593977 0.448237 0.430593 0.170203
Cl1   Cl    Cl    0.462294 0.834409 0.217911 -0.706462
Cl2   Cl    Cl    0.462295 0.165592 0.217910 -0.706453
Cl3   Cl    Cl    0.962295 0.334409 0.217911 -0.706459
Cl4   Cl    Cl    0.962294 0.665591 0.217911 -0.706457
H61   H     H_    0.613188 0.910783 0.505277 0.145591
H62   H     H_    0.613191 0.089216 0.505279 0.145594
H63   H     H_    0.113189 0.410784 0.505278 0.145592
H64   H     H_    0.113188 0.589217 0.505278 0.145593
H65   H     H_    0.233395 0.911578 0.670120 0.097237
H66   H     H_    0.233411 0.088425 0.670128 0.097232
H67   H     H_    0.733403 0.411576 0.670125 0.097235
H68   H     H_    0.733401 0.588424 0.670125 0.097235
Cl5   Cl    Cl    0.764095 0.891641 0.362737 -0.724842
Cl6   Cl    Cl    0.764066 0.108358 0.362730 -0.724841
Cl7   Cl    Cl    0.264080 0.391641 0.362733 -0.724843
Cl8   Cl    Cl    0.264083 0.608359 0.362733 -0.724843
H69   H     H_    0.509193 0.833961 0.825240 0.098405
H70   H     H_    0.509193 0.166039 0.825240 0.098404
H71   H     H_    0.009193 0.333961 0.825240 0.098404
H72   H     H_    0.009193 0.666039 0.825240 0.098405

loop_
_geom_bond_atom_site_label_1
_geom_bond_atom_site_label_2
_ccdc_geom_bond_type
C68   C80   A    
C38   C87   A    
C30   H60   S    
C58   C62   A    
C82   N14   A    
C94   H46   S    
N9    N10   A    
C65   C79   A    
C23   H55   S    
C63   C88   S    
N13   N14   A    
C37   C88   A    
C81   H65   S    
N10   Ni5   S    
C41   C61   A    
N15   N16   A    
N9    Ni6   S    
C13   C79   S    
C53   C59   A    
C43   C63   A    
N29   Ni2   S    
C72   H64   S    
C54   C60   A    
N17   N18   A    
C44   C64   A    
C83   C92   A    
C21   C31   S    
N14   Ni1   S    
C18   C50   S    
C35   N5    A    
N21   Ni5   S    
C6    N26   A    
N32   Ni3   S    
C34   C40   S    
C26   H14   S    
C8    H52   S    
C28   H12   S    
C9    N29   A    
N2    Ni2   S    
N19   Ni3   S    
C84   H68   S    
C35   C86   A    
C49   C53   A    
N20   Ni4   S    
C5    C17   A    
C2    H2    S    
C10   C17   A    
C3    H3    S    
C66   H38   S    
C12   N32   A    
C5    H49   S    
N11   Ni8   S    
C41   H21   S    
C95   N19   A    
C76   H42   S    
C21   C25   S    
C28   H16   S    
N2    N5    A    
C16   C34   S    
C52   C56   A    
C33   C39   S    
N5    Ni5   S    
C45   H25   S    
N12   Ni7   S    
C83   N15   A    
N17   Ni1   S    
C76   N10   A    
C24   H8    S    
C55   H31   S    
C23   C27   S    
C98   N22   A    
C67   H39   S    
C26   H10   S    
C64   C87   S    
C51   C55   A    
N24   Ni8   S    
C2    N2    A    
C76   C89   A    
C37   N7    A    
C65   H37   S    
C8    N28   A    
C71   H63   S    
C30   H59   S    
C98   Cl6   S    
C27   H11   S    
N16   Ni3   S    
C77   H43   S    
C38   Cl4   S    
C77   N11   A    
C36   N6    A    
C57   H33   S    
C36   Cl2   S    
N13   Ni2   S    
C15   C97   A    
C96   H48   S    
C14   C96   A    
C93   N17   A    
C44   C46   A    
N27   Ni8   S    
C27   C34   S    
C37   Cl3   S    
C54   H30   S    
C62   C85   S    
C77   C90   A    
C22   C31   S    
C3    C87   A    
N4    N7    A    
N3    Ni3   S    
C95   H47   S    
N4    Ni4   S    
C72   C74   A    
C17   C49   S    
N11   N12   A    
C16   C100  A    
N23   Ni7   S    
C32   C92   S    
C39   H17   S    
C78   N12   A    
C11   C20   A    
C44   H24   S    
N28   Ni7   S    
C58   H34   S    
C82   C91   A    
C46   H26   S    
C13   C93   A    
N26   N29   A    
C81   C91   A    
C42   C48   A    
C24   C32   S    
C99   N23   A    
C66   C79   A    
C78   H44   S    
C48   H28   S    
N22   Ni6   S    
C26   C33   S    
C97   N21   A    
N19   N20   A    
C5    N25   A    
N7    Ni7   S    
C68   C72   A    
C23   H7    S    
N6    Ni6   S    
C70   C73   A    
C75   H41   S    
C45   C49   A    
C41   C47   A    
C30   C40   S    
C75   N9    A    
N26   Ni5   S    
C50   C54   A    
C69   C73   A    
N25   Ni6   S    
C43   C45   A    
N31   Ni4   S    
C56   H32   S    
C42   C62   A    
C66   C70   A    
C7    H51   S    
C25   H13   S    
N15   Ni4   S    
C8    C20   A    
N18   Ni2   S    
N21   N22   A    
C1    H1    S    
C7    C19   A    
C14   C80   S    
C55   C57   A    
C6    C18   A    
C11   N31   A    
C59   C63   A    
C68   H40   S    
C1    C85   A    
C53   H29   S    
C15   C98   A    
C100  N24   A    
C11   H71   S    
C14   C95   A    
C10   H70   S    
C22   H54   S    
C9    H69   S    
C29   C39   S    
C60   H36   S    
C100  Cl8   S    
C96   N20   A    
C40   H20   S    
C43   H23   S    
C94   N18   A    
C35   Cl1   S    
C67   C80   A    
C24   C28   S    
C31   C91   S    
C84   N16   A    
C71   C74   A    
C47   C51   A    
N25   N30   A    
N8    Ni8   S    
C16   C99   A    
C57   C61   A    
C4    C88   A    
C25   H9    S    
C36   C85   A    
C70   H62   S    
C39   H18   S    
C46   C50   A    
C69   H61   S    
C81   N13   A    
N28   N31   A    
C7    N27   A    
C13   C94   A    
C60   C64   A    
C23   C32   S    
C74   C90   S    
N30   Ni1   S    
C1    N1    A    
C40   H19   S    
C73   C89   S    
C20   C52   S    
C22   H6    S    
N27   N32   A    
C30   C32   S    
C4    N4    A    
C12   H72   S    
C99   Cl7   S    
C47   H27   S    
C78   C90   A    
C65   C69   A    
C4    H4    S    
C12   C19   A    
C59   H35   S    
C10   N30   A    
C56   C58   A    
C42   H22   S    
C2    C86   A    
C67   C71   A    
C93   H45   S    
N1    Ni1   S    
C61   C86   S    
C75   C89   A    
C3    N3    A    
C28   C34   S    
N23   N24   A    
C6    H50   S    
C19   C51   S    
C9    C18   A    
C48   C52   A    
C29   H57   S    
C38   N8    A    
C29   C31   S    
C29   H58   S    
C22   C26   S    
C21   H53   S    
N3    N8    A    
C97   Cl5   S    
C84   C92   A    
N1    N6    A    
C15   C33   S    
C83   H67   S    
C21   H5    S    
C24   H56   S    
C25   C33   S    
C82   H66   S    
C27   H15   S    
