data_mof_unit_7145.cif
_audit_creation_date              2012-12-10T17:55:58-0500
_audit_creation_method            fapswitch 2.2
_symmetry_space_group_name_H-M    P1
_symmetry_Int_Tables_number       1
_space_group_crystal_system       triclinic
_cell_length_a                    18.394467
_cell_length_b                    18.32702
_cell_length_c                    25.992789
_cell_angle_alpha                 89.967459
_cell_angle_beta                  90.081306
_cell_angle_gamma                 90.017047
_cell_volume                      8762.56831608

loop_
_atom_site_label
_atom_site_type_symbol
_atom_type_description
_atom_site_fract_x
_atom_site_fract_y
_atom_site_fract_z
_atom_type_partial_charge
C1    C     C_R   0.139932 0.859556 0.250076 0.524805
C2    C     C_R   0.260706 0.815877 0.223930 -0.172797
C3    C     C_3   0.903233 0.640592 0.630560 -0.270596
C4    C     C_3   0.906078 0.637486 0.571918 -0.499286
C5    C     C_3   0.874868 0.703475 0.352931 0.026064
C6    C     C_3   0.849460 0.680350 0.406600 -0.270450
C7    C     C_3   0.887580 0.610866 0.424475 -0.496378
C8    C     C_3   0.624206 0.199625 0.148640 0.026846
C9    C     C_3   0.650586 0.176661 0.095196 -0.273580
C10   C     C_3   0.624418 0.100161 0.081294 -0.500148
C11   C     C_3   0.631755 0.222884 0.858176 0.019412
C12   C     C_3   0.605946 0.149814 0.879914 -0.268104
C13   C     C_R   0.737055 0.818075 0.772430 -0.166949
C14   C     C_3   0.607814 0.149515 0.938616 -0.499645
C15   C     C_3   0.378855 0.216046 0.149291 0.023004
C16   C     C_3   0.403124 0.140910 0.130350 -0.270697
C17   C     C_3   0.406205 0.138135 0.071706 -0.499266
C18   C     C_3   0.374895 0.203433 0.852904 0.026069
C19   C     C_3   0.349491 0.180282 0.906568 -0.270459
C20   C     C_3   0.387575 0.110761 0.924410 -0.496352
C21   C     C_3   0.812870 0.187028 0.371663 0.033683
C22   C     C_3   0.767157 0.224840 0.413011 -0.283398
C23   C     C_3   0.745555 0.171833 0.455608 -0.478744
C24   C     C_R   0.758580 0.796216 0.207728 -0.170400
C25   C     C_3   0.927701 0.317191 0.726996 0.011085
C26   C     C_3   0.997831 0.329014 0.696657 -0.227665
C27   C     C_3   0.055492 0.367494 0.729056 -0.464945
C28   C     C_3   0.069681 0.315757 0.260074 0.010511
C29   C     C_3   0.997200 0.331723 0.286418 -0.228402
C30   C     C_3   0.941509 0.362447 0.248611 -0.469814
C31   C     C_3   0.188335 0.180690 0.629528 0.032024
C32   C     C_3   0.237004 0.213215 0.587635 -0.279723
C33   C     C_3   0.258394 0.155694 0.548030 -0.479351
C34   C     C_3   0.312861 0.687004 0.871660 0.033707
C35   C     C_R   0.742872 0.297678 0.291556 -0.171874
C36   C     C_3   0.267128 0.724797 0.913005 -0.283394
C37   C     C_3   0.245516 0.671773 0.955589 -0.478750
C38   C     C_3   0.427691 0.817190 0.226954 0.011092
C39   C     C_3   0.497817 0.828992 0.196605 -0.227660
C40   C     C_3   0.555482 0.867497 0.228986 -0.464928
C41   C     C_3   0.569699 0.815777 0.759977 0.010467
C42   C     C_3   0.497159 0.831688 0.786253 -0.228409
C43   C     C_3   0.441524 0.862382 0.748395 -0.469934
C44   C     C_3   0.688354 0.680671 0.129529 0.032014
C45   C     C_3   0.737024 0.713193 0.087635 -0.279716
C46   C     C_R   0.760714 0.315886 0.723941 -0.172796
C47   C     C_3   0.758418 0.655668 0.048034 -0.479354
C48   C     C_3   0.838201 0.076551 0.067642 -0.265671
C49   C     C_3   0.837714 0.087061 0.937139 -0.274475
C50   C     C_3   0.159899 0.918895 0.068980 -0.258890
C51   C     C_3   0.162719 0.913508 0.938339 -0.278141
C52   C     C_3   0.338189 0.576524 0.567639 -0.265676
C53   C     C_3   0.337711 0.587053 0.437136 -0.274478
C54   C     C_3   0.659913 0.418918 0.568979 -0.258881
C55   C     C_3   0.662730 0.413527 0.438338 -0.278143
C56   C     C_R   0.237062 0.318067 0.272445 -0.166934
C57   C     C_R   0.258573 0.296224 0.707732 -0.170404
C58   C     C_R   0.794779 0.242787 0.293726 0.235216
C59   C     C_R   0.816053 0.264395 0.724410 0.234597
C60   C     C_R   0.181750 0.266499 0.271723 0.234998
C61   C     C_R   0.140456 0.860080 0.749513 0.530382
C62   C     C_R   0.206656 0.241308 0.705631 0.235137
C63   C     C_R   0.294775 0.742782 0.793729 0.235198
C64   C     C_R   0.316045 0.764386 0.224397 0.234595
C65   C     C_R   0.681743 0.766507 0.771705 0.235021
C66   C     C_R   0.706663 0.741301 0.205629 0.235137
C67   C     C_R   0.803118 0.195625 0.251288 -0.008365
C68   C     C_R   0.805379 0.197860 0.750698 -0.005947
C69   C     C_R   0.194732 0.197734 0.249167 -0.006443
C70   C     C_R   0.197053 0.195396 0.748655 -0.008849
C71   C     C_R   0.303120 0.695627 0.751287 -0.008360
C72   C     C_R   0.859548 0.860053 0.250490 0.532018
C73   C     C_R   0.305377 0.697858 0.250695 -0.005938
C74   C     C_R   0.694738 0.697730 0.749173 -0.006420
C75   C     C_R   0.697053 0.695397 0.248656 -0.008844
C76   C     C_R   0.954123 0.048265 0.026867 0.111359
C77   C     C_R   0.955109 0.049231 0.972688 0.104042
C78   C     C_R   0.045290 0.950901 0.027047 0.111234
C79   C     C_R   0.044766 0.950383 0.972854 0.104185
C80   C     C_R   0.454117 0.548259 0.526866 0.111359
C81   C     C_R   0.455106 0.549227 0.472688 0.104043
C82   C     C_R   0.545297 0.450907 0.527047 0.111233
C83   C     C_R   0.860143 0.859506 0.750006 0.526172
C84   C     C_R   0.544772 0.450387 0.472854 0.104183
C85   C     C_R   0.000083 0.999933 0.945638 0.002552
C86   C     C_R   0.999799 0.999689 0.054107 0.021026
C87   C     C_R   0.500084 0.499933 0.445638 0.002548
C88   C     C_R   0.499799 0.499689 0.554107 0.021020
C89   C     C_R   0.859644 0.139961 0.250450 0.510039
C90   C     C_R   0.860291 0.140598 0.750115 0.514620
C91   C     C_R   0.139707 0.140575 0.249837 0.514735
C92   C     C_R   0.140357 0.139939 0.749556 0.508656
C93   C     C_R   0.359644 0.639961 0.750450 0.510032
C94   C     C_R   0.639932 0.359556 0.750076 0.524804
C95   C     C_R   0.360291 0.640597 0.250114 0.514626
C96   C     C_R   0.639708 0.640575 0.749838 0.514748
C97   C     C_R   0.640357 0.639940 0.249556 0.508662
C98   C     C_R   0.999940 0.999875 0.110922 0.560625
C99   C     C_R   0.000046 0.999971 0.888977 0.506019
C100  C     C_R   0.499940 0.499875 0.610922 0.560622
C101  C     C_R   0.500046 0.499971 0.388977 0.506023
C102  C     C_R   0.999432 0.999946 0.388599 0.504563
C103  C     C_R   0.000583 0.999976 0.611403 0.505277
C104  C     C_R   0.499432 0.499946 0.888599 0.504555
C105  C     C_R   0.640455 0.360079 0.249513 0.530382
C106  C     C_R   0.500583 0.499976 0.111403 0.505277
C107  C     C_2   0.998354 0.060056 0.528124 -0.167820
C108  C     C_2   0.001581 0.060033 0.471829 -0.167581
C109  C     C_2   0.498353 0.560056 0.028124 -0.167815
C110  C     C_2   0.501580 0.560033 0.971829 -0.167580
C111  C     C_2   0.004468 0.998853 0.555986 -0.098351
C112  C     C_2   0.995606 0.998791 0.444023 -0.098266
C113  C     C_2   0.504467 0.498853 0.055986 -0.098360
C114  C     C_2   0.495605 0.498791 0.944023 -0.098272
C115  C     C_R   0.757230 0.202173 0.208604 -0.177352
C116  C     C_R   0.359548 0.360053 0.750490 0.532011
C117  C     C_R   0.741035 0.185703 0.778012 -0.172469
C118  C     C_R   0.261528 0.183195 0.225630 -0.168831
C119  C     C_R   0.241807 0.203014 0.791861 -0.176438
C120  C     C_R   0.257242 0.702186 0.708599 -0.177340
C121  C     C_R   0.241040 0.685707 0.278018 -0.172493
C122  C     C_R   0.761546 0.683175 0.725662 -0.168930
C123  C     C_R   0.741796 0.703025 0.291866 -0.176433
C124  C     C_R   0.202282 0.754779 0.707461 0.245280
C125  C     C_R   0.186792 0.738491 0.279326 0.241964
C126  C     C_R   0.815984 0.735824 0.724569 0.240551
C127  C     C_R   0.360142 0.359506 0.250005 0.526148
C128  C     C_R   0.796608 0.755740 0.293049 0.243798
C129  C     C_R   0.702267 0.254763 0.207468 0.245278
C130  C     C_R   0.686786 0.238486 0.779319 0.241968
C131  C     C_R   0.315966 0.235839 0.224545 0.240541
C132  C     C_R   0.296620 0.255727 0.793044 0.243797
C133  C     C_R   0.196262 0.803628 0.749139 0.004219
C134  C     C_R   0.196147 0.803538 0.251039 -0.000745
C135  C     C_R   0.804051 0.803364 0.749148 -0.001539
C136  C     C_R   0.803849 0.803465 0.250785 0.004208
C137  C     C_R   0.696258 0.303624 0.249140 0.004224
C138  C     C_R   0.242868 0.797673 0.791559 -0.171876
C139  C     C_R   0.696147 0.303539 0.751040 -0.000757
C140  C     C_R   0.304047 0.303368 0.249144 -0.001591
C141  C     C_R   0.303851 0.303464 0.750784 0.004201
C142  C     C_3   0.124241 0.699666 0.648608 0.026856
C143  C     C_3   0.150651 0.676711 0.595170 -0.273581
C144  C     C_3   0.124485 0.600216 0.581252 -0.500177
C145  C     C_3   0.131787 0.722860 0.358191 0.019394
C146  C     C_3   0.105913 0.649806 0.379915 -0.268071
C147  C     C_3   0.107841 0.649460 0.438615 -0.499648
C148  C     C_3   0.878855 0.715777 0.649335 0.022933
H1    H     H_    0.991772 0.112555 0.546948 0.157802
H2    H     H_    0.731959 0.134596 0.797935 0.144241
H3    H     H_    0.890405 0.375419 0.269354 0.169877
H4    H     H_    0.929218 0.321737 0.218157 0.150666
H5    H     H_    0.140164 0.155306 0.610880 0.168590
H6    H     H_    0.217466 0.135723 0.650003 0.111845
H7    H     H_    0.207658 0.258253 0.567867 0.175320
H8    H     H_    0.287133 0.235858 0.605383 0.155263
H9    H     H_    0.288697 0.110554 0.566874 0.147910
H10   H     H_    0.293823 0.180823 0.518347 0.154265
H11   H     H_    0.209210 0.133289 0.528843 0.154080
H12   H     H_    0.360434 0.660795 0.890507 0.168791
H13   H     H_    0.272321 0.130312 0.208723 0.145992
H14   H     H_    0.281100 0.642004 0.853289 0.111204
H15   H     H_    0.298800 0.770440 0.930087 0.169559
H16   H     H_    0.216982 0.747499 0.895343 0.153535
H17   H     H_    0.212988 0.626089 0.939466 0.149146
H18   H     H_    0.212160 0.700794 0.984687 0.152897
H19   H     H_    0.294703 0.649497 0.974843 0.154159
H20   H     H_    0.440869 0.786284 0.262761 0.129016
H21   H     H_    0.404735 0.871471 0.237413 0.116143
H22   H     H_    0.519360 0.775377 0.183785 0.236619
H23   H     H_    0.485941 0.862440 0.161908 0.158595
H24   H     H_    0.233046 0.168977 0.825306 0.139329
H25   H     H_    0.534912 0.921062 0.242641 0.134697
H26   H     H_    0.604821 0.876941 0.205339 0.174682
H27   H     H_    0.570646 0.833285 0.262629 0.153196
H28   H     H_    0.559676 0.778832 0.726624 0.129195
H29   H     H_    0.593100 0.868207 0.745858 0.116486
H30   H     H_    0.475448 0.780535 0.803257 0.239914
H31   H     H_    0.505839 0.871639 0.817834 0.161496
H32   H     H_    0.462411 0.913211 0.730408 0.138163
H33   H     H_    0.390357 0.875282 0.769082 0.169879
H34   H     H_    0.429349 0.821684 0.717910 0.150585
H35   H     H_    0.265010 0.667174 0.675597 0.130595
H36   H     H_    0.640186 0.655281 0.110881 0.168587
H37   H     H_    0.717487 0.635710 0.150009 0.111841
H38   H     H_    0.707677 0.758227 0.067863 0.175324
H39   H     H_    0.787151 0.735841 0.105383 0.155260
H40   H     H_    0.788723 0.610532 0.066882 0.147907
H41   H     H_    0.793849 0.680796 0.018351 0.154261
H42   H     H_    0.709237 0.633259 0.028847 0.154077
H43   H     H_    0.913141 0.152632 0.040120 0.264434
H44   H     H_    0.827111 0.091453 0.108215 0.168652
H45   H     H_    0.831316 0.016532 0.063435 0.155645
H46   H     H_    0.231968 0.634604 0.297947 0.144234
H47   H     H_    0.797571 0.104366 0.042898 0.109515
H48   H     H_    0.939512 0.127754 0.915105 0.245721
H49   H     H_    0.827301 0.079110 0.895415 0.166700
H50   H     H_    0.804436 0.133861 0.950395 0.125391
H51   H     H_    0.820069 0.037083 0.957961 0.150189
H52   H     H_    0.083383 0.845357 0.040104 0.265804
H53   H     H_    0.169246 0.904335 0.109897 0.179818
H54   H     H_    0.168997 0.978544 0.064238 0.150384
H55   H     H_    0.200328 0.889043 0.045335 0.115435
H56   H     H_    0.061499 0.872591 0.915010 0.249454
H57   H     H_    0.772345 0.630279 0.708778 0.145922
H58   H     H_    0.196024 0.866904 0.951937 0.128214
H59   H     H_    0.179700 0.963441 0.959494 0.147661
H60   H     H_    0.173813 0.921809 0.896755 0.163390
H61   H     H_    0.413118 0.652619 0.540121 0.264432
H62   H     H_    0.327091 0.591428 0.608211 0.168649
H63   H     H_    0.331317 0.516503 0.563435 0.155648
H64   H     H_    0.297556 0.604328 0.542891 0.109519
H65   H     H_    0.439509 0.627753 0.415107 0.245722
H66   H     H_    0.327300 0.579109 0.395412 0.166703
H67   H     H_    0.304430 0.633849 0.450395 0.125375
H68   H     H_    0.733029 0.668996 0.325315 0.139319
H69   H     H_    0.320068 0.537070 0.457953 0.150191
H70   H     H_    0.583405 0.345368 0.540105 0.265804
H71   H     H_    0.669263 0.404360 0.609896 0.179825
H72   H     H_    0.669002 0.478567 0.564235 0.150377
H73   H     H_    0.700345 0.389071 0.545334 0.115428
H74   H     H_    0.561515 0.372597 0.415011 0.249457
H75   H     H_    0.696041 0.366929 0.451940 0.128210
H76   H     H_    0.679704 0.463465 0.459490 0.147655
H77   H     H_    0.673823 0.421824 0.396754 0.163385
H78   H     H_    0.238400 0.835043 0.823685 0.139673
H79   H     H_    0.268830 0.865809 0.202332 0.146257
H80   H     H_    0.726940 0.870053 0.790941 0.153123
H81   H     H_    0.008018 0.112546 0.452952 0.158280
H82   H     H_    0.764179 0.832526 0.175054 0.146371
H83   H     H_    0.738412 0.335055 0.323679 0.139658
H84   H     H_    0.768844 0.365823 0.702352 0.146254
H85   H     H_    0.226960 0.370033 0.290977 0.153139
H86   H     H_    0.264165 0.332540 0.675060 0.146379
H87   H     H_    0.065098 0.711376 0.646203 0.161999
H88   H     H_    0.130048 0.653695 0.676558 0.114951
H89   H     H_    0.130347 0.716179 0.566009 0.164323
H90   H     H_    0.210923 0.677679 0.594011 0.160187
H91   H     H_    0.145022 0.559823 0.609645 0.148862
H92   H     H_    0.491771 0.612555 0.046948 0.157807
H93   H     H_    0.145457 0.585049 0.542711 0.142237
H94   H     H_    0.064206 0.598341 0.580400 0.150814
H95   H     H_    0.097763 0.767215 0.374584 0.165075
H96   H     H_    0.188848 0.733089 0.371247 0.102711
H97   H     H_    0.049436 0.639041 0.366739 0.166468
H98   H     H_    0.141306 0.605312 0.365310 0.156900
H99   H     H_    0.164125 0.658815 0.452671 0.139469
H100  H     H_    0.088797 0.595703 0.452985 0.145383
H101  H     H_    0.071575 0.692549 0.454205 0.145139
H102  H     H_    0.916665 0.757614 0.633770 0.166473
H103  H     H_    0.508016 0.612546 0.952952 0.158289
H104  H     H_    0.823888 0.728193 0.633092 0.106564
H105  H     H_    0.957994 0.627992 0.646316 0.163444
H106  H     H_    0.864727 0.598398 0.644649 0.158364
H107  H     H_    0.851573 0.649078 0.555374 0.146695
H108  H     H_    0.923268 0.582165 0.559505 0.143530
H109  H     H_    0.945791 0.677913 0.556928 0.144786
H110  H     H_    0.933652 0.717172 0.354979 0.168252
H111  H     H_    0.870048 0.656705 0.325588 0.113638
H112  H     H_    0.860992 0.724879 0.434471 0.171099
H113  H     H_    0.789882 0.670643 0.406254 0.161007
H114  H     H_    0.014071 0.945990 0.538821 0.103461
H115  H     H_    0.877999 0.565841 0.396684 0.149452
H116  H     H_    0.865762 0.594126 0.462475 0.145248
H117  H     H_    0.946867 0.620490 0.428393 0.148416
H118  H     H_    0.565060 0.211327 0.146252 0.162022
H119  H     H_    0.630036 0.153661 0.176593 0.114968
H120  H     H_    0.630261 0.216121 0.066038 0.164316
H121  H     H_    0.710857 0.177633 0.094020 0.160184
H122  H     H_    0.644990 0.059774 0.109678 0.148866
H123  H     H_    0.645353 0.084996 0.042742 0.142241
H124  H     H_    0.564139 0.098276 0.080472 0.150802
H125  H     H_    0.986138 0.945900 0.461233 0.103481
H126  H     H_    0.597678 0.267212 0.874550 0.165116
H127  H     H_    0.688799 0.233180 0.871240 0.102712
H128  H     H_    0.549496 0.138970 0.866714 0.166500
H129  H     H_    0.641409 0.105353 0.865344 0.156863
H130  H     H_    0.664072 0.158955 0.952698 0.139487
H131  H     H_    0.588826 0.095743 0.952995 0.145377
H132  H     H_    0.571474 0.192567 0.954171 0.145145
H133  H     H_    0.416743 0.257895 0.133834 0.166692
H134  H     H_    0.323917 0.228620 0.133058 0.106500
H135  H     H_    0.457791 0.128081 0.146179 0.163570
H136  H     H_    0.514070 0.445990 0.038822 0.103452
H137  H     H_    0.364454 0.098735 0.144240 0.158253
H138  H     H_    0.351811 0.150007 0.055079 0.146749
H139  H     H_    0.423268 0.082830 0.059169 0.143504
H140  H     H_    0.446117 0.178515 0.056916 0.144813
H141  H     H_    0.433680 0.217124 0.854952 0.168246
H142  H     H_    0.370070 0.156678 0.825549 0.113655
H143  H     H_    0.361059 0.224783 0.934454 0.171063
H144  H     H_    0.289907 0.170612 0.906229 0.161027
H145  H     H_    0.377964 0.065766 0.896600 0.149471
H146  H     H_    0.365752 0.093999 0.962403 0.145217
H147  H     H_    0.486138 0.445900 0.961233 0.103478
H148  H     H_    0.446868 0.120348 0.928327 0.148429
H149  H     H_    0.860442 0.160811 0.390506 0.168784
H150  H     H_    0.781093 0.142031 0.353303 0.111212
H151  H     H_    0.798840 0.270485 0.430079 0.169554
H152  H     H_    0.717006 0.247541 0.395354 0.153534
H153  H     H_    0.713015 0.126148 0.439501 0.149152
H154  H     H_    0.712214 0.200870 0.484708 0.152896
H155  H     H_    0.794746 0.149559 0.474857 0.154159
H156  H     H_    0.940873 0.286262 0.762794 0.129016
H157  H     H_    0.904741 0.371464 0.737470 0.116123
H158  H     H_    0.764990 0.167155 0.175606 0.130601
H159  H     H_    0.019375 0.275407 0.683820 0.236632
H160  H     H_    0.985961 0.362486 0.661972 0.158590
H161  H     H_    0.034921 0.421051 0.742726 0.134696
H162  H     H_    0.104836 0.376951 0.705418 0.174669
H163  H     H_    0.070646 0.333260 0.762690 0.153183
H164  H     H_    0.059574 0.278801 0.226741 0.129280
H165  H     H_    0.093081 0.368169 0.245919 0.116433
H166  H     H_    0.975487 0.280588 0.303450 0.239886
H167  H     H_    0.005967 0.371677 0.317985 0.161422
H168  H     H_    0.962406 0.413240 0.230579 0.138106
N1    N     N_2   0.911020 0.100028 0.054168 -0.497111
N2    N     N_2   0.913896 0.103220 0.945861 -0.510548
N3    N     N_2   0.086729 0.897716 0.054456 -0.496712
N4    N     N_2   0.086500 0.896827 0.946165 -0.509474
N5    N     N_2   0.411006 0.600014 0.554168 -0.497107
N6    N     N_2   0.413892 0.603215 0.445861 -0.510546
N7    N     N_2   0.586744 0.397728 0.554456 -0.496703
N8    N     N_2   0.586513 0.396836 0.446165 -0.509470
O1    O     O_3   0.000000 0.000000 0.250030 -0.445818
O2    O     O_R   0.585480 0.353820 0.219950 -0.485879
O3    O     O_R   0.414520 0.353820 0.780050 -0.489338
O4    O     O_R   0.414520 0.353820 0.219950 -0.504388
O5    O     O_R   0.914530 0.146170 0.280090 -0.513498
O6    O     O_R   0.914530 0.146170 0.719910 -0.492948
O7    O     O_R   0.085470 0.146170 0.280090 -0.492794
O8    O     O_R   0.085470 0.146170 0.719910 -0.516523
O9    O     O_R   0.414530 0.646170 0.780090 -0.513531
O10   O     O_R   0.414530 0.646170 0.219910 -0.492954
O11   O     O_R   0.585470 0.646170 0.780090 -0.492779
O12   O     O_3   0.000000 0.000000 0.749970 -0.443113
O13   O     O_R   0.585470 0.646170 0.219910 -0.516525
O14   O     O_R   0.146180 0.085440 0.219990 -0.568600
O15   O     O_R   0.146180 0.085440 0.780010 -0.560843
O16   O     O_R   0.853820 0.085440 0.219990 -0.566912
O17   O     O_R   0.853820 0.085440 0.780010 -0.574629
O18   O     O_R   0.646180 0.585440 0.719990 -0.568606
O19   O     O_R   0.646180 0.585440 0.280010 -0.560844
O20   O     O_R   0.353820 0.585440 0.719990 -0.566904
O21   O     O_R   0.353820 0.585440 0.280010 -0.574628
O22   O     O_R   0.853820 0.914550 0.219980 -0.566719
O23   O     O_3   0.500000 0.500000 0.750030 -0.445816
O24   O     O_R   0.853820 0.914550 0.780020 -0.560394
O25   O     O_R   0.146180 0.914550 0.219980 -0.571948
O26   O     O_R   0.146180 0.914550 0.780020 -0.572654
O27   O     O_R   0.353820 0.414550 0.719980 -0.566724
O28   O     O_R   0.353820 0.414550 0.280020 -0.560373
O29   O     O_R   0.646180 0.414550 0.719980 -0.571944
O30   O     O_R   0.646180 0.414550 0.280020 -0.572655
O31   O     O_R   0.060720 0.999990 0.135450 -0.536864
O32   O     O_R   0.060720 0.999990 0.864550 -0.545587
O33   O     O_R   0.939280 0.999990 0.135450 -0.536107
O34   O     O_3   0.500000 0.500000 0.249970 -0.443095
O35   O     O_R   0.939280 0.999990 0.864550 -0.541568
O36   O     O_R   0.560720 0.499990 0.635450 -0.536858
O37   O     O_R   0.560720 0.499990 0.364550 -0.545587
O38   O     O_R   0.439280 0.499990 0.635450 -0.536101
O39   O     O_R   0.439280 0.499990 0.364550 -0.541566
O40   O     O_R   1.000000 0.939270 0.364600 -0.545028
O41   O     O_R   0.000000 0.939270 0.635400 -0.544808
O42   O     O_R   0.500000 0.439270 0.864600 -0.545041
O43   O     O_R   0.500000 0.439270 0.135400 -0.544866
O44   O     O_R   0.000000 0.060730 0.364620 -0.544439
O45   O     O_R   0.085480 0.853820 0.280050 -0.498373
O46   O     O_R   1.000000 0.060730 0.635380 -0.545035
O47   O     O_R   0.500000 0.560730 0.864620 -0.544435
O48   O     O_R   0.500000 0.560730 0.135380 -0.545023
O49   O     O_3   0.159976 0.764839 0.663641 -0.541984
O50   O     O_3   0.121908 0.723252 0.304086 -0.543114
O51   O     O_3   0.883078 0.718456 0.703778 -0.544835
O52   O     O_3   0.837021 0.767282 0.337525 -0.543944
O53   O     O_3   0.659944 0.264806 0.163655 -0.541984
O54   O     O_3   0.621897 0.223239 0.804068 -0.543130
O55   O     O_3   0.383049 0.218466 0.203741 -0.544894
O56   O     O_R   0.085480 0.853820 0.719950 -0.485878
O57   O     O_3   0.337051 0.267250 0.837514 -0.543935
O58   O     O_3   0.840031 0.238979 0.336213 -0.564721
O59   O     O_3   0.878221 0.277751 0.696094 -0.541170
O60   O     O_3   0.116868 0.282500 0.295996 -0.539157
O61   O     O_3   0.162627 0.236409 0.662547 -0.566799
O62   O     O_3   0.340021 0.738969 0.836219 -0.564677
O63   O     O_3   0.378205 0.777733 0.196069 -0.541171
O64   O     O_3   0.616837 0.782531 0.795936 -0.539145
O65   O     O_3   0.662640 0.736394 0.162542 -0.566800
O66   O     O_R   0.914520 0.853820 0.280050 -0.489355
O67   O     O_R   0.914520 0.853820 0.719950 -0.504248
O68   O     O_R   0.585480 0.353820 0.780050 -0.498406
Zn1   Zn    Zn3+2 0.000000 0.086760 0.292960 0.947747
Zn2   Zn    Zn3+2 0.586770 0.499990 0.292890 0.900586
Zn3   Zn    Zn3+2 0.413230 0.499990 0.707110 0.912268
Zn4   Zn    Zn3+2 0.413230 0.499990 0.292890 0.903216
Zn5   Zn    Zn3+2 1.000000 0.913240 0.292940 0.961704
Zn6   Zn    Zn3+2 0.000000 0.913240 0.707060 0.959194
Zn7   Zn    Zn3+2 0.500000 0.413240 0.792940 0.961681
Zn8   Zn    Zn3+2 0.500000 0.413240 0.207060 0.959091
Zn9   Zn    Zn3+2 1.000000 0.086760 0.707040 0.942454
Zn10  Zn    Zn3+2 0.500000 0.586760 0.792960 0.947760
Zn11  Zn    Zn3+2 0.500000 0.586760 0.207040 0.942450
Zn12  Zn    Zn3+2 0.086770 0.999990 0.207110 0.909189
Zn13  Zn    Zn3+2 0.086770 0.999990 0.792890 0.900586
Zn14  Zn    Zn3+2 0.913230 0.999990 0.207110 0.912266
Zn15  Zn    Zn3+2 0.913230 0.999990 0.792890 0.903213
Zn16  Zn    Zn3+2 0.586770 0.499990 0.707110 0.909185

loop_
_geom_bond_atom_site_label_1
_geom_bond_atom_site_label_2
_ccdc_geom_bond_type
C125  C134  A    
O31   Zn12  S    
C53   H66   S    
C72   O22   A    
C22   H151  S    
C145  C146  S    
C51   H58   S    
C61   C133  S    
C2    C134  A    
C124  C133  A    
C84   N8    S    
C5    C6    S    
C17   H139  S    
C109  H92   S    
O1    Zn5   S    
C143  C144  S    
C128  O52   S    
O33   Zn14  S    
C65   O64   S    
C145  H95   S    
O25   Zn12  S    
C138  H78   S    
C39   H23   S    
C118  C131  A    
C19   C20   S    
C144  H94   S    
C68   C90   S    
H52   N3    S    
O35   Zn15  S    
C103  O41   A    
C14   H130  S    
C25   O59   S    
C114  H147  S    
C31   O61   S    
C123  H68   S    
C52   H62   S    
C20   H145  S    
O56   Zn6   S    
C97   O13   A    
C18   H141  S    
C45   C47   S    
C25   H157  S    
C43   H32   S    
C148  H104  S    
C112  H125  S    
O7    Zn1   S    
C28   O60   S    
C3    H105  S    
O20   Zn3   S    
C23   H153  S    
C25   H156  S    
C55   N8    S    
C27   H162  S    
O34   Zn4   S    
C28   H165  S    
C29   H166  S    
O10   Zn11  S    
C41   H28   S    
C63   C71   A    
O8    Zn9   S    
C82   C84   A    
C19   H144  S    
H65   N6    S    
C115  H158  S    
C73   C95   S    
C121  H46   S    
C79   C85   A    
C33   H10   S    
C38   H21   S    
C146  C147  S    
C78   C79   A    
C90   O17   A    
C91   O7    A    
C94   O68   A    
C102  O40   A    
C6    C7    S    
C71   C93   S    
O32   Zn13  S    
O2    Zn8   S    
C127  O4    A    
C80   C88   A    
C35   C137  A    
C40   H26   S    
O1    Zn1   S    
C145  O50   S    
C42   H30   S    
C56   C140  A    
C77   N2    S    
C101  O37   A    
C65   C74   A    
C5    O52   S    
H61   N5    S    
C58   C67   A    
C129  C137  A    
C124  O49   S    
C52   H64   S    
O1    Zn12  S    
C22   C23   S    
C16   H137  S    
C109  C110  S    
O23   Zn10  S    
C106  O48   A    
C46   C139  A    
O16   Zn14  S    
C47   H41   S    
C26   H160  S    
C48   H45   S    
C104  O47   A    
C143  H89   S    
C72   O66   A    
C75   C97   S    
C49   H49   S    
O26   Zn13  S    
C53   N6    S    
C18   H142  S    
C146  H97   S    
C62   C70   A    
O30   Zn2   S    
C35   C58   A    
C21   H149  S    
C41   H29   S    
C36   C37   S    
C38   C39   S    
C59   C68   A    
C51   H59   S    
O34   Zn2   S    
O39   Zn4   S    
O37   Zn2   S    
C32   H8    S    
O67   Zn6   S    
O13   Zn11  S    
C41   O64   S    
C107  C108  S    
C7    H115  S    
C131  C140  A    
C98   O33   A    
C9    C10   S    
C110  C114  D    
C44   H37   S    
C93   O9    A    
C24   C136  A    
C77   C85   A    
C80   N5    S    
C13   C135  A    
C8    H119  S    
C53   H69   S    
C106  C113  S    
C74   C96   S    
C34   O62   S    
C39   C40   S    
C45   H39   S    
C54   H73   S    
C37   H17   S    
C76   N1    S    
C25   C26   S    
C43   H33   S    
C78   N3    S    
C101  O39   A    
C121  C125  A    
C29   C30   S    
C85   C99   S    
C30   H4    S    
C31   C32   S    
C83   O24   A    
C15   O55   S    
O43   Zn8   S    
C61   O56   A    
C142  H87   S    
C95   O21   A    
C147  H100  S    
O12   Zn6   S    
C130  O54   S    
C18   O57   S    
C27   H163  S    
C8    O53   S    
C127  C140  S    
C4    H108  S    
C3    C4    S    
C100  O36   A    
C31   H6    S    
O3    Zn7   S    
C49   H51   S    
C132  C141  A    
O4    Zn8   S    
C9    H121  S    
C96   O11   A    
C46   H84   S    
C22   H152  S    
C29   H167  S    
C12   C14   S    
C34   H14   S    
C30   H168  S    
O48   Zn11  S    
C64   O63   S    
C83   O67   A    
C142  O49   S    
C55   H77   S    
C47   H42   S    
C48   H47   S    
O66   Zn5   S    
C17   H138  S    
C62   O61   S    
O38   Zn3   S    
C1    O45   A    
C60   C69   A    
C82   C88   A    
C105  O2    A    
O29   Zn16  S    
C34   C36   S    
C79   N4    S    
C113  H136  S    
C105  C137  S    
C107  H1    S    
C60   O60   S    
C61   O26   A    
C55   H76   S    
C15   H134  S    
C10   H124  S    
C54   N7    S    
C94   O29   A    
C21   C22   S    
C12   H129  S    
C73   C121  A    
C14   H131  S    
C4    H109  S    
C94   C139  S    
C66   O65   S    
C20   H146  S    
C41   C42   S    
O6    Zn9   S    
C102  C112  S    
C99   O32   A    
O22   Zn14  S    
C95   O10   A    
C57   H86   S    
C48   N1    S    
C54   H71   S    
C37   H19   S    
C50   H55   S    
C38   H20   S    
O47   Zn10  S    
C26   C27   S    
C91   O14   A    
C28   C29   S    
O68   Zn7   S    
C24   H82   S    
C128  C136  A    
C129  O53   S    
C69   C118  A    
C5    H111  S    
C103  C111  S    
C18   C19   S    
C97   O19   A    
C7    H117  S    
C68   C117  A    
C92   O15   A    
C148  O51   S    
C51   N4    S    
C16   C17   S    
C89   O5    A    
C27   H161  S    
O41   Zn6   S    
C100  O38   A    
C24   C66   A    
C38   O63   S    
C50   H54   S    
C133  C138  A    
C53   H67   S    
C19   H143  S    
C122  H57   S    
C82   N7    S    
C107  C111  D    
C127  O28   A    
C130  C139  A    
C33   H9    S    
C2    H79   S    
O11   Zn10  S    
O23   Zn7   S    
O12   Zn13  S    
C1    O25   A    
C17   H140  S    
C81   N6    S    
C52   N5    S    
C108  C112  D    
C145  H96   S    
C99   O35   A    
O17   Zn15  S    
C11   H126  S    
H56   N4    S    
O18   Zn16  S    
C42   H31   S    
O21   Zn4   S    
C144  H93   S    
C116  O27   A    
C28   H164  S    
C125  O50   S    
C88   C100  S    
H74   N8    S    
C8    H118  S    
C74   C122  A    
C126  C135  A    
C20   H148  S    
C6    H112  S    
C42   C43   S    
O19   Zn2   S    
C59   O59   S    
C76   C86   A    
C44   C45   S    
C55   H75   S    
C50   H53   S    
C147  H101  S    
C70   C92   S    
O46   Zn9   S    
C90   O6    A    
O28   Zn4   S    
O14   Zn12  S    
C146  H98   S    
O27   Zn3   S    
C57   C141  A    
C32   C33   S    
C16   H135  S    
C3    H106  S    
C23   H154  S    
C105  O30   A    
C50   N3    S    
O36   Zn16  S    
C40   H25   S    
C66   C75   A    
O45   Zn5   S    
C35   H83   S    
O42   Zn7   S    
C86   C98   S    
C48   H44   S    
C116  C141  S    
C56   C60   A    
C103  O46   A    
C10   H122  S    
C36   H16   S    
C142  C143  S    
C33   H11   S    
C34   H12   S    
O12   Zn15  S    
C118  H13   S    
C46   C59   A    
C84   C87   A    
C67   C89   S    
C12   H128  S    
C13   H80   S    
C30   H3    S    
C57   C62   A    
C111  H114  S    
C13   C65   A    
O5    Zn1   S    
C71   C120  A    
C75   C123  A    
O1    Zn14  S    
C58   O58   S    
C39   H22   S    
O23   Zn16  S    
C45   H38   S    
C72   C136  S    
C11   O54   S    
C15   C16   S    
C44   O65   S    
C116  O3    A    
C67   C115  A    
C49   N2    S    
C8    C9    S    
C92   O8    A    
C52   H63   S    
C117  H2    S    
C44   H36   S    
C83   C135  S    
C109  C113  D    
C119  H24   S    
C78   C86   A    
C142  H88   S    
C147  H99   S    
C3    C148  S    
C87   C101  S    
C26   H159  S    
C104  O42   A    
C143  H90   S    
O34   Zn8   S    
C132  O57   S    
O40   Zn5   S    
C31   H5    S    
C2    C64   A    
C108  H81   S    
C9    H120  S    
C21   H150  S    
C96   O18   A    
C76   C77   A    
C98   O31   A    
C51   H60   S    
C21   O58   S    
H43   N1    S    
C144  H91   S    
C122  C126  A    
O34   Zn11  S    
C36   H15   S    
C32   H7    S    
C102  O44   A    
H48   N2    S    
C70   C119  A    
C64   C73   A    
O24   Zn15  S    
C119  C132  A    
C7    H116  S    
C81   C87   A    
C93   O20   A    
C117  C130  A    
C11   H127  S    
C104  C114  S    
O23   Zn3   S    
O12   Zn9   S    
C131  O55   S    
C89   O16   A    
C63   C138  A    
C56   H85   S    
C15   H133  S    
C1    C134  S    
C115  C129  A    
C63   O62   S    
C14   H132  S    
O44   Zn1   S    
H70   N7    S    
C80   C81   A    
C40   H27   S    
C11   C12   S    
C54   H72   S    
C37   H18   S    
C110  H103  S    
C43   H34   S    
C148  H102  S    
C10   H123  S    
C126  O51   S    
C69   C91   S    
C123  C128  A    
C49   H50   S    
C5    H110  S    
C6    H113  S    
C106  O43   A    
C120  H35   S    
C23   H155  S    
C4    H107  S    
C47   H40   S    
O9    Zn10  S    
C120  C124  A    
O15   Zn13  S    
