data_mof_unit_7092.cif
_audit_creation_date              2012-12-10T18:58:11-0500
_audit_creation_method            fapswitch 2.2
_symmetry_space_group_name_H-M    P1
_symmetry_Int_Tables_number       1
_space_group_crystal_system       triclinic
_cell_length_a                    10.71055
_cell_length_b                    9.841528
_cell_length_c                    15.583042
_cell_angle_alpha                 89.408536
_cell_angle_beta                  90.170346
_cell_angle_gamma                 90.003653
_cell_volume                      1642.48528107

loop_
_atom_site_label
_atom_site_type_symbol
_atom_type_description
_atom_site_fract_x
_atom_site_fract_y
_atom_site_fract_z
_atom_type_partial_charge
C1    C     C_R   0.872529 0.499985 0.499772 -0.010756
C2    C     C_R   0.127427 0.499960 0.499680 -0.010656
C3    C     C_R   0.259866 0.499995 0.499865 0.861247
C4    C     C_R   0.740120 0.500004 0.499964 0.862806
C5    C     C_R   0.501678 0.500704 0.338430 0.902707
C6    C     C_R   0.500515 0.499276 0.661570 0.908482
C7    C     C_R   0.587172 0.622915 0.956094 0.037867
C8    C     C_R   0.599854 0.373194 0.048864 0.042698
C9    C     C_R   0.616452 0.623526 0.044466 0.059523
C10   C     C_R   0.589251 0.371484 0.958607 0.057785
C11   C     C_R   0.573467 0.496695 0.914614 0.040214
C12   C     C_R   0.602607 0.500082 0.090460 0.042673
C13   C     C_1   0.542982 0.496177 0.825511 -0.056743
C14   C     C_1   0.564146 0.503593 0.177727 -0.044954
C15   C     C_1   0.531137 0.502513 0.250601 -0.217390
C16   C     C_1   0.519938 0.497366 0.750793 -0.205148
C17   C     C_R   0.578588 0.071115 0.552768 -0.079433
C18   C     C_R   0.421660 0.928913 0.447052 -0.068863
C19   C     C_R   0.421556 0.072791 0.447130 -0.081261
C20   C     C_R   0.578447 0.927225 0.552884 -0.078046
C21   C     C_R   0.064019 0.380328 0.521021 -0.199881
C22   C     C_R   0.935911 0.619547 0.478229 -0.200063
C23   C     C_R   0.936100 0.380357 0.521113 -0.197291
C24   C     C_R   0.063852 0.619546 0.478213 -0.197154
N1    N     N_R   0.500000 0.857200 0.500000 -0.076717
N2    N     N_R   0.500000 0.142800 0.500000 -0.076032
O1    O     O_R   0.316770 0.614620 0.499990 -0.625128
O2    O     O_R   0.683230 0.385380 0.500010 -0.624758
O3    O     O_R   0.683230 0.614620 0.500010 -0.626841
O4    O     O_R   0.316770 0.385380 0.499990 -0.626654
O5    O     O_R   0.499980 0.614630 0.378020 -0.616212
O6    O     O_R   0.500020 0.385370 0.621980 -0.610909
O7    O     O_R   0.500020 0.614630 0.621980 -0.609920
O8    O     O_R   0.499980 0.385370 0.378020 -0.610014
Zn1   Zn    Zn3+2 0.500000 0.653120 0.500000 0.941230
Zn2   Zn    Zn3+2 0.500000 0.346880 0.500000 0.941609
H1    H     H_    0.641625 0.125015 0.594756 0.125748
H2    H     H_    0.359054 0.875094 0.404698 0.122997
H3    H     H_    0.358827 0.127978 0.404859 0.128903
H4    H     H_    0.641145 0.872070 0.595199 0.129187
C25   C     C_3   0.658804 0.756192 0.086463 -0.426182
C26   C     C_3   0.728282 0.744205 0.173072 -0.324478
C27   C     C_3   0.808444 0.869473 0.190594 -0.914779
H5    H     H_    0.883884 0.878715 0.142113 0.259260
H6    H     H_    0.750523 0.962995 0.188786 0.265654
H7    H     H_    0.852040 0.859806 0.255129 0.254215
H8    H     H_    0.659801 0.735752 0.226099 0.239525
H9    H     H_    0.790205 0.653535 0.173648 0.228518
H10   H     H_    0.726600 0.804716 0.041852 0.207321
H11   H     H_    0.577217 0.824792 0.092849 0.195729
C28   C     C_3   0.588968 0.239183 0.908157 -0.414421
C29   C     C_3   0.713658 0.220032 0.861448 -0.319366
C30   C     C_3   0.710975 0.095314 0.804122 -0.914853
H12   H     H_    0.700793 0.001754 0.843662 0.259332
H13   H     H_    0.632284 0.102202 0.757677 0.266642
H14   H     H_    0.799745 0.088761 0.767762 0.246890
H15   H     H_    0.734869 0.310453 0.820799 0.229630
H16   H     H_    0.789968 0.208174 0.909463 0.214090
H17   H     H_    0.571227 0.148508 0.948653 0.192781
H18   H     H_    0.510683 0.240480 0.861193 0.206871
C31   C     C_3   0.562038 0.754938 0.906108 -0.419166
C32   C     C_3   0.421164 0.778986 0.895160 -0.319683
C33   C     C_3   0.395198 0.901808 0.837265 -0.891955
H19   H     H_    0.434780 0.995023 0.866002 0.257568
H20   H     H_    0.436710 0.886626 0.772795 0.272638
H21   H     H_    0.292838 0.915568 0.829791 0.248960
H22   H     H_    0.375210 0.688878 0.866682 0.230631
H23   H     H_    0.378680 0.796517 0.959123 0.214517
H24   H     H_    0.601029 0.845729 0.937449 0.184738
H25   H     H_    0.608488 0.750904 0.842482 0.210668
C34   C     C_3   0.602634 0.242731 0.102794 -0.406405
C35   C     C_3   0.469621 0.191125 0.121074 -0.327585
C36   C     C_3   0.467130 0.091723 0.196894 -0.896757
H26   H     H_    0.527862 0.003165 0.184341 0.263319
H27   H     H_    0.499542 0.142682 0.256212 0.275732
H28   H     H_    0.370275 0.054966 0.207262 0.243058
H29   H     H_    0.407179 0.277727 0.136401 0.230949
H30   H     H_    0.431230 0.140233 0.063462 0.208445
H31   H     H_    0.660146 0.162785 0.072495 0.184101
H32   H     H_    0.651772 0.261872 0.164453 0.213157
H33   H     H_    0.112921 0.287569 0.538301 0.156438
H34   H     H_    0.886975 0.712259 0.460871 0.155739
H35   H     H_    0.887331 0.287635 0.538498 0.152437
H36   H     H_    0.112639 0.712272 0.460877 0.151223

loop_
_geom_bond_atom_site_label_1
_geom_bond_atom_site_label_2
_ccdc_geom_bond_type
C31   H25   S    
C6    O6    A    
C33   H20   S    
C25   C26   S    
C34   H31   S    
C30   H12   S    
C7    C11   A    
C27   H7    S    
C35   H29   S    
C23   H35   S    
C32   H22   S    
C17   N2    A    
O6    Zn2   S    
C22   C24   A    
C20   H4    S    
C20   N1    A    
C19   H3    S    
C17   C20   A    
C18   C19   A    
C36   H26   S    
C19   N2    A    
C7    C31   S    
C35   H30   S    
C4    O3    A    
C33   H21   S    
C1    C22   A    
C36   H27   S    
C18   N1    A    
C10   C28   S    
C25   H10   S    
C34   H32   S    
C4    O2    A    
C30   H13   S    
C28   C29   S    
C10   C11   A    
C26   H9    S    
O1    Zn1   S    
C3    O4    A    
C27   H5    S    
C32   C33   S    
C8    C12   A    
C5    O8    A    
C2    C21   A    
C17   H1    S    
C27   H6    S    
C29   H16   S    
N1    Zn1   S    
N2    Zn2   S    
C12   C14   S    
C1    C23   A    
C21   C23   A    
C2    C24   A    
C36   H28   S    
O5    Zn1   S    
C28   H17   S    
C26   C27   S    
C22   H34   S    
C25   H11   S    
C29   C30   S    
C30   H14   S    
C31   H24   S    
C7    C9    A    
C8    C34   S    
C21   H33   S    
C35   C36   S    
O4    Zn2   S    
O3    Zn1   S    
C9    C25   S    
C6    O7    A    
C32   H23   S    
C1    C4    S    
C3    O1    A    
C2    C3    S    
C24   H36   S    
C34   C35   S    
C11   C13   S    
O7    Zn1   S    
O8    Zn2   S    
C26   H8    S    
C18   H2    S    
C31   C32   S    
C9    C12   A    
C5    C15   S    
C29   H15   S    
C6    C16   S    
C33   H19   S    
O2    Zn2   S    
C8    C10   A    
C13   C16   T    
C14   C15   T    
C28   H18   S    
C5    O5    A    
