data_mof_unit_45722.cif
_audit_creation_date              2012-12-10T19:42:14-0500
_audit_creation_method            fapswitch 2.2
_symmetry_space_group_name_H-M    P1
_symmetry_Int_Tables_number       1
_space_group_crystal_system       triclinic
_cell_length_a                    10.851271
_cell_length_b                    10.928814
_cell_length_c                    9.679226
_cell_angle_alpha                 90.155793
_cell_angle_beta                  90.331986
_cell_angle_gamma                 90.538477
_cell_volume                      1147.79977056

loop_
_atom_site_label
_atom_site_type_symbol
_atom_type_description
_atom_site_fract_x
_atom_site_fract_y
_atom_site_fract_z
_atom_type_partial_charge
C1    C     C_R   0.501395 0.265324 0.499918 0.872287
C2    C     C_R   0.227800 0.714312 0.029655 -0.141327
C3    C     C_R   0.933216 0.541115 0.385963 -0.178251
C4    C     C_R   0.871678 0.497313 0.502625 -0.075781
C5    C     C_R   0.939120 0.457421 0.619285 0.051182
C6    C     C_R   0.066802 0.461468 0.615631 -0.165143
C7    C     C_R   0.128381 0.504199 0.498320 -0.090776
C8    C     C_R   0.060922 0.545226 0.382301 0.052683
C9    C     C_R   0.867343 0.484770 0.862663 0.658515
C10   C     C_R   0.805856 0.440884 0.979387 -0.240827
C11   C     C_R   0.757159 0.322060 0.980242 -0.194323
C12   C     C_R   0.262291 0.502390 0.499398 0.810006
C13   C     C_R   0.769339 0.246899 0.864120 -0.108756
C14   C     C_R   0.830351 0.290367 0.746947 -0.208294
C15   C     C_R   0.879720 0.409547 0.745568 0.036145
C16   C     C_2   0.497713 0.932745 0.386427 -0.167594
C17   C     C_2   0.490665 0.866598 0.502543 -0.305514
C18   C     C_2   0.492484 0.066690 0.386584 -0.134510
C19   C     C_2   0.507437 0.133404 0.501897 -0.306767
C20   C     C_2   0.434042 0.423902 0.921297 0.574722
C21   C     C_2   0.438081 0.420623 0.077238 0.559972
C22   C     C_R   0.497910 0.734681 0.500200 0.839155
C23   C     C_R   0.737730 0.498084 0.500758 0.785026
C24   C     C_R   0.220211 0.776134 0.155298 -0.103465
C25   C     C_R   0.165953 0.719210 0.268732 -0.140475
C26   C     C_R   0.119821 0.598939 0.258343 0.038162
C27   C     C_R   0.129676 0.534134 0.131082 0.027305
C28   C     C_R   0.182566 0.594792 0.017317 -0.123130
Cu1   Cu    Cu3+1 0.500020 0.500020 0.638630 1.009582
Cu2   Cu    Cu3+1 0.499980 0.499980 0.361370 0.999003
H1    H     H_    0.269436 0.758860 0.941504 0.144862
H2    H     H_    0.709477 0.288479 0.070658 0.168873
H3    H     H_    0.730911 0.155160 0.864618 0.151712
H4    H     H_    0.838089 0.231889 0.656946 0.148795
H5    H     H_    0.506009 0.887869 0.286658 0.170219
H6    H     H_    0.476702 0.907762 0.602938 0.154226
H7    H     H_    0.477909 0.111114 0.287620 0.205600
H8    H     H_    0.526762 0.092724 0.601368 0.153317
H9    H     H_    0.559698 0.557388 0.894632 0.132744
H10   H     H_    0.255869 0.868639 0.164691 0.147624
H11   H     H_    0.544994 0.569310 0.106379 0.123610
H12   H     H_    0.159797 0.769003 0.365369 0.131711
H13   H     H_    0.190809 0.549323 0.918397 0.188979
H14   H     H_    0.881805 0.574784 0.297738 0.149785
H15   H     H_    0.118204 0.428712 0.704293 0.208260
H16   H     H_    0.795618 0.499057 0.069132 0.151012
N1    N     N_2   0.498640 0.498660 0.846910 -0.357795
N2    N     N_2   0.498610 0.498630 0.153040 -0.358191
O1    O     O_R   0.500020 0.321960 0.617040 -0.527681
O2    O     O_R   0.499980 0.321920 0.382900 -0.528242
O3    O     O_R   0.319660 0.500030 0.617070 -0.553044
O4    O     O_R   0.319620 0.499990 0.382930 -0.536011
O5    O     O_R   0.500020 0.678080 0.617100 -0.583511
O6    O     O_R   0.499980 0.678040 0.382960 -0.582506
O7    O     O_R   0.680380 0.500010 0.617070 -0.573935
O8    O     O_R   0.680340 0.499970 0.382930 -0.592698
F1    F     F_    0.358197 0.342405 0.856301 -0.598449
F2    F     F_    0.371743 0.331276 0.140578 -0.612442
C29   C     C_2   0.090647 0.403534 0.113620 0.900344
O9    O     O_2   0.051417 0.344231 0.211073 -0.584339
O10   O     O_R   0.100972 0.346968 0.984420 -0.738391
H17   H     H_    0.071473 0.258671 0.984875 0.352616
F3    F     F_    0.912745 0.600899 0.862682 -0.685859

loop_
_geom_bond_atom_site_label_1
_geom_bond_atom_site_label_2
_ccdc_geom_bond_type
C25   H12   S    
C14   H4    S    
C2    C28   A    
C13   H3    S    
Cu1   Cu2   S    
C17   H6    S    
C8    C26   S    
C9    C10   A    
C28   H13   S    
C17   C22   S    
C21   N2    D    
C21   F2    S    
C9    F3    S    
C9    C15   A    
C29   O9    D    
C22   O6    A    
Cu1   O1    S    
C13   C14   A    
C24   C25   A    
C23   O7    A    
Cu2   O6    S    
C23   O8    A    
C26   C27   A    
C6    C7    A    
Cu1   O5    S    
Cu1   N1    S    
C5    C6    A    
H9    N1    S    
C12   O4    A    
H11   N2    S    
Cu1   O3    S    
C11   H2    S    
C3    C8    A    
C22   O5    A    
C3    H14   S    
C16   H5    S    
C2    C24   A    
O10   H17   S    
Cu2   O2    S    
C5    C15   S    
C7    C12   S    
C29   O10   S    
C20   N1    D    
C7    C8    A    
C10   C11   A    
C6    H15   S    
C3    C4    A    
C10   H16   S    
C11   C13   A    
C12   O3    A    
C20   C21   S    
C16   C18   S    
C18   C19   D    
C1    O2    A    
Cu2   N2    S    
C27   C28   A    
C20   F1    S    
C4    C23   S    
Cu2   O4    S    
C19   H8    S    
C2    H1    S    
C27   C29   S    
Cu1   O7    S    
C24   H10   S    
C25   C26   A    
C14   C15   A    
C1    C19   S    
Cu2   O8    S    
C18   H7    S    
C16   C17   D    
C4    C5    A    
C1    O1    A    
