data_mof_unit_67091.cif
_audit_creation_date              2012-12-11T17:41:25-0500
_audit_creation_method            fapswitch 2.2
_symmetry_space_group_name_H-M    P1
_symmetry_Int_Tables_number       1
_space_group_crystal_system       triclinic
_cell_length_a                    8.265204
_cell_length_b                    12.759171
_cell_length_c                    14.389866
_cell_angle_alpha                 93.540356
_cell_angle_beta                  90.692288
_cell_angle_gamma                 97.867614
_cell_volume                      1500.03740912

loop_
_atom_site_label
_atom_site_type_symbol
_atom_type_description
_atom_site_fract_x
_atom_site_fract_y
_atom_site_fract_z
_atom_type_partial_charge
Ba1   Ba    Ba6+2 0.855630 0.555280 0.454520 1.687050
Ba2   Ba    Ba6+2 0.334200 0.444810 0.545490 1.651417
C1    C     C_3   0.634453 0.955387 0.198972 -0.391652
C2    C     C_R   0.186609 0.496535 0.196923 0.000978
C3    C     C_R   0.344797 0.541910 0.226599 -0.294909
C4    C     C_3   0.175292 0.821013 0.206247 0.330495
C5    C     C_R   0.453120 0.595562 0.166257 0.031971
C6    C     C_R   0.404075 0.607441 0.075727 -0.069261
C7    C     C_R   0.248579 0.560722 0.040780 0.003664
C8    C     C_R   0.140703 0.500624 0.100204 -0.014319
C9    C     C_R   0.057971 0.513742 0.905205 -0.035812
C10   C     C_R   0.950911 0.453642 0.965324 -0.004781
C11   C     C_R   0.012869 0.508800 0.806852 0.025414
C12   C     C_3   0.671458 0.856109 0.244202 0.318959
C13   C     C_R   0.862068 0.454685 0.775937 -0.285653
C14   C     C_R   0.752081 0.407539 0.837277 0.022290
C15   C     C_R   0.799103 0.401625 0.930282 -0.124236
C16   C     C_3   0.178297 0.870819 0.112837 -0.350828
C17   C     C_R   0.202149 0.573877 0.947119 -0.027991
C18   C     C_R   0.770458 0.175850 0.530967 -0.303026
C19   C     C_R   0.422700 0.818658 0.474982 -0.271167
C20   C     C_R   0.404360 0.996204 0.434715 -0.089133
C21   C     C_R   0.337127 0.890291 0.433892 -0.017648
C22   C     C_R   0.575853 0.848939 0.517020 0.057339
C23   C     C_3   0.471488 0.277901 0.252414 0.303155
C24   C     C_R   0.643965 0.958431 0.522064 -0.070241
C25   C     C_R   0.555554 0.032719 0.480609 -0.058912
C26   C     C_R   0.619855 0.141794 0.487152 0.054495
C27   C     C_R   0.861609 0.104288 0.568232 0.035156
C28   C     C_3   0.210955 0.764656 0.654790 0.287910
C29   C     C_R   0.795992 0.996790 0.566851 -0.012881
C30   C     C_3   0.141720 0.868373 0.666017 -0.305482
C31   C     C_3   0.970923 0.236968 0.341068 0.264341
C32   C     C_3   0.988250 0.120270 0.323020 -0.339600
C33   C     C_3   0.722820 0.676513 0.735620 0.283516
C34   C     C_3   0.441734 0.228605 0.153502 -0.236059
C35   C     C_3   0.769775 0.707607 0.837384 -0.352361
C36   C     C_2   0.394325 0.307188 0.088814 0.395820
C37   C     C_2   0.671031 0.140410 0.754445 0.454826
C38   C     C_2   0.513306 0.034815 0.922990 0.597395
C39   C     C_2   0.400985 0.531158 0.321481 0.565016
C40   C     C_2   0.295182 0.662555 0.901684 0.539223
C41   C     C_3   0.077918 0.214802 0.800802 0.380032
C42   C     C_3   0.041798 0.185303 0.900237 -0.335833
C43   C     C_3   0.497312 0.144695 0.782472 0.189210
C44   C     C_3   0.429754 0.043564 0.830361 -0.175447
C45   C     C_R   0.992709 0.447513 0.060588 -0.036993
H1    H     H_    0.775138 0.878138 0.294695 0.097015
H2    H     H_    0.615756 0.613503 0.732278 0.052917
H3    H     H_    0.613718 0.017163 0.253732 0.100148
H4    H     H_    0.890779 0.757773 0.841958 0.161304
H5    H     H_    0.775722 0.636018 0.876949 0.056101
H6    H     H_    0.677803 0.753409 0.870102 0.173071
H7    H     H_    0.561794 0.824882 0.283196 -0.033760
H8    H     H_    0.523290 0.936658 0.153432 0.127102
H9    H     H_    0.355992 0.302998 0.278439 -0.027980
H10   H     H_    0.571107 0.345799 0.251778 0.040062
H11   H     H_    0.342903 0.159990 0.153228 0.052768
H12   H     H_    0.198239 0.917171 0.726402 0.125010
H13   H     H_    0.554807 0.199398 0.128150 0.100134
H14   H     H_    0.738255 0.986471 0.155468 0.149950
H15   H     H_    0.268298 0.836393 0.067769 0.132863
H16   H     H_    0.199552 0.262715 0.799227 0.095276
H17   H     H_    0.986316 0.265415 0.780666 -0.029383
H18   H     H_    0.068229 0.257843 0.947799 0.045285
H19   H     H_    0.910457 0.152852 0.907300 0.150179
H20   H     H_    0.118654 0.125971 0.922357 0.118402
H21   H     H_    0.422284 0.147663 0.718292 0.063312
H22   H     H_    0.445641 0.972790 0.783403 0.108755
H23   H     H_    0.010198 0.851780 0.681233 0.143997
H24   H     H_    0.103881 0.739716 0.198288 0.070243
H25   H     H_    0.297409 0.042453 0.841579 0.067591
H26   H     H_    0.492026 0.650818 0.032150 0.056321
H27   H     H_    0.717107 0.356197 0.975188 0.140132
H28   H     H_    0.826111 0.452898 0.703225 0.057443
H29   H     H_    0.909156 0.399266 0.103073 0.105155
H30   H     H_    0.334655 0.048953 0.401131 0.103207
H31   H     H_    0.863723 0.945051 0.601924 0.108035
H32   H     H_    0.819496 0.259134 0.533936 0.058750
H33   H     H_    0.303644 0.814418 0.227146 -0.065432
H34   H     H_    0.841348 0.245164 0.353306 0.013734
H35   H     H_    0.363401 0.739547 0.480765 0.119540
H36   H     H_    0.054630 0.855039 0.078565 0.155732
H37   H     H_    0.158324 0.723073 0.589321 0.062727
H38   H     H_    0.161512 0.912554 0.602502 0.088509
H39   H     H_    0.273984 0.295103 0.055341 0.023314
H40   H     H_    0.735794 0.205891 0.720253 -0.098960
H41   H     H_    0.502825 0.092305 0.980763 -0.039309
H42   H     H_    0.475439 0.471724 0.337369 -0.009869
H43   H     H_    0.407863 0.651964 0.867032 0.014566
H44   H     H_    0.216261 0.958348 0.122399 0.110881
H45   H     H_    0.046524 0.266660 0.403967 0.071252
H46   H     H_    0.345444 0.781273 0.651052 -0.009746
H47   H     H_    0.922901 0.088479 0.257661 0.122837
H48   H     H_    0.936736 0.074190 0.381129 0.077371
H49   H     H_    0.119334 0.111005 0.315811 0.129575
H50   H     H_    0.827523 0.646734 0.700659 0.006831
O1    O     O_2   0.887370 0.460630 0.272300 -0.464627
O2    O     O_2   0.204630 0.112278 0.575886 -0.507760
O3    O     O_3   0.073825 0.122710 0.740886 -0.585307
O4    O     O_3   0.129410 0.451380 0.388510 -0.470040
O5    O     O_3   0.575400 0.626570 0.547370 -0.460719
O6    O     O_2   0.344320 0.238700 0.455090 -0.473664
O7    O     O_3   0.521661 0.200838 0.306328 -0.665493
O8    O     O_2   0.426331 0.426892 0.835771 -0.483354
O9    O     O_3   0.482143 0.233204 0.843611 -0.642717
O10   O     O_3   0.670210 0.653170 0.329170 -0.481333
O11   O     O_2   0.791317 0.590892 0.166932 -0.466035
O12   O     O_3   0.683029 0.766136 0.694224 -0.615091
O13   O     O_3   0.020976 0.289856 0.261667 -0.650545
O14   O     O_3   0.715776 0.783379 0.174627 -0.587903
O15   O     O_2   0.845380 0.761330 0.544970 -0.488218
O16   O     O_3   0.088930 0.704860 0.376040 -0.450488
O17   O     O_2   0.998699 0.886975 0.440042 -0.506719
O18   O     O_2   0.490604 0.385781 0.073975 -0.606969
O19   O     O_2   0.737905 0.062626 0.766111 -0.576876
O20   O     O_2   0.593281 0.962259 0.933388 -0.553179
O21   O     O_2   0.370914 0.594326 0.383149 -0.567741
O22   O     O_2   0.252346 0.750452 0.909345 -0.585784
O23   O     O_3   0.101973 0.885775 0.271314 -0.600821
O24   O     O_2   0.302330 0.539400 0.727760 -0.480321
O25   O     O_3   0.060300 0.548700 0.611500 -0.494350
O26   O     O_3   0.519500 0.346920 0.670840 -0.487953
O27   O     O_3   0.172292 0.710452 0.734627 -0.604140
O28   O     O_3   0.614310 0.373510 0.452640 -0.485975
O29   O     O_3   0.100780 0.295230 0.623970 -0.497788
P1    P     P_3+3 0.054400 0.427280 0.286870 0.977560
P2    P     P_3+3 0.668300 0.742890 0.573060 0.998508
P3    P     P_3+3 0.133049 0.842829 0.382311 0.952944
P4    P     P_3+3 0.135310 0.572810 0.713130 0.981094
P5    P     P_3+3 0.061029 0.157117 0.624920 0.959847
P6    P     P_3+3 0.659349 0.654031 0.207935 0.991542
P7    P     P_3+3 0.527024 0.240573 0.425106 0.927389
P8    P     P_3+3 0.545397 0.354296 0.793756 0.934619

loop_
_geom_bond_atom_site_label_1
_geom_bond_atom_site_label_2
_ccdc_geom_bond_type
C39   H42   S    
C13   H28   S    
C23   H9    S    
C37   H40   S    
O24   P4    D    
C14   P8    S    
O3    P5    S    
C41   H16   S    
C5    C6    A    
C43   C44   S    
C38   C44   S    
C9    C17   A    
C24   C25   A    
O16   P3    S    
C36   H39   S    
C16   H44   S    
Ba2   O6    S    
C33   C35   S    
C32   H49   S    
C45   H29   S    
C28   H46   S    
C34   H11   S    
Ba1   O15   S    
C35   H4    S    
C40   O22   D    
Ba2   O5    S    
C13   C14   A    
C21   P3    S    
Ba1   Ba2   S    
Ba1   O25   S    
C44   H22   S    
Ba2   P4    S    
C1    H8    S    
C7    C17   A    
C6    C7    A    
C10   C15   A    
C33   H2    S    
C11   P4    S    
Ba1   P2    S    
C39   O21   D    
C7    C8    A    
C44   H25   S    
C2    P1    S    
C17   C40   S    
O13   P1    S    
C37   C43   S    
C35   H6    S    
C1    H14   S    
C38   O20   D    
C24   C29   A    
C42   H18   S    
C12   O14   S    
Ba1   O16   S    
C10   C45   A    
C4    O23   S    
C1    H3    S    
C41   H17   S    
C31   C32   S    
C18   C27   A    
Ba2   O25   S    
C4    H24   S    
C4    C16   S    
O11   P6    D    
O7    P7    S    
O26   P8    S    
C26   P7    S    
C23   H10   S    
C32   H47   S    
C41   O3    S    
C31   H45   S    
C3    C5    A    
C35   H5    S    
C14   C15   A    
C12   H1    S    
C18   C26   A    
Ba2   O4    S    
Ba2   O26   S    
O23   P3    S    
C40   H43   S    
C41   C42   S    
O12   P2    S    
C4    H33   S    
O9    P8    S    
C43   H21   S    
C16   H36   S    
C5    P6    S    
O27   P4    S    
C32   H48   S    
C42   H19   S    
C1    C12   S    
Ba1   O10   S    
Ba2   O29   S    
O1    P1    D    
C12   H7    S    
C28   O27   S    
C20   C25   A    
C19   C21   A    
C15   H27   S    
O17   P3    D    
C2    C8    A    
Ba1   O4    S    
C25   C26   A    
C43   O9    S    
C29   H31   S    
Ba2   O24   S    
O28   P7    S    
C3    C39   S    
C18   H32   S    
C16   H15   S    
Ba1   P1    S    
C20   H30   S    
C22   C24   A    
O10   P6    S    
C34   H13   S    
C33   O12   S    
Ba1   O1    S    
C30   H23   S    
C9    C10   A    
C23   O7    S    
O5    P2    S    
O2    P5    D    
Ba1   O28   S    
C38   H41   S    
C11   C13   A    
O6    P7    D    
C27   C29   A    
C28   C30   S    
C36   O18   D    
C9    C11   A    
C27   P5    S    
O29   P5    S    
C30   H38   S    
C34   C36   S    
C6    H26   S    
O4    P1    S    
C28   H37   S    
O15   P2    D    
C23   C34   S    
Ba2   O28   S    
O14   P6    S    
C2    C3    A    
C19   H35   S    
C37   O19   D    
C19   C22   A    
C8    C45   A    
C22   P2    S    
C20   C21   A    
C42   H20   S    
C31   O13   S    
C30   H12   S    
C33   H50   S    
C31   H34   S    
Ba1   O5    S    
O25   P4    S    
O8    P8    D    
