data_mof_unit_27085.cif
_audit_creation_date              2013-03-05T16:10:58-0500
_audit_creation_method            fapswitch 2.2
_symmetry_space_group_name_H-M    P1
_symmetry_Int_Tables_number       1
_space_group_crystal_system       triclinic
_cell_length_a                    16.641726
_cell_length_b                    27.890428
_cell_length_c                    8.546941
_cell_angle_alpha                 90.300879
_cell_angle_beta                  104.314345
_cell_angle_gamma                 90.159591
_cell_volume                      3843.77098455

loop_
_atom_site_label
_atom_site_type_symbol
_atom_site_description
_atom_site_fract_x
_atom_site_fract_y
_atom_site_fract_z
_atom_type_partial_charge
P1    P     P_3+3 0.171820 0.553000 0.158080 0.514835
P2    P     P_3+3 0.171820 0.447000 0.658080 0.516010
P3    P     P_3+3 0.671820 0.053000 0.158080 0.528563
P4    P     P_3+3 0.671820 0.947000 0.658080 0.560690
O1    O     O_2   0.163830 0.569270 0.980510 -0.354249
O2    O     O_2   0.163830 0.430730 0.480510 -0.357193
O3    O     O_2   0.663830 0.069270 0.980510 -0.318473
O4    O     O_2   0.663830 0.930730 0.480510 -0.377135
O5    O     O_3   0.095420 0.524330 0.188510 -0.335357
O6    O     O_3   0.095420 0.475670 0.688510 -0.332932
O7    O     O_3   0.595420 0.024330 0.188510 -0.340383
O8    O     O_3   0.595420 0.975670 0.688510 -0.266203
O9    O     O_3   0.028940 0.612400 0.656050 -0.356317
O10   O     O_3   0.028940 0.387600 0.156050 -0.354527
O11   O     O_3   0.528940 0.112400 0.656050 -0.364097
O12   O     O_3   0.528940 0.887600 0.156050 -0.358515
O13   O     O_2   0.174272 0.645345 0.835219 -0.361470
O14   O     O_2   0.174264 0.354950 0.332426 -0.359305
O15   O     O_2   0.669801 0.148615 0.841826 -0.363610
O16   O     O_2   0.673808 0.854706 0.334473 -0.370664
O17   O     O_3   0.258141 0.515333 0.195632 -0.566530
O18   O     O_3   0.258215 0.485010 0.697171 -0.565817
O19   O     O_3   0.758292 0.015577 0.189855 -0.573362
O20   O     O_3   0.755800 0.987715 0.709348 -0.543271
O21   O     O_3   0.068069 0.711904 0.718816 -0.547183
O22   O     O_3   0.066877 0.288277 0.216589 -0.543822
O23   O     O_3   0.562907 0.213321 0.707947 -0.555544
O24   O     O_3   0.566311 0.788124 0.216500 -0.547901
H1    H     H_    0.946746 0.688418 0.682881 0.147392
H2    H     H_    0.944982 0.310872 0.170776 0.145498
H3    H     H_    0.444450 0.186234 0.685246 0.146677
H4    H     H_    0.445700 0.811874 0.185088 0.147007
C1    C     C_3   0.952015 0.764567 0.649775 -0.839135
C2    C     C_3   0.951814 0.234516 0.142986 -0.833271
C3    C     C_3   0.441227 0.261853 0.638375 -0.830492
C4    C     C_3   0.449004 0.735746 0.146787 -0.840085
H5    H     H_    0.953543 0.772604 0.777602 0.268512
H6    H     H_    0.952380 0.227280 0.270643 0.272255
H7    H     H_    0.440452 0.270518 0.764618 0.261648
H8    H     H_    0.450652 0.727511 0.274211 0.268058
H9    H     H_    0.990706 0.791564 0.606916 0.277951
H10   H     H_    0.991186 0.207445 0.102311 0.271708
H11   H     H_    0.478119 0.289686 0.594743 0.281229
H12   H     H_    0.487013 0.708749 0.102083 0.278676
P5    P     P_3+3 0.829210 0.554130 0.532500 0.565927
P6    P     P_3+3 0.829210 0.445870 0.032500 0.580538
P7    P     P_3+3 0.329210 0.054130 0.532500 0.585283
P8    P     P_3+3 0.329210 0.945870 0.032500 0.593011
P9    P     P_3+3 0.904593 0.661657 0.027121 0.497546
P10   P     P_3+3 0.903723 0.338372 0.524088 0.502523
P11   P     P_3+3 0.403026 0.160699 0.024182 0.471710
P12   P     P_3+3 0.404315 0.838183 0.526141 0.497058
O25   O     O_2   0.837400 0.570350 0.710350 -0.331944
O26   O     O_2   0.837400 0.429650 0.210350 -0.324092
O27   O     O_2   0.337400 0.070350 0.710350 -0.347314
O28   O     O_2   0.337400 0.929650 0.210350 -0.296676
O29   O     O_3   0.972820 0.612580 0.035550 -0.313738
O30   O     O_3   0.972820 0.387420 0.535550 -0.312696
O31   O     O_3   0.472820 0.112580 0.035550 -0.358422
O32   O     O_3   0.472820 0.887420 0.535550 -0.320552
O33   O     O_2   0.841702 0.657222 0.860988 -0.402536
O34   O     O_2   0.841229 0.342956 0.357851 -0.398310
O35   O     O_2   0.338966 0.155028 0.859765 -0.402740
O36   O     O_2   0.341315 0.842439 0.360295 -0.401536
O37   O     O_3   0.739652 0.518779 0.504722 -0.560549
O38   O     O_3   0.739814 0.481166 0.009709 -0.568798
O39   O     O_3   0.241070 0.017010 0.496666 -0.530027
O40   O     O_3   0.243960 0.984154 0.017693 -0.543961
O41   O     O_3   0.960266 0.714334 0.013010 -0.529895
O42   O     O_3   0.958397 0.285662 0.507803 -0.526677
O43   O     O_3   0.456135 0.214107 0.007641 -0.531145
O44   O     O_3   0.459275 0.785497 0.510266 -0.532972
C5    C     C_3   0.043426 0.707651 0.098228 0.501960
C6    C     C_3   0.040414 0.291241 0.601155 0.502660
C7    C     C_3   0.541115 0.207516 0.079421 0.511987
C8    C     C_3   0.542850 0.792508 0.593175 0.503142
H13   H     H_    0.072498 0.678603 0.041934 0.126035
H14   H     H_    0.072360 0.320739 0.553266 0.120400
H15   H     H_    0.567163 0.179950 0.012104 0.131297
H16   H     H_    0.571538 0.821406 0.535888 0.127836
H17   H     H_    0.047005 0.698956 0.226460 0.054692
H18   H     H_    0.040952 0.298595 0.729357 0.049964
H19   H     H_    0.551042 0.196387 0.207603 0.023216
H20   H     H_    0.547521 0.801631 0.721752 0.056708
C9    C     C_3   0.093662 0.753303 0.094383 -0.906814
C10   C     C_3   0.089516 0.245498 0.594448 -0.915147
C11   C     C_3   0.588433 0.254249 0.074223 -0.881213
C12   C     C_3   0.592484 0.746849 0.587726 -0.907961
H21   H     H_    0.093623 0.762824 0.968796 0.279716
H22   H     H_    0.094428 0.238231 0.469645 0.279600
H23   H     H_    0.573435 0.269224 0.950733 0.276682
H24   H     H_    0.658100 0.752777 0.653822 0.210310
H25   H     H_    0.067971 0.783905 0.149042 0.293666
H26   H     H_    0.059376 0.214211 0.635881 0.295401
H27   H     H_    0.572997 0.281379 0.157190 0.283284
H28   H     H_    0.590936 0.736671 0.461683 0.279595
C13   C     C_3   0.705093 0.492421 0.847655 0.396611
C14   C     C_3   0.704921 0.513019 0.339390 0.388472
C15   C     C_3   0.207756 0.995886 0.856257 0.379719
C16   C     C_3   0.183659 0.029503 0.352004 0.396916
H29   H     H_    0.674764 0.527926 0.844768 0.102022
H30   H     H_    0.749450 0.493659 0.286644 0.193282
H31   H     H_    0.180538 0.032234 0.854798 0.094603
H32   H     H_    0.154794 0.995889 0.293598 0.121048
H33   H     H_    0.752525 0.496762 0.779689 0.173870
H34   H     H_    0.688409 0.548211 0.279586 0.056041
H35   H     H_    0.253690 0.998432 0.783650 0.165360
H36   H     H_    0.211615 0.047122 0.262025 0.081035
C17   C     C_3   0.638473 0.456032 0.769635 -0.988598
C18   C     C_3   0.626592 0.482727 0.313214 -0.930712
C19   C     C_3   0.137782 0.961055 0.781593 -0.995867
C20   C     C_3   0.115176 0.060590 0.387980 -1.031572
H37   H     H_    0.593471 0.451616 0.845259 0.264462
H38   H     H_    0.641156 0.447341 0.372359 0.269029
H39   H     H_    0.091151 0.960489 0.854756 0.262803
H40   H     H_    0.082167 0.040846 0.465927 0.263638
H41   H     H_    0.604693 0.468913 0.648797 0.250789
H42   H     H_    0.600159 0.476919 0.181868 0.239278
H43   H     H_    0.107002 0.972606 0.657242 0.244417
H44   H     H_    0.070012 0.069978 0.273360 0.247787
H45   H     H_    0.666223 0.420792 0.754787 0.247930
H46   H     H_    0.579908 0.501323 0.364514 0.248943
H47   H     H_    0.161945 0.924329 0.775218 0.251923
H48   H     H_    0.141429 0.094087 0.450635 0.259845
Ba1   Ba    Ba6+2 0.000400 0.534870 0.845190 1.675449
Ba2   Ba    Ba6+2 0.000400 0.465130 0.345190 1.677718
Ba3   Ba    Ba6+2 0.500400 0.034870 0.845190 1.696590
Ba4   Ba    Ba6+2 0.500400 0.965130 0.345190 1.690643
C21   C     C_3   0.234965 0.470457 0.124723 0.382174
C22   C     C_3   0.235878 0.529191 0.622530 0.384389
C23   C     C_3   0.734735 0.970525 0.120733 0.379855
C24   C     C_3   0.799782 0.991652 0.588648 0.452876
H49   H     H_    0.204773 0.474191 0.994440 0.106733
H50   H     H_    0.206046 0.524258 0.492320 0.106231
H51   H     H_    0.697785 0.973871 0.994281 0.128500
H52   H     H_    0.758466 0.993404 0.466127 0.125639
H53   H     H_    0.192439 0.451818 0.186468 0.137017
H54   H     H_    0.193323 0.548696 0.682206 0.134774
H55   H     H_    0.698282 0.950763 0.192541 0.124589
H56   H     H_    0.833417 0.026473 0.608055 0.097442
C25   C     C_3   0.312816 0.440571 0.142757 -0.884551
C26   C     C_3   0.314249 0.558809 0.639190 -0.883931
C27   C     C_3   0.813065 0.942566 0.121650 -0.919007
C28   C     C_3   0.864026 0.952083 0.600570 -1.029235
H57   H     H_    0.355965 0.458221 0.080258 0.257428
H58   H     H_    0.357515 0.540113 0.579311 0.256057
H59   H     H_    0.847947 0.960322 0.042672 0.263550
H60   H     H_    0.835003 0.919910 0.532810 0.268067
H61   H     H_    0.296430 0.404743 0.088667 0.239673
H62   H     H_    0.298644 0.594017 0.581547 0.238448
H63   H     H_    0.796920 0.905756 0.076876 0.245112
H64   H     H_    0.914226 0.964357 0.545290 0.239217
H65   H     H_    0.344191 0.436288 0.272612 0.274609
H66   H     H_    0.345135 0.564519 0.768857 0.276904
H67   H     H_    0.853136 0.940556 0.246196 0.272386
H68   H     H_    0.891773 0.942853 0.728790 0.268451
O45   O     O_3   0.904940 0.476110 0.001150 -0.270989
O46   O     O_3   0.904940 0.523890 0.501150 -0.266762
O47   O     O_3   0.404940 0.976110 0.001150 -0.281390
O48   O     O_3   0.404940 0.023890 0.501150 -0.258315
P13   P     P_3+3 0.106883 0.343579 0.176529 0.478378
P14   P     P_3+3 0.107582 0.656454 0.678754 0.476946
P15   P     P_3+3 0.606675 0.843491 0.178084 0.473101
P16   P     P_3+3 0.605986 0.157775 0.679836 0.489761
C29   C     C_3   0.984653 0.714292 0.633066 0.415629
C30   C     C_3   0.984448 0.284784 0.125667 0.411953
C31   C     C_3   0.478463 0.212411 0.627819 0.403814
C32   C     C_3   0.482557 0.786012 0.132601 0.417409
H69   H     H_    0.978220 0.706319 0.503123 0.092950
H70   H     H_    0.980343 0.291533 0.995925 0.087268
H71   H     H_    0.470554 0.202580 0.498895 0.083305
H72   H     H_    0.475540 0.794297 0.003115 0.095284
H73   H     H_    0.886949 0.767492 0.577395 0.230240
H74   H     H_    0.887107 0.230915 0.068919 0.229961
H75   H     H_    0.376410 0.262736 0.563870 0.227796
H76   H     H_    0.383784 0.732975 0.074794 0.230268
H77   H     H_    0.158823 0.747717 0.163130 0.210006
H78   H     H_    0.153089 0.249507 0.673335 0.209353
H79   H     H_    0.656138 0.247676 0.110866 0.207886
H80   H     H_    0.567435 0.716492 0.644252 0.292495
C33   C     C_2   0.835592 0.382720 0.753657 0.055446
C34   C     C_2   0.836552 0.617300 0.256422 0.050713
C35   C     C_2   0.334785 0.882878 0.753745 0.065417
C36   C     C_2   0.345552 0.116243 0.265690 -0.007772
C37   C     C_R   0.134602 0.621591 0.386934 -0.109084
C38   C     C_R   0.133665 0.378289 0.885096 -0.109552
C39   C     C_R   0.655775 0.114039 0.423423 -0.032202
C40   C     C_R   0.633663 0.878497 0.887516 -0.115879
C41   C     C_2   0.784887 0.346076 0.970651 -0.317894
C42   C     C_2   0.784655 0.653909 0.472660 -0.312736
C43   C     C_2   0.283426 0.846473 0.970517 -0.317225
C44   C     C_2   0.280864 0.152773 0.465677 -0.335940
C45   C     C_2   0.815455 0.387454 0.913524 0.150524
C46   C     C_2   0.815818 0.612604 0.415467 0.125675
C47   C     C_2   0.313067 0.887907 0.912022 0.123130
C48   C     C_2   0.318687 0.112345 0.417835 0.137083
C49   C     C_2   0.845927 0.339253 0.688938 0.134779
C50   C     C_2   0.847194 0.660740 0.192676 0.150869
C51   C     C_2   0.346887 0.839303 0.691694 0.146144
C52   C     C_2   0.349036 0.159128 0.192968 0.144377
C53   C     C_3   0.829589 0.296221 0.772661 -0.222261
C54   C     C_3   0.830819 0.703672 0.277981 -0.225266
C55   C     C_3   0.331882 0.796687 0.778665 -0.233349
C56   C     C_3   0.325699 0.201935 0.269673 -0.220994
C57   C     C_3   0.771345 0.303028 0.875287 0.032634
C58   C     C_3   0.771335 0.696782 0.377821 0.036260
C59   C     C_3   0.271305 0.803258 0.876333 0.039306
C60   C     C_3   0.264258 0.194148 0.364157 0.047675
C61   C     C_2   0.810472 0.249649 0.674303 0.406782
C62   C     C_2   0.816886 0.751321 0.186641 0.409822
C63   C     C_2   0.318597 0.748874 0.687662 0.415824
C64   C     C_2   0.315014 0.249744 0.179961 0.417213
C65   C     C_2   0.242671 0.736131 0.594265 -0.277166
C66   C     C_2   0.239532 0.263453 0.088011 -0.281694
C67   C     C_2   0.733078 0.240563 0.579056 -0.272665
C68   C     C_2   0.740756 0.763645 0.093496 -0.276649
C69   C     C_R   0.273116 0.680635 0.377878 0.106143
C70   C     C_R   0.271521 0.319281 0.874340 0.111303
C71   C     C_R   0.750584 0.189881 0.340580 0.096298
C72   C     C_R   0.769695 0.818307 0.874329 0.110190
C73   C     C_R   0.226067 0.690684 0.499539 0.023766
C74   C     C_R   0.224276 0.309124 0.995517 0.023392
C75   C     C_R   0.711195 0.196932 0.475965 0.004428
C76   C     C_R   0.723801 0.808823 0.997809 0.026821
C77   C     C_R   0.252629 0.638184 0.271797 -0.360404
C78   C     C_R   0.251728 0.361819 0.770047 -0.357888
C79   C     C_R   0.735774 0.145380 0.242931 -0.346650
C80   C     C_R   0.749623 0.860599 0.769080 -0.377485
C81   C     C_R   0.187972 0.609865 0.276372 0.213841
C82   C     C_R   0.187330 0.390128 0.775156 0.215803
C83   C     C_R   0.689330 0.109740 0.279204 0.180085
C84   C     C_R   0.686755 0.889953 0.776314 0.203851
C85   C     C_R   0.156792 0.657411 0.506009 0.114303
C86   C     C_R   0.155371 0.342403 0.002797 0.102981
C87   C     C_R   0.659979 0.156580 0.513253 0.163710
C88   C     C_R   0.655295 0.842442 0.005157 0.124365
H81   H     H_    0.761248 0.347907 0.077444 0.207694
H82   H     H_    0.761032 0.652200 0.579477 0.204059
H83   H     H_    0.261057 0.848029 0.078853 0.207398
H84   H     H_    0.255240 0.151151 0.570229 0.197491
H85   H     H_    0.292133 0.629530 0.192362 0.195661
H86   H     H_    0.291455 0.370472 0.691159 0.194369
H87   H     H_    0.763899 0.141837 0.142191 0.205957
H88   H     H_    0.788070 0.867790 0.687433 0.188085
H89   H     H_    0.190780 0.760389 0.584886 0.153260
H90   H     H_    0.186500 0.239872 0.078771 0.151421
H91   H     H_    0.684512 0.266946 0.572459 0.153731
H92   H     H_    0.688937 0.739172 0.084659 0.153605
Br1   Br    Br    0.839355 0.438310 0.632589 -0.391713
Br2   Br    Br    0.840018 0.561370 0.135757 -0.416801
Br3   Br    Br    0.338572 0.938196 0.632058 -0.368446
Br4   Br    Br    0.366270 0.058388 0.168708 -0.365994
Br5   Br    Br    0.032308 0.588292 0.360458 -0.419962
Br6   Br    Br    0.032295 0.412074 0.861324 -0.423942
Br7   Br    Br    0.625003 0.056801 0.509074 -0.347450
Br8   Br    Br    0.531999 0.912137 0.861633 -0.428160
N1    N     N_R   0.874044 0.213206 0.703936 0.252385
O49   O     O_R   0.855856 0.167994 0.677484 -0.398347
O50   O     O_R   0.948718 0.224309 0.784236 -0.455342
N2    N     N_R   0.883530 0.785993 0.225005 0.251011
O51   O     O_R   0.958030 0.771862 0.293999 -0.455145
O52   O     O_R   0.868126 0.831667 0.225550 -0.416818
N3    N     N_R   0.385341 0.714626 0.726225 0.250010
O53   O     O_R   0.370044 0.668927 0.728372 -0.415175
O54   O     O_R   0.459956 0.729364 0.793632 -0.457873
N4    N     N_R   0.383789 0.283025 0.219366 0.252305
O55   O     O_R   0.457271 0.267391 0.288836 -0.453831
O56   O     O_R   0.371405 0.329032 0.219398 -0.412759

loop_
_geom_bond_atom_site_label_1
_geom_bond_atom_site_label_2
_geom_bond_distance
_ccdc_geom_bond_type
C24   C28   1.524865 S    
C37   C85   1.404157 A    
C12   H28   1.106709 S    
P1    O17   1.747638 S    
C39   C87   1.401980 A    
C14   C18   1.520089 S    
C11   H23   1.107110 S    
C26   H58   1.110750 S    
C15   H31   1.110380 S    
C42   H82   1.080799 S    
C80   C84   1.343471 D    
C28   H60   1.108011 S    
O24   P15   1.747066 S    
C41   H81   1.080586 S    
C6    H18   1.111562 S    
C18   H42   1.110629 S    
C17   H41   1.108902 S    
O9    P14   1.767225 S    
O8    Ba3   2.838730 S    
P2    O2    1.555505 D    
C67   H91   1.085839 S    
O26   Ba2   2.844790 S    
C61   C67   1.365037 D    
C7    H15   1.109319 S    
P1    O1    1.560362 D    
P4    C84   1.873327 S    
O38   C13   1.400232 S    
P7    O27   1.556869 D    
P1    Ba1   3.427938 S    
O37   C14   1.396393 S    
C20   H48   1.107830 S    
P3    O3    1.560362 D    
C71   C75   1.476727 S    
C79   H87   1.081124 S    
C3    H7    1.107688 S    
P4    O20   1.765729 S    
O14   P13   1.545360 D    
Ba1   O45   2.835826 S    
C44   H84   1.082193 S    
C21   C25   1.518440 S    
C25   H65   1.110802 S    
C33   Br1   1.877985 S    
O2    Ba2   2.850613 S    
O31   Ba3   2.809449 S    
C16   H32   1.110367 S    
P9    O29   1.771198 S    
C72   C80   1.475428 S    
C78   H86   1.082227 S    
C19   H43   1.109531 S    
N1    O49   1.301482 A    
H1    C29   1.110640 S    
C53   C57   1.471253 A    
P5    O37   1.750476 S    
P15   C88   1.852312 S    
P12   O32   1.771083 S    
P14   C85   1.857260 S    
C9    H25   1.107299 S    
C42   C58   1.434838 A    
C66   C74   1.491679 S    
P13   C86   1.857202 S    
C12   H24   1.109874 S    
P5    Ba1   3.435978 S    
C36   C52   1.358498 D    
C2    H10   1.110335 S    
C50   C54   1.459622 A    
C35   C47   1.490094 S    
C8    H16   1.111232 S    
O41   C5    1.408873 S    
C34   C46   1.489162 S    
P4    O8    1.578149 S    
O6    Ba1   2.838730 S    
C3    H11   1.110041 S    
C18   H38   1.111002 S    
C40   C88   1.409048 A    
P4    O4    1.555505 D    
P9    C50   1.893122 S    
O9    Ba1   2.815185 S    
C27   H63   1.102807 S    
C62   N2    1.443450 S    
C64   N4    1.444015 S    
C38   Br6   1.901691 S    
P9    O41   1.755275 S    
O18   C22   1.398960 S    
P16   C87   1.862223 S    
C51   C55   1.458422 A    
C44   C60   1.433392 A    
C72   C76   1.472237 S    
C55   C63   1.527929 S    
C22   H50   1.108491 S    
P11   O43   1.754026 S    
C56   C64   1.530408 S    
C54   C62   1.533757 S    
C10   H78   1.110059 S    
C22   C26   1.518098 S    
C75   C87   1.492443 S    
C23   C27   1.519234 S    
C53   C61   1.532676 S    
P10   C49   1.892291 S    
O4    Ba4   2.850613 S    
C12   H80   1.107228 S    
C35   Br3   1.874767 S    
P7    O48   1.594351 S    
Ba2   O46   2.832849 S    
O12   P15   1.764435 S    
C29   H69   1.110337 S    
P8    O47   1.592124 S    
C8    H20   1.110476 S    
C16   H36   1.108577 S    
C43   H83   1.080717 S    
P9    O33   1.545793 D    
P4    Ba4   3.434417 S    
C19   H47   1.107453 S    
P10   O30   1.771242 S    
C56   C60   1.467546 A    
P7    C48   1.886995 S    
O32   Ba4   2.820637 S    
C70   C74   1.474974 S    
P11   O35   1.546690 D    
C1    H9    1.110189 S    
H2    C30   1.110987 S    
C69   C73   1.474321 S    
N2    O52   1.300320 A    
C10   H22   1.107474 S    
P3    C83   1.868693 S    
N4    O55   1.297971 A    
C20   H44   1.110350 S    
C23   H55   1.110980 S    
P2    C82   1.864174 S    
Ba1   O46   2.990304 S    
N2    O51   1.297616 A    
C67   C75   1.489089 S    
C31   H71   1.109771 S    
O21   C29   1.402335 S    
P3    O19   1.747035 S    
C36   C48   1.480324 S    
O16   P15   1.545277 D    
C55   C59   1.470456 A    
C77   C81   1.341460 D    
C4    C32   1.524079 S    
C35   C51   1.358760 D    
C21   H53   1.111348 S    
O19   C23   1.398728 S    
C11   H27   1.107662 S    
N1    O50   1.298113 A    
C28   H68   1.110797 S    
C27   H59   1.110645 S    
C78   C82   1.342120 D    
C68   C76   1.494942 S    
O42   C6    1.408116 S    
C2    H74   1.109983 S    
C33   C45   1.490462 S    
C41   C45   1.398028 A    
O23   P16   1.749046 S    
P8    Ba4   3.429103 S    
C13   C17   1.524750 S    
O20   C24   1.409305 S    
C3    C31   1.524723 S    
C80   H88   1.076149 S    
O24   C32   1.401875 S    
C4    H8    1.107927 S    
O21   P14   1.747227 S    
C24   H52   1.102916 S    
C15   C19   1.525353 S    
P12   O44   1.755252 S    
P6    O26   1.561719 D    
C10   H26   1.107718 S    
C40   Br8   1.902010 S    
P1    O5    1.575946 S    
O44   C8    1.408713 S    
C66   H90   1.086013 S    
P12   C51   1.893385 S    
C43   C59   1.431638 A    
C26   H66   1.110765 S    
C65   H89   1.086059 S    
O12   Ba4   2.804151 S    
O17   C21   1.398709 S    
C65   C73   1.488327 S    
N4    O56   1.300192 A    
O39   C16   1.408979 S    
C5    H17   1.110920 S    
C21   H49   1.108189 S    
P2    Ba2   3.434417 S    
C7    C11   1.527459 S    
C63   C65   1.362282 D    
C11   H79   1.108359 S    
H3    C31   1.110479 S    
C16   C20   1.523511 S    
H4    C32   1.110340 S    
P8    C47   1.894525 S    
P12   O36   1.546004 D    
Ba1   Ba2   4.686000 S    
P10   O34   1.545529 D    
C4    H12   1.110050 S    
C4    H76   1.109687 S    
C24   H56   1.110570 S    
C39   Br7   1.881412 S    
Ba3   Ba4   4.686000 S    
P2    O6    1.578149 S    
C36   Br4   1.881498 S    
C20   H40   1.109932 S    
C1    H73   1.109792 S    
Ba4   O48   2.832849 S    
P6    C45   1.899020 S    
C1    H5    1.108232 S    
C5    C9    1.526196 S    
Ba2   O45   2.994371 S    
C54   C58   1.470853 A    
P5    C46   1.902328 S    
N3    O54   1.297567 A    
C40   C84   1.484222 S    
C8    C12   1.526558 S    
C34   C50   1.359971 D    
O22   C30   1.402310 S    
C39   C83   1.478092 S    
C9    H21   1.106935 S    
C73   C85   1.489768 S    
C2    H6    1.108375 S    
Ba3   O47   2.835826 S    
C63   N3    1.443255 S    
C37   C81   1.483959 S    
P6    Ba2   3.429103 S    
C1    C29   1.523829 S    
P5    O46   1.594351 S    
O43   C7    1.408470 S    
C64   C66   1.363596 D    
O11   P16   1.773773 S    
P8    O40   1.757806 S    
O10   Ba2   2.804151 S    
C6    C10   1.525425 S    
O27   Ba3   2.854239 S    
C19   H39   1.110615 S    
P11   C52   1.879267 S    
P6    O38   1.757028 S    
O30   Ba2   2.820637 S    
C38   C82   1.485316 S    
C17   H37   1.110617 S    
C68   H92   1.085920 S    
C74   C86   1.490260 S    
C15   H35   1.099639 S    
C25   H61   1.103586 S    
O22   P13   1.747018 S    
C23   H51   1.108003 S    
O5    Ba2   2.841783 S    
C14   H34   1.112432 S    
C49   C53   1.459390 A    
C27   H67   1.109407 S    
C3    H75   1.109184 S    
C26   H62   1.103482 S    
O10   P13   1.766171 S    
N3    O53   1.300170 A    
O7    Ba4   2.841783 S    
C34   Br2   1.874365 S    
O40   C15   1.403085 S    
C13   H33   1.096417 S    
C28   H64   1.110671 S    
C14   H30   1.099465 S    
P2    O18   1.747249 S    
C18   H46   1.110448 S    
O29   Ba1   2.809449 S    
C37   Br5   1.900064 S    
P6    O45   1.592124 S    
C7    H19   1.112767 S    
C79   C83   1.341273 D    
C69   C77   1.474343 S    
P8    O28   1.561719 D    
P7    Ba3   3.435978 S    
C62   C68   1.365140 D    
C25   H57   1.110752 S    
C30   H70   1.111104 S    
C33   C49   1.358851 D    
C17   H45   1.107063 S    
P3    Ba3   3.427938 S    
O15   P16   1.545369 D    
O28   Ba4   2.844790 S    
P10   O42   1.753949 S    
C61   N1    1.446613 S    
O25   Ba1   2.854239 S    
C43   C47   1.397699 A    
C76   C88   1.491169 S    
P3    O7    1.575946 S    
O13   P14   1.545466 D    
C42   C46   1.399230 A    
P5    O25   1.556869 D    
C71   C79   1.477641 S    
P1    C81   1.859098 S    
C32   H72   1.109399 S    
P11   O31   1.764625 S    
C44   C48   1.400429 A    
C9    H77   1.110069 S    
C6    H14   1.111614 S    
O1    Ba1   2.841410 S    
C5    H13   1.111363 S    
O11   Ba3   2.815185 S    
C52   C56   1.458200 A    
C41   C57   1.433192 A    
O3    Ba3   2.841410 S    
C2    C30   1.523214 S    
C77   H85   1.082245 S    
Ba3   O48   2.990304 S    
C70   C78   1.476053 S    
P7    O39   1.755899 S    
C13   H29   1.110348 S    
Ba4   O47   2.994371 S    
O23   C31   1.402943 S    
C38   C86   1.406101 A    
C22   H54   1.111509 S    
