data_mof_unit_66364.cif
_audit_creation_date              2013-03-05T15:39:42-0500
_audit_creation_method            fapswitch 2.2
_symmetry_space_group_name_H-M    P1
_symmetry_Int_Tables_number       1
_space_group_crystal_system       triclinic
_cell_length_a                    18.938547
_cell_length_b                    19.168687
_cell_length_c                    18.864657
_cell_angle_alpha                 109.818793
_cell_angle_beta                  109.086825
_cell_angle_gamma                 109.73121
_cell_volume                      5257.12523249

loop_
_atom_site_label
_atom_site_type_symbol
_atom_site_description
_atom_site_fract_x
_atom_site_fract_y
_atom_site_fract_z
_atom_type_partial_charge
O1    O     O_R   0.462500 0.410660 0.551220 -0.527771
O2    O     O_R   0.359440 0.411300 0.448810 -0.601214
C1    C     C_R   0.382453 0.382690 0.500261 0.894085
O3    O     O_R   0.551530 0.589280 0.640810 -0.580026
O4    O     O_R   0.448470 0.589920 0.538390 -0.584398
C2    C     C_R   0.497008 0.614694 0.618762 0.852827
Cu1   Cu    Cu3+1 0.561020 0.499620 0.560640 1.110703
Cu2   Cu    Cu3+1 0.438980 0.500380 0.439360 1.066951
O5    O     O_R   0.640560 0.588700 0.551190 -0.586427
O6    O     O_R   0.537500 0.589340 0.448780 -0.543116
O7    O     O_R   0.551530 0.410080 0.461610 -0.535092
O8    O     O_R   0.448470 0.410720 0.359190 -0.568462
C3    C     C_R   0.617814 0.614591 0.497424 0.887010
C4    C     C_R   0.496799 0.379236 0.381248 0.886409
H1    H     H_    0.471606 0.738466 0.610542 0.200551
C5    C     C_R   0.507913 0.612920 0.782350 0.365440
C6    C     C_R   0.541223 0.628183 0.867702 -0.181316
H2    H     H_    0.542876 0.577780 0.880783 0.193010
C7    C     C_R   0.566492 0.705982 0.936031 -0.140365
C8    C     C_R   0.554380 0.767559 0.919434 -0.110791
H3    H     H_    0.571361 0.825758 0.974018 0.156152
C9    C     C_R   0.522365 0.754596 0.834300 -0.005186
C10   C     C_R   0.508366 0.680762 0.766709 0.002256
C11   C     C_R   0.494025 0.677812 0.686494 -0.133785
C12   C     C_R   0.482939 0.741146 0.671827 -0.235452
C13   C     C_R   0.484647 0.807377 0.733935 0.337016
C14   C     C_R   0.503890 0.813778 0.815361 -0.181878
C15   C     C_2   0.181032 0.253993 0.502856 -0.129448
C16   C     C_2   0.177406 0.179433 0.489904 -0.292011
C17   C     C_2   0.241417 0.313603 0.489602 -0.093358
C18   C     C_2   0.318114 0.319455 0.505216 -0.208981
H4    H     H_    0.225085 0.357008 0.472634 0.182933
C19   C     C_2   0.475346 0.167707 0.238043 -0.196840
C20   C     C_2   0.507219 0.182921 0.187659 -0.357733
C21   C     C_2   0.488143 0.238512 0.314098 0.353388
C22   C     C_2   0.490311 0.308910 0.311917 -0.392009
H5    H     H_    0.477122 0.311038 0.252397 0.160515
C23   C     C_2   0.755468 0.739067 0.425498 -0.170264
C24   C     C_2   0.808252 0.818776 0.494603 -0.342435
H6    H     H_    0.764721 0.721499 0.369469 0.205083
H7    H     H_    0.795039 0.839634 0.547522 0.160168
C25   C     C_2   0.681209 0.674118 0.420573 0.358828
C26   C     C_2   0.686554 0.675244 0.494196 -0.403935
H8    H     H_    0.747171 0.719440 0.555279 0.148896
O9    O     O_R   0.462540 0.048930 0.908310 -0.567403
O10   O     O_R   0.359500 0.945890 0.908340 -0.543877
C27   C     C_R   0.382286 0.994219 0.876652 0.939124
O11   O     O_R   0.551580 0.958790 0.907180 -0.563096
O12   O     O_R   0.448540 0.855750 0.907210 -0.557745
C28   C     C_R   0.500767 0.879382 0.879155 0.865321
Cu3   Cu    Cu3+1 0.561070 0.057880 0.996780 1.050346
Cu4   Cu    Cu3+1 0.439050 0.935860 0.996810 1.064144
O13   O     O_R   0.640630 0.047850 0.085250 -0.585692
O14   O     O_R   0.537580 0.944800 0.085280 -0.589661
O15   O     O_R   0.551590 0.137990 0.086380 -0.584817
O16   O     O_R   0.448540 0.034950 0.086410 -0.586554
C29   C     C_R   0.617734 0.001168 0.117890 0.800973
C30   C     C_R   0.501343 0.115039 0.116488 0.851256
O17   O     O_R   0.910970 0.052410 0.463390 -0.604302
O18   O     O_R   0.910970 0.948690 0.359670 -0.536756
C31   C     C_R   0.880751 0.997990 0.382154 0.742977
O19   O     O_R   0.089030 0.140870 0.551850 -0.576560
O20   O     O_R   0.089030 0.037160 0.448130 -0.572241
C32   C     C_R   0.115543 0.116791 0.497539 0.847145
Cu5   Cu    Cu3+1 1.000000 0.061410 0.561410 1.012307
Cu6   Cu    Cu3+1 1.000000 0.938590 0.438590 1.103476
O21   O     O_R   0.089030 0.051310 0.640330 -0.586737
O22   O     O_R   0.089030 0.947590 0.536610 -0.534473
O23   O     O_R   0.910970 0.962840 0.551870 -0.591566
O24   O     O_R   0.910970 0.859130 0.448150 -0.554360
C33   C     C_R   0.113959 0.996424 0.617322 0.913135
C34   C     C_R   0.880379 0.882911 0.498323 0.883517
C35   C     C_2   0.174207 0.917455 0.673271 0.288777
C36   C     C_2   0.171851 0.990212 0.685618 -0.470970
C37   C     C_2   0.237013 0.917353 0.745361 0.291667
C38   C     C_2   0.316650 0.987574 0.802633 -0.425245
C39   C     C_2   0.747024 0.001100 0.320429 -0.267930
C40   C     C_2   0.809083 0.987013 0.310179 0.196256
H9    H     H_    0.748725 0.019456 0.382391 0.164209
C41   C     C_2   0.673501 0.988911 0.247954 -0.095277
C42   C     C_2   0.686649 0.014164 0.193138 -0.220741
H10   H     H_    0.752235 0.050244 0.206487 0.180575
H11   H     H_    0.338667 0.283020 0.531591 0.169278
H12   H     H_    0.444840 0.103048 0.227281 0.207715
H13   H     H_    0.544788 0.248271 0.202809 0.176171
N1    N     N_R   0.490532 0.226847 0.385960 0.127545
O25   O     O_R   0.429364 0.157526 0.371583 -0.348345
O26   O     O_R   0.561948 0.273871 0.460463 -0.303656
N2    N     N_R   0.608441 0.606883 0.335941 0.146359
O27   O     O_R   0.587339 0.622967 0.272836 -0.326896
O28   O     O_R   0.573668 0.527366 0.317707 -0.354105
N3    N     N_R   0.112906 0.837360 0.592787 0.176300
O29   O     O_R   0.030365 0.809752 0.560311 -0.322329
O30   O     O_R   0.138277 0.785381 0.560797 -0.263946
N4    N     N_R   0.459366 0.525680 0.712731 0.109678
O31   O     O_R   0.481763 0.470491 0.720944 -0.347001
O32   O     O_R   0.381901 0.497444 0.652570 -0.397378
H14   H     H_    0.211434 0.047048 0.750009 0.143024
N5    N     N_R   0.212502 0.839366 0.748838 0.173135
O33   O     O_R   0.135337 0.795946 0.735740 -0.294745
O34   O     O_R   0.259893 0.803583 0.748009 -0.273128
H15   H     H_    0.336456 0.041960 0.792578 0.146881
N6    N     N_R   0.799538 0.946409 0.225082 0.133631
O35   O     O_R   0.866240 0.972896 0.214526 -0.337976
O36   O     O_R   0.728775 0.875160 0.162165 -0.355749
H16   H     H_    0.609670 0.961338 0.241207 0.176666
H17   H     H_    0.591015 0.716690 0.001498 0.206619
N7    N     N_R   0.466863 0.867366 0.713067 0.138452
O37   O     O_R   0.415662 0.890580 0.732743 -0.327343
O38   O     O_R   0.491702 0.889345 0.663506 -0.324375
H18   H     H_    0.136211 0.269608 0.518908 0.179716
H19   H     H_    0.215274 0.159383 0.464407 0.166676

loop_
_geom_bond_atom_site_label_1
_geom_bond_atom_site_label_2
_geom_bond_distance
_ccdc_geom_bond_type
Cu6   O22   1.959629 S    
O10   Cu4   1.964908 S    
C35   C36   1.352720 D    
C16   H19   1.086157 S    
N4    O31   1.301613 A    
C26   H8    1.086103 S    
C42   H10   1.087114 S    
Cu1   Cu2   2.676502 S    
C36   H14   1.086311 S    
Cu6   O24   1.961245 S    
C39   C40   1.348761 D    
Cu1   O7    1.966240 S    
C13   C14   1.408276 A    
C15   C16   1.339065 D    
C23   H6    1.086696 S    
C27   C38   1.465758 S    
C23   C25   1.479992 S    
C4    C22   1.459617 S    
C23   C24   1.341289 D    
O7    C4    1.293424 A    
N1    O26   1.300659 A    
H1    C12   1.084118 S    
O9    Cu3   1.962088 S    
C41   H16   1.085930 S    
C18   H11   1.085990 S    
N7    O37   1.300293 A    
O5    C3    1.288632 A    
O19   C32   1.298902 A    
C6    C7    1.387705 A    
O11   Cu3   1.972540 S    
C21   C22   1.351179 D    
N7    O38   1.301463 A    
C5    C6    1.402765 A    
Cu5   O21   1.967506 S    
C24   C34   1.458470 S    
N2    O28   1.301475 A    
Cu3   O15   1.967716 S    
C14   C28   1.450441 S    
O11   C28   1.286472 A    
C16   C32   1.453596 S    
O18   Cu6   1.967507 S    
C35   C37   1.486523 S    
O3    Cu1   1.974132 S    
C37   N5    1.439562 S    
Cu4   O14   1.962188 S    
C6    H2    1.082747 S    
O9    C27   1.293050 A    
C15   H18   1.086298 S    
C38   H15   1.086322 S    
O17   C31   1.305182 A    
Cu3   Cu4   2.676394 S    
C11   C12   1.398693 A    
C24   H7    1.085982 S    
C13   N7    1.439616 S    
O13   C29   1.286125 A    
N1    O25   1.300754 A    
C12   C13   1.387248 A    
O18   C31   1.285546 A    
O1    C1    1.287769 A    
C20   H13   1.086064 S    
O23   C34   1.293022 A    
C37   C38   1.353229 D    
C33   C36   1.464439 S    
N5    O33   1.300977 A    
C31   C40   1.462277 S    
Cu2   O8    1.974128 S    
O12   Cu4   1.967838 S    
C2    C11   1.464490 S    
N3    O30   1.301152 A    
C19   C20   1.340582 D    
C39   H9    1.086264 S    
N6    O36   1.301797 A    
C1    C18   1.454914 S    
O3    C2    1.293319 A    
N5    O34   1.301481 A    
C8    C9    1.414039 A    
Cu5   Cu6   2.685542 S    
C5    C10   1.425692 A    
C9    C14   1.413567 A    
C29   C42   1.452437 S    
C25   C26   1.351268 D    
C3    C26   1.458804 S    
C39   C41   1.476954 S    
Cu1   O5    1.965172 S    
O10   C27   1.294642 A    
C22   H5    1.085955 S    
C5    N4    1.431634 S    
O19   Cu5   1.961249 S    
C40   N6    1.443427 S    
O1    Cu1   1.962165 S    
O2    Cu2   1.965173 S    
C35   N3    1.439878 S    
O8    C4    1.292008 A    
C41   C42   1.338696 D    
O6    C3    1.295672 A    
O4    Cu2   1.966242 S    
N4    O32   1.300649 A    
C25   N2    1.440734 S    
C7    C8    1.389373 A    
C15   C17   1.474572 S    
O2    C1    1.295558 A    
O17   Cu5   1.959633 S    
C17   H4    1.086276 S    
C17   C18   1.340502 D    
O4    C2    1.294163 A    
O22   C33   1.297096 A    
Cu5   O23   1.966015 S    
N3    O29   1.301628 A    
C19   C21   1.479658 S    
O16   C30   1.296323 A    
O21   C33   1.295351 A    
C19   H12   1.086435 S    
O20   Cu6   1.966017 S    
C10   C11   1.424667 A    
O20   C32   1.289379 A    
C8    H3    1.081901 S    
Cu2   O6    1.962165 S    
O12   C28   1.290746 A    
O15   C30   1.289163 A    
N6    O35   1.301246 A    
C20   C30   1.458770 S    
C9    C10   1.414573 A    
O24   C34   1.297565 A    
Cu3   O13   1.965005 S    
N2    O27   1.301095 A    
C21   N1    1.436006 S    
Cu4   O16   1.972539 S    
O14   C29   1.296647 A    
C7    H17   1.082442 S    
