data_mof_unit_7686.cif
_audit_creation_date              2012-12-11T14:41:14-0500
_audit_creation_method            fapswitch 2.2
_symmetry_space_group_name_H-M    P1
_symmetry_Int_Tables_number       1
_space_group_crystal_system       triclinic
_cell_length_a                    6.939396
_cell_length_b                    17.601882
_cell_length_c                    19.034906
_cell_angle_alpha                 89.991778
_cell_angle_beta                  89.938524
_cell_angle_gamma                 89.921534
_cell_volume                      2325.04226248

loop_
_atom_site_label
_atom_site_type_symbol
_atom_type_description
_atom_site_fract_x
_atom_site_fract_y
_atom_site_fract_z
_atom_type_partial_charge
O1    O     O_R   0.377350 0.828520 0.186660 -0.531611
O2    O     O_R   0.622650 0.171480 0.813340 -0.531454
O3    O     O_R   0.122650 0.171480 0.686660 -0.534765
O4    O     O_R   0.877350 0.828520 0.313340 -0.531189
O5    O     O_R   0.877350 0.671480 0.313340 -0.531377
O6    O     O_R   0.122650 0.328520 0.686660 -0.531091
O7    O     O_R   0.622650 0.328520 0.813340 -0.530914
O8    O     O_R   0.377350 0.671480 0.186660 -0.531419
O9    O     O_R   0.707090 0.671930 0.178410 -0.541783
O10   O     O_R   0.292910 0.328070 0.821590 -0.541350
O11   O     O_R   0.792910 0.328070 0.678410 -0.541336
O12   O     O_R   0.207090 0.671930 0.321590 -0.541729
O13   O     O_R   0.207090 0.828070 0.321590 -0.541901
O14   O     O_R   0.792910 0.171930 0.678410 -0.542966
O15   O     O_R   0.292910 0.171930 0.821590 -0.540157
O16   O     O_R   0.707090 0.828070 0.178410 -0.541644
C1    C     C_R   0.537661 0.644331 0.162774 0.716316
C2    C     C_R   0.462338 0.355668 0.837225 0.718000
C3    C     C_R   0.962424 0.355694 0.662817 0.717825
C4    C     C_R   0.037565 0.644333 0.337211 0.716572
C5    C     C_R   0.037260 0.855668 0.337161 0.717399
C6    C     C_R   0.962954 0.144055 0.662959 0.723836
C7    C     C_R   0.462476 0.144337 0.837229 0.712186
C8    C     C_R   0.537502 0.855707 0.162841 0.716584
O17   O     O_3   0.543850 0.750000 0.294270 -0.365574
O18   O     O_3   0.456150 0.250000 0.705730 -0.368136
O19   O     O_3   0.956150 0.250000 0.794270 -0.363931
O20   O     O_3   0.043850 0.750000 0.205730 -0.365919
V1    V     V_3+5 0.818700 0.750000 0.241790 1.415142
V2    V     V_3+5 0.181300 0.250000 0.758210 1.410579
V3    V     V_3+5 0.681300 0.250000 0.741790 1.408987
V4    V     V_3+5 0.318700 0.750000 0.258210 1.414854
C9    C     C_R   0.980376 0.420991 0.613100 -0.104662
C10   C     C_R   0.019551 0.579072 0.386961 -0.104299
C11   C     C_R   0.519835 0.579026 0.113064 -0.104294
C12   C     C_R   0.480161 0.420973 0.886935 -0.104723
C13   C     C_R   0.480319 0.079069 0.886996 -0.101533
C14   C     C_R   0.519420 0.920990 0.113129 -0.104203
C15   C     C_R   0.017445 0.920475 0.387260 -0.105303
C16   C     C_R   0.981836 0.078845 0.612895 -0.113320
C17   C     C_R   0.864021 0.459474 0.423179 0.180208
C18   C     C_R   0.135548 0.540687 0.576933 0.179818
C19   C     C_R   0.635765 0.540578 0.922998 0.180192
C20   C     C_R   0.364251 0.459416 0.077002 0.180108
C21   C     C_R   0.365368 0.041128 0.077218 0.180574
C22   C     C_R   0.633522 0.958737 0.922845 0.179557
C23   C     C_R   0.114001 0.954159 0.579259 0.187043
C24   C     C_R   0.858458 0.039421 0.423891 0.179768
C25   C     C_R   0.906918 0.514301 0.370188 0.157078
C26   C     C_R   0.092871 0.485795 0.629897 0.157203
C27   C     C_R   0.592794 0.485749 0.870055 0.157168
C28   C     C_R   0.407201 0.514250 0.129943 0.157201
C29   C     C_R   0.407476 0.986048 0.130089 0.157229
C30   C     C_R   0.591201 0.013760 0.869952 0.156026
C31   C     C_R   0.098323 0.014608 0.628726 0.142524
C32   C     C_R   0.903564 0.985115 0.370653 0.158109
C33   C     C_R   0.096362 0.586052 0.454513 -0.269767
C34   C     C_R   0.903436 0.414053 0.545566 -0.269707
C35   C     C_R   0.403350 0.414022 0.954556 -0.269719
C36   C     C_R   0.596653 0.585976 0.045443 -0.269865
C37   C     C_R   0.595569 0.913764 0.045441 -0.269498
C38   C     C_R   0.404479 0.086400 0.954737 -0.269247
C39   C     C_R   0.895283 0.083919 0.546726 -0.266397
C40   C     C_R   0.091167 0.912598 0.455167 -0.269838
C41   C     C_R   0.059091 0.531792 0.507888 0.062618
C42   C     C_R   0.940610 0.468339 0.492207 0.062633
C43   C     C_R   0.440713 0.468285 0.007892 0.062608
C44   C     C_R   0.559295 0.531712 0.992107 0.062597
C45   C     C_R   0.558366 0.968066 0.992102 0.062762
C46   C     C_R   0.441222 0.031988 0.008035 0.061972
C47   C     C_R   0.931971 0.029618 0.493243 0.061750
C48   C     C_R   0.046064 0.964896 0.509338 0.067994
H1    H     H_    0.819795 0.363595 0.534852 0.139704
H2    H     H_    0.180020 0.636508 0.465218 0.139549
H3    H     H_    0.680338 0.636422 0.034649 0.139584
H4    H     H_    0.319663 0.363576 0.965349 0.139674
H5    H     H_    0.321899 0.137198 0.965619 0.139543
H6    H     H_    0.678603 0.863070 0.034616 0.139402
H7    H     H_    0.183641 0.864263 0.464721 0.140233
H8    H     H_    0.808952 0.133877 0.536481 0.140344
C49   C     C_3   0.165019 0.497627 0.704267 -0.779032
H9    H     H_    0.115187 0.553581 0.724243 0.204788
H10   H     H_    0.112395 0.455001 0.742362 0.200165
H11   H     H_    0.324413 0.495240 0.704615 0.209773
C50   C     C_3   0.834848 0.502437 0.295812 -0.778925
H12   H     H_    0.884364 0.446408 0.275914 0.204820
H13   H     H_    0.675473 0.504985 0.295416 0.209678
H14   H     H_    0.887830 0.544960 0.257683 0.199994
C51   C     C_3   0.335168 0.502394 0.204384 -0.778965
H15   H     H_    0.384820 0.446395 0.224277 0.204830
H16   H     H_    0.388042 0.544957 0.242440 0.199977
H17   H     H_    0.175798 0.504885 0.204912 0.209660
C52   C     C_3   0.664803 0.497604 0.795611 -0.778811
H18   H     H_    0.615223 0.553619 0.775731 0.204834
H19   H     H_    0.824171 0.495076 0.795072 0.209725
H20   H     H_    0.611834 0.455062 0.757552 0.200092
C53   C     C_3   0.661905 0.001485 0.795411 -0.774162
H21   H     H_    0.609996 0.945837 0.775574 0.204927
H22   H     H_    0.610500 0.044452 0.757476 0.198557
H23   H     H_    0.821318 0.002859 0.794652 0.204565
C54   C     C_3   0.335184 0.997916 0.204509 -0.780247
H24   H     H_    0.385843 0.053630 0.224617 0.204787
H25   H     H_    0.175725 0.996115 0.204901 0.209789
H26   H     H_    0.386881 0.954975 0.242483 0.200267
C55   C     C_3   0.833893 0.997705 0.296056 -0.778781
H27   H     H_    0.884449 0.053770 0.276711 0.204614
H28   H     H_    0.887667 0.955344 0.257873 0.199692
H29   H     H_    0.674526 0.995536 0.294999 0.209908
C56   C     C_3   0.210184 0.012704 0.697256 -0.753085
H30   H     H_    0.292528 0.959914 0.706505 0.207422
H31   H     H_    0.319276 0.058533 0.696693 0.212163
H32   H     H_    0.112296 0.021188 0.742510 0.189584
C57   C     C_3   0.735163 0.391707 0.407256 -0.798223
H33   H     H_    0.675006 0.390470 0.353557 0.218347
H34   H     H_    0.817957 0.338218 0.414288 0.201222
H35   H     H_    0.609374 0.392041 0.443373 0.209965
C58   C     C_3   0.263953 0.608575 0.592911 -0.797428
H36   H     H_    0.323804 0.609905 0.646653 0.218445
H37   H     H_    0.389928 0.608331 0.556881 0.209895
H38   H     H_    0.180892 0.661989 0.585797 0.202224
C59   C     C_3   0.764591 0.608350 0.906935 -0.798114
H39   H     H_    0.824586 0.609614 0.853167 0.218332
H40   H     H_    0.681823 0.661839 0.914070 0.201171
H41   H     H_    0.890479 0.607998 0.942908 0.209986
C60   C     C_3   0.235457 0.391635 0.093066 -0.798069
H42   H     H_    0.175500 0.390356 0.146840 0.218334
H43   H     H_    0.109547 0.391986 0.057104 0.210019
H44   H     H_    0.318239 0.338151 0.085918 0.201175
C61   C     C_3   0.238038 0.109445 0.093415 -0.798027
H45   H     H_    0.178609 0.110998 0.147265 0.218334
H46   H     H_    0.321830 0.162584 0.086155 0.201090
H47   H     H_    0.111804 0.109617 0.057596 0.209943
C62   C     C_3   0.759951 0.890166 0.906542 -0.798221
H48   H     H_    0.818330 0.888276 0.852536 0.218973
H49   H     H_    0.886896 0.889962 0.942043 0.209787
H50   H     H_    0.675777 0.837171 0.914189 0.201005
C63   C     C_3   0.196238 0.878104 0.602319 -0.804499
H51   H     H_    0.148011 0.864062 0.656387 0.212659
H52   H     H_    0.140581 0.829920 0.570942 0.197456
H53   H     H_    0.356081 0.879352 0.599854 0.216415
C64   C     C_3   0.731309 0.107788 0.407819 -0.798344
H54   H     H_    0.673958 0.109899 0.353729 0.218335
H55   H     H_    0.603708 0.107387 0.443084 0.209538
H56   H     H_    0.814410 0.160927 0.415988 0.201237

loop_
_geom_bond_atom_site_label_1
_geom_bond_atom_site_label_2
_ccdc_geom_bond_type
C21   C61   S    
C9    C34   A    
O16   C8    A    
C38   H5    S    
O14   V3    S    
C12   C35   A    
C53   H23   S    
C53   H21   S    
O5    C4    A    
C50   H12   S    
O6    C3    A    
C63   H52   S    
O11   C3    A    
C52   H18   S    
C16   C39   A    
O20   V1    S    
C57   H33   S    
C56   H31   S    
C35   C43   A    
C38   C46   A    
C59   H41   S    
O13   V4    S    
C53   H22   S    
C64   H54   S    
C34   C42   A    
C29   C54   S    
C19   C44   A    
C22   C45   A    
C62   H50   S    
C8    C14   S    
C30   C53   S    
C57   H35   S    
C51   H16   S    
C19   C59   S    
O4    V1    S    
O9    V1    S    
C61   H47   S    
C4    C10   S    
C20   C28   A    
O17   V4    S    
O15   C7    A    
O11   V3    S    
O18   V3    S    
C52   H19   S    
C31   C56   S    
O19   V2    S    
O12   C4    A    
C28   C51   S    
C17   C25   A    
C49   H10   S    
C13   C38   A    
O5    V1    S    
C39   H8    S    
C50   H13   S    
O17   V1    S    
C32   C55   S    
C63   H53   S    
C20   C60   S    
O7    V3    S    
O19   V3    S    
C43   C44   A    
O8    V4    S    
C54   H24   S    
C25   C50   S    
O20   V4    S    
C3    C9    S    
C58   H38   S    
C33   C41   A    
O16   V1    S    
C7    C13   S    
O1    V4    S    
C49   H9    S    
O2    V3    S    
C64   H55   S    
C33   H2    S    
O3    V2    S    
C15   C40   A    
C18   C41   A    
C55   H28   S    
O10   V2    S    
C15   C32   A    
C5    C15   S    
C37   H6    S    
O7    C2    A    
C6    C16   S    
C23   C63   S    
O13   C5    A    
C18   C58   S    
C55   H29   S    
C51   H17   S    
C60   H43   S    
C59   H39   S    
C12   C27   A    
C18   C26   A    
C13   C30   A    
O9    C1    A    
O6    V2    S    
C22   C30   A    
C39   C47   A    
O18   V2    S    
C54   H26   S    
C60   H42   S    
C40   H7    S    
C56   H32   S    
C24   C47   A    
O2    C7    A    
C49   H11   S    
O15   V2    S    
C23   C31   A    
C61   H45   S    
C55   H27   S    
C50   H14   S    
C37   C45   A    
C24   C32   A    
C10   C25   A    
C21   C46   A    
C17   C57   S    
C20   C43   A    
C16   C31   A    
C14   C37   A    
C17   C42   A    
C64   H56   S    
C52   H20   S    
C63   H51   S    
C36   H3    S    
O8    C1    A    
C27   C52   S    
O14   C6    A    
C58   H37   S    
C9    C26   A    
C47   C48   A    
C58   H36   S    
C22   C62   S    
O4    C5    A    
C19   C27   A    
C62   H48   S    
C14   C29   A    
O10   C2    A    
C10   C33   A    
C24   C64   S    
C40   C48   A    
C26   C49   S    
C45   C46   A    
C23   C48   A    
C59   H40   S    
C21   C29   A    
C36   C44   A    
O1    C8    A    
C54   H25   S    
C41   C42   A    
C60   H44   S    
C11   C28   A    
C62   H49   S    
C11   C36   A    
O3    C6    A    
C1    C11   S    
C57   H34   S    
C51   H15   S    
C56   H30   S    
C2    C12   S    
C35   H4    S    
O12   V4    S    
C34   H1    S    
C61   H46   S    
