data_mof_unit_55234.cif
_audit_creation_date              2012-12-10T17:26:23-0500
_audit_creation_method            fapswitch 2.2
_symmetry_space_group_name_H-M    P1
_symmetry_Int_Tables_number       1
_space_group_crystal_system       triclinic
_cell_length_a                    10.076078
_cell_length_b                    10.715032
_cell_length_c                    27.753871
_cell_angle_alpha                 90.001454
_cell_angle_beta                  81.289086
_cell_angle_gamma                 95.723102
_cell_volume                      2946.78645774

loop_
_atom_site_label
_atom_site_type_symbol
_atom_type_description
_atom_site_fract_x
_atom_site_fract_y
_atom_site_fract_z
_atom_type_partial_charge
C1    C     C_R   0.556826 0.733720 0.498200 0.797370
C2    C     C_R   0.454609 0.609744 0.129139 -0.022961
C3    C     C_R   0.500249 0.495838 0.646493 -0.048613
C4    C     C_R   0.499928 0.504830 0.353441 -0.056575
C5    C     C_R   0.453207 0.606576 0.027324 0.046471
C6    C     C_R   0.549262 0.400109 0.972625 0.047533
C7    C     C_R   0.540532 0.398610 0.024044 0.043691
C8    C     C_R   0.450480 0.602733 0.976428 0.043235
C9    C     C_R   0.495935 0.503366 0.050936 0.068568
C10   C     C_R   0.501079 0.500669 0.949259 0.068441
C11   C     C_R   0.415422 0.710818 0.055636 -0.224308
C12   C     C_R   0.443176 0.266578 0.505523 0.838975
C13   C     C_R   0.606059 0.304739 0.943463 -0.222330
C14   C     C_R   0.415850 0.711932 0.105542 -0.160798
C15   C     C_R   0.608671 0.304682 0.893404 -0.168072
C16   C     C_R   0.500331 0.499284 0.593947 0.865297
C17   C     C_R   0.499695 0.500803 0.406032 0.887043
C18   C     C_R   0.398191 0.697511 0.951534 -0.220284
C19   C     C_R   0.573831 0.294992 0.049782 -0.221197
C20   C     C_2   0.589850 0.867794 0.503425 0.282899
C21   C     C_2   0.409301 0.133658 0.515830 0.264816
C22   C     C_2   0.491252 0.932687 0.525242 -0.196509
C23   C     C_R   0.503356 0.499028 0.898090 -0.050981
C24   C     C_2   0.508391 0.067447 0.525562 -0.248084
C25   C     C_2   0.927165 0.510339 0.503953 -0.125558
C26   C     C_2   0.072747 0.489323 0.496177 -0.129544
C27   C     C_R   0.455125 0.592359 0.823995 0.520055
C28   C     C_R   0.532368 0.406273 0.176599 0.518682
C29   C     C_R   0.554887 0.399062 0.820129 0.469787
C30   C     C_R   0.456581 0.610523 0.179404 0.471522
C31   C     C_R   0.621912 0.505837 0.715081 -0.111447
C32   C     C_R   0.378517 0.504302 0.284870 -0.112148
C33   C     C_R   0.622411 0.508423 0.665105 -0.218561
C34   C     C_R   0.494426 0.505039 0.102065 -0.052206
C35   C     C_R   0.377902 0.500380 0.334840 -0.212527
C36   C     C_R   0.377520 0.478585 0.678301 -0.270533
C37   C     C_R   0.622756 0.514944 0.321557 -0.267591
C38   C     C_R   0.375696 0.473549 0.728688 0.054094
C39   C     C_R   0.624796 0.520846 0.271173 0.054076
C40   C     C_R   0.499717 0.488955 0.746988 0.277897
C41   C     C_R   0.500773 0.514058 0.252956 0.279214
C42   C     C_3   0.194437 0.080572 0.553325 0.073814
C43   C     C_3   0.056051 0.019312 0.546231 -0.754957
C44   C     C_3   0.750117 0.926196 0.438106 0.102701
C45   C     C_R   0.452863 0.596255 0.874450 -0.022217
C46   C     C_3   0.886036 0.001524 0.422622 -0.797573
C47   C     C_R   0.243974 0.452330 0.761270 0.122448
C48   C     C_R   0.139814 0.527352 0.756267 -0.110593
C49   C     C_R   0.015387 0.507244 0.786683 -0.128621
C50   C     C_R   0.993679 0.412100 0.822243 -0.081601
C51   C     C_R   0.096167 0.336533 0.827306 -0.133733
C52   C     C_R   0.220603 0.356026 0.796871 -0.164005
C53   C     C_R   0.756774 0.534133 0.238526 0.119534
C54   C     C_R   0.787665 0.630976 0.203212 -0.164051
C55   C     C_R   0.912865 0.643797 0.173053 -0.126851
C56   C     C_R   0.532878 0.402031 0.126240 -0.022151
C57   C     C_R   0.008695 0.560922 0.178108 -0.086901
C58   C     C_R   0.979423 0.464988 0.213333 -0.139482
C59   C     C_R   0.854180 0.451551 0.243467 -0.108104
C60   C     C_R   0.400049 0.694357 0.901528 -0.140264
C61   C     C_R   0.570434 0.297118 0.099866 -0.141188
C62   C     C_R   0.556167 0.400174 0.870433 -0.019334
H1    H     H_    0.282968 0.466370 0.663893 0.158661
H2    H     H_    0.718170 0.522132 0.641098 0.157583
H3    H     H_    0.283643 0.498226 0.270718 0.140660
H4    H     H_    0.716736 0.518397 0.729239 0.139045
H5    H     H_    0.386231 0.794075 0.125549 0.191566
H6    H     H_    0.652378 0.229057 0.872737 0.189360
H7    H     H_    0.387407 0.794903 0.040382 0.141481
H8    H     H_    0.651956 0.229393 0.957967 0.141849
H9    H     H_    0.352467 0.774921 0.969588 0.140929
H10   H     H_    0.600715 0.209184 0.032519 0.140885
H11   H     H_    0.608148 0.112645 0.528811 0.201103
H12   H     H_    0.717450 0.520732 0.335870 0.161042
H13   H     H_    0.390612 0.887359 0.537938 0.180945
H14   H     H_    0.183447 0.179103 0.564785 0.156370
H15   H     H_    0.229941 0.028527 0.582904 0.136942
H16   H     H_    0.063202 0.920663 0.534635 0.251925
H17   H     H_    0.985164 0.020067 0.580985 0.208621
H18   H     H_    0.016111 0.071762 0.517978 0.265271
H19   H     H_    0.672716 0.971355 0.421341 0.145821
H20   H     H_    0.756671 0.829429 0.423991 0.150771
H21   H     H_    0.966248 0.957139 0.437703 0.265905
H22   H     H_    0.910392 0.004611 0.382230 0.211400
H23   H     H_    0.109057 0.420713 0.469920 0.167985
H24   H     H_    0.882945 0.098929 0.436161 0.246443
H25   H     H_    0.155333 0.602065 0.729103 0.134888
H26   H     H_    0.935796 0.565526 0.782718 0.129634
H27   H     H_    0.897360 0.396733 0.845765 0.140607
H28   H     H_    0.078965 0.262356 0.854676 0.138167
H29   H     H_    0.297902 0.295101 0.800732 0.156069
H30   H     H_    0.715896 0.697693 0.199470 0.157965
H31   H     H_    0.935936 0.718582 0.145961 0.138560
H32   H     H_    0.105775 0.571310 0.154868 0.139363
H33   H     H_    0.053859 0.401043 0.217315 0.132751
H34   H     H_    0.890800 0.578737 0.530293 0.166848
H35   H     H_    0.832854 0.376357 0.270454 0.137116
H36   H     H_    0.119877 0.615783 0.544594 0.161195
H37   H     H_    0.880178 0.384422 0.455324 0.161527
H38   H     H_    0.358852 0.769234 0.884199 0.189166
H39   H     H_    0.597857 0.215785 0.117832 0.189848
H40   H     H_    0.281994 0.492337 0.358839 0.160405
N1    N     N_R   0.502985 0.493374 0.798227 -0.355066
N2    N     N_R   0.497060 0.510475 0.201771 -0.355368
N3    N     N_2   0.842700 0.448890 0.480020 -0.192801
N4    N     N_2   0.157300 0.551110 0.519980 -0.192653
O1    O     O_R   0.431060 0.692470 0.504020 -0.623420
O2    O     O_2   0.566733 0.307258 0.200361 -0.562518
O3    O     O_2   0.420260 0.710936 0.205723 -0.565358
O4    O     O_2   0.603128 0.303726 0.793324 -0.568543
O5    O     O_3   0.284022 0.076212 0.509159 -0.597079
O6    O     O_3   0.719780 0.924951 0.489458 -0.605808
O7    O     O_R   0.568940 0.307530 0.495980 -0.626922
O8    O     O_R   0.651120 0.659650 0.491200 -0.588439
O9    O     O_R   0.348880 0.340350 0.508800 -0.598728
O10   O     O_R   0.389980 0.516390 0.577660 -0.620798
O11   O     O_R   0.610020 0.483610 0.422340 -0.613515
O12   O     O_R   0.610040 0.483570 0.564830 -0.616438
O13   O     O_R   0.389960 0.516430 0.435170 -0.607930
O14   O     O_2   0.410112 0.686624 0.800731 -0.564978
Zn1   Zn    Zn3+2 0.353060 0.521910 0.508560 0.945849
Zn2   Zn    Zn3+2 0.646940 0.478090 0.491440 0.948128

loop_
_geom_bond_atom_site_label_1
_geom_bond_atom_site_label_2
_ccdc_geom_bond_type
C31   H4    S    
C37   H12   S    
C45   C60   A    
C34   C56   A    
C23   C45   A    
C58   H33   S    
C35   H40   S    
C26   N4    D    
C28   C56   A    
C25   N3    D    
C39   C41   A    
C53   C54   A    
C43   H16   S    
C5    C9    A    
O9    Zn1   S    
C28   O2    S    
C5    C11   A    
C44   H20   S    
C26   H23   S    
C51   H28   S    
C11   C14   A    
C24   H11   S    
C13   H8    S    
C3    C33   A    
C43   H17   S    
C31   C40   A    
C29   N1    A    
O12   Zn2   S    
C20   O6    S    
C23   C62   A    
O7    Zn2   S    
C32   C41   A    
C31   C33   A    
C36   H1    S    
C17   O11   A    
C12   O9    A    
C2    C34   A    
C4    C35   A    
C49   H26   S    
C19   H10   S    
C22   H13   S    
C16   O10   A    
C21   O5    S    
C44   C46   S    
O13   Zn1   S    
C53   C59   A    
H37   N3    S    
O10   Zn1   S    
C30   O3    S    
C51   C52   A    
C32   C35   A    
C29   O4    S    
C44   H19   S    
C25   C26   S    
C27   O14   S    
C12   C21   S    
C8    C18   A    
C47   C52   A    
C61   H39   S    
O11   Zn2   S    
C54   H30   S    
C16   O12   A    
C28   N2    A    
C50   H27   S    
C47   C48   A    
C13   C15   A    
C14   H5    S    
C50   C51   A    
C48   H25   S    
C38   C47   S    
C29   C62   A    
C1    O1    A    
C46   H22   S    
C4    C17   S    
C44   O6    S    
C18   C60   A    
C48   C49   A    
C20   C22   D    
C7    C19   A    
C57   H32   S    
C55   C57   A    
C9    C34   A    
C59   H35   S    
C22   C24   S    
C1    O8    A    
O1    Zn1   S    
C12   O7    A    
C18   H9    S    
C7    C9    A    
C54   C55   A    
C1    C20   S    
C56   C61   A    
C42   O5    S    
C60   H38   S    
C6    C10   A    
C5    C8    A    
C11   H7    S    
C6    C7    A    
C10   C23   A    
C42   H14   S    
H36   N4    S    
C41   N2    S    
C2    C30   A    
C36   C38   A    
C58   C59   A    
C37   C39   A    
C6    C13   A    
C38   C40   A    
C27   C45   A    
C57   C58   A    
C39   C53   S    
C3    C36   A    
C19   C61   A    
C33   H2    S    
C15   H6    S    
N4    Zn1   S    
C27   N1    A    
C43   H18   S    
C15   C62   A    
N3    Zn2   S    
C2    C14   A    
C17   O13   A    
C46   H21   S    
O8    Zn2   S    
C4    C37   A    
C25   H34   S    
C8    C10   A    
C49   C50   A    
C42   C43   S    
C21   C24   D    
C30   N2    A    
C42   H15   S    
C52   H29   S    
C46   H24   S    
C55   H31   S    
C3    C16   S    
C32   H3    S    
C40   N1    S    
