data_mof_unit_21217.cif
_audit_creation_date              2012-12-11T14:44:24-0500
_audit_creation_method            fapswitch 2.2
_symmetry_space_group_name_H-M    P1
_symmetry_Int_Tables_number       1
_space_group_crystal_system       triclinic
_cell_length_a                    25.153442
_cell_length_b                    16.814219
_cell_length_c                    15.774448
_cell_angle_alpha                 89.95338
_cell_angle_beta                  49.274418
_cell_angle_gamma                 90.022654
_cell_volume                      5056.00073518

loop_
_atom_site_label
_atom_site_type_symbol
_atom_type_description
_atom_site_fract_x
_atom_site_fract_y
_atom_site_fract_z
_atom_type_partial_charge
C1    C     C_R   0.353511 0.147918 0.753823 -0.047453
C2    C     C_3   0.780645 0.822647 0.572261 -0.208753
C3    C     C_2   0.757084 0.912171 0.290943 1.006818
C4    C     C_2   0.257046 0.585909 0.290372 1.001072
C5    C     C_2   0.742962 0.414034 0.709649 1.000925
C6    C     C_2   0.768156 0.660301 0.707238 0.965118
C7    C     C_2   0.231851 0.339709 0.292761 0.965092
C8    C     C_3   0.724619 0.267974 0.582459 -0.119945
C9    C     C_3   0.275463 0.731955 0.417423 -0.120235
C10   C     C_3   0.768267 0.761584 0.426797 -0.184526
C11   C     C_3   0.231738 0.238391 0.573194 -0.184571
C12   C     C_3   0.274518 0.681070 0.581217 -0.159394
C13   C     C_3   0.725396 0.319005 0.418889 -0.159054
C14   C     C_2   0.696429 0.145312 0.012077 -0.202220
C15   C     C_2   0.303568 0.854701 0.987930 -0.202227
C16   C     C_2   0.356886 0.262235 0.853850 -0.187851
C17   C     C_R   0.646489 0.852082 0.246175 -0.047442
C18   C     C_2   0.643112 0.737764 0.146151 -0.187847
C19   C     C_2   0.143006 0.762858 0.146856 -0.186211
C20   C     C_2   0.856991 0.237145 0.853152 -0.186236
C21   C     C_2   0.803655 0.646325 0.987052 -0.202326
C22   C     C_2   0.196344 0.353677 0.012948 -0.202338
C23   C     C_2   0.765932 0.138580 0.950408 -0.095351
C24   C     C_2   0.234065 0.861424 0.049596 -0.095326
C25   C     C_2   0.311653 0.307322 0.857110 -0.123910
C26   C     C_2   0.688345 0.692677 0.142891 -0.123907
C27   C     C_2   0.188249 0.807909 0.143706 -0.123335
C28   C     C_R   0.666789 0.106208 0.193649 -0.047154
C29   C     C_2   0.811751 0.192094 0.856297 -0.123328
C30   C     C_2   0.734161 0.639478 0.048659 -0.095260
C31   C     C_2   0.265839 0.360521 0.951342 -0.095249
C32   C     C_R   0.592829 0.144776 0.591820 -0.155760
C33   C     C_R   0.407167 0.855227 0.408180 -0.155746
C34   C     C_R   0.386409 0.108974 0.407713 -0.144603
C35   C     C_R   0.613584 0.891006 0.592287 -0.144593
C36   C     C_R   0.114261 0.607862 0.591697 -0.131502
C37   C     C_R   0.885739 0.392136 0.408304 -0.131475
C38   C     C_R   0.907031 0.644177 0.407566 -0.154774
C39   C     C_R   0.333209 0.893803 0.806357 -0.046987
C40   C     C_R   0.092972 0.355826 0.592434 -0.154762
C41   C     C_R   0.665467 0.146156 0.406145 -0.040665
C42   C     C_R   0.334532 0.853845 0.593856 -0.040748
C43   C     C_R   0.309578 0.102819 0.593997 -0.116834
C44   C     C_R   0.690418 0.897159 0.406000 -0.116803
C45   C     C_R   0.190767 0.601846 0.405498 -0.120048
C46   C     C_R   0.809236 0.398141 0.594504 -0.119920
C47   C     C_R   0.834608 0.646096 0.593325 -0.034658
C48   C     C_R   0.165398 0.353909 0.406674 -0.034698
C49   C     C_R   0.577530 0.107523 0.196919 -0.142082
C50   C     C_R   0.833314 0.607030 0.805642 -0.056288
C51   C     C_R   0.422469 0.892481 0.803084 -0.142112
C52   C     C_R   0.435889 0.139852 0.767802 -0.136034
C53   C     C_R   0.564109 0.860147 0.232199 -0.136033
C54   C     C_R   0.064051 0.640159 0.232487 -0.136379
C55   C     C_R   0.935949 0.359842 0.767514 -0.136378
C56   C     C_R   0.922463 0.607778 0.802888 -0.141258
C57   C     C_R   0.077537 0.392222 0.197112 -0.141262
C58   C     C_R   0.382088 0.187069 0.792551 0.103601
C59   C     C_R   0.617910 0.812931 0.207448 0.103597
C60   C     C_R   0.648100 0.124086 0.130945 0.115904
C61   C     C_R   0.166685 0.392968 0.194359 -0.056320
C62   C     C_R   0.351897 0.875926 0.869062 0.115899
C63   C     C_R   0.851993 0.624847 0.868388 0.120040
C64   C     C_R   0.148006 0.375153 0.131612 0.120052
C65   C     C_R   0.117841 0.687439 0.207872 0.101968
C66   C     C_R   0.882156 0.312563 0.792134 0.102004
C67   C     C_R   0.642086 0.189607 0.498969 -0.020786
C68   C     C_R   0.357911 0.810394 0.501030 -0.020728
C69   C     C_R   0.318356 0.123640 0.501151 -0.020522
C70   C     C_R   0.681634 0.876324 0.498848 -0.020549
C71   C     C_R   0.182565 0.621766 0.497970 -0.020805
C72   C     C_R   0.146446 0.648096 0.246432 -0.044535
C73   C     C_R   0.817437 0.378222 0.502033 -0.020890
C74   C     C_R   0.857785 0.688873 0.500043 -0.018158
C75   C     C_R   0.142223 0.311132 0.499956 -0.018152
C76   C     C_3   0.289119 0.206543 0.395910 -0.170464
C77   C     C_3   0.710872 0.793423 0.604088 -0.170493
C78   C     C_3   0.659173 0.298459 0.601632 -0.146304
C79   C     C_3   0.340849 0.701449 0.398417 -0.146236
C80   C     C_3   0.837940 0.790853 0.394652 -0.111949
C81   C     C_3   0.162057 0.209143 0.605354 -0.112005
C82   C     C_3   0.209278 0.711743 0.599704 -0.190031
C83   C     C_R   0.853551 0.351907 0.753577 -0.044618
C84   C     C_3   0.790698 0.288360 0.400235 -0.190142
C85   C     C_3   0.799728 0.864673 0.468673 0.097447
C86   C     C_3   0.200251 0.135314 0.531344 0.097478
C87   C     C_3   0.252918 0.779829 0.517848 0.032189
C88   C     C_3   0.747146 0.220192 0.481980 0.031966
C89   C     C_3   0.251484 0.279555 0.470109 0.055550
C90   C     C_3   0.748524 0.720419 0.529879 0.055524
C91   C     C_3   0.703430 0.367565 0.520035 0.064217
C92   C     C_3   0.296509 0.632420 0.480120 0.064344
C93   C     C_3   0.731564 0.836202 0.499835 0.150663
C94   C     C_3   0.219336 0.177338 0.427754 -0.208760
C95   C     C_3   0.268425 0.163766 0.500167 0.150656
C96   C     C_3   0.317082 0.751022 0.500068 0.091451
C97   C     C_3   0.682919 0.248975 0.499927 0.091532
C98   C     C_3   0.183005 0.251972 0.500964 0.099127
C99   C     C_3   0.816995 0.748022 0.499038 0.099096
C100  C     C_3   0.767340 0.337804 0.501531 0.158910
C101  C     C_3   0.232658 0.662203 0.498464 0.158947
C102  C     C_2   0.730897 0.160931 0.291187 0.934226
C103  C     C_2   0.269114 0.839063 0.708821 0.934239
C104  C     C_2   0.242913 0.087789 0.709050 1.006818
H1    H     H_    0.310310 0.167171 0.760063 0.096630
H2    H     H_    0.426456 0.845232 0.324859 0.103836
H3    H     H_    0.409033 0.110599 0.321327 0.099965
H4    H     H_    0.590962 0.889378 0.678673 0.099972
H5    H     H_    0.091846 0.609276 0.677986 0.099942
H6    H     H_    0.908152 0.390732 0.322016 0.099929
H7    H     H_    0.926266 0.653590 0.324157 0.101129
H8    H     H_    0.073735 0.346412 0.675845 0.101125
H9    H     H_    0.548280 0.104302 0.168684 0.099373
H10   H     H_    0.451719 0.895703 0.831318 0.099373
H11   H     H_    0.463782 0.149961 0.797054 0.096744
H12   H     H_    0.689689 0.832826 0.239933 0.096616
H13   H     H_    0.536215 0.850039 0.202950 0.096743
H14   H     H_    0.036110 0.650507 0.203376 0.097243
H15   H     H_    0.963891 0.349494 0.796623 0.097239
H16   H     H_    0.951572 0.604574 0.831375 0.099411
H17   H     H_    0.048428 0.395427 0.168625 0.099407
H18   H     H_    0.341443 0.207270 0.310626 0.131233
H19   H     H_    0.658545 0.792684 0.689367 0.131227
H20   H     H_    0.604758 0.303262 0.682757 0.133754
H21   H     H_    0.395281 0.696575 0.317343 0.133736
H22   H     H_    0.890759 0.790820 0.310069 0.132115
H23   H     H_    0.719448 0.096468 0.160429 0.135317
H24   H     H_    0.109239 0.209188 0.689941 0.132105
H25   H     H_    0.155386 0.717914 0.681572 0.131334
H26   H     H_    0.844573 0.282266 0.318315 0.131291
H27   H     H_    0.211753 0.151249 0.371708 0.169481
H28   H     H_    0.788219 0.848742 0.628316 0.169492
H29   H     H_    0.726073 0.245869 0.647286 0.121024
H30   H     H_    0.274072 0.754008 0.352509 0.120982
H31   H     H_    0.761424 0.736131 0.369491 0.120677
H32   H     H_    0.238590 0.263840 0.630491 0.120654
H33   H     H_    0.276463 0.657039 0.644624 0.174109
H34   H     H_    0.280551 0.903553 0.839577 0.135290
H35   H     H_    0.723383 0.343065 0.355567 0.173996
H36   H     H_    0.211879 0.892190 0.018581 0.131317
H37   H     H_    0.788117 0.107808 0.981421 0.131328
H38   H     H_    0.701736 0.706082 0.194262 0.123605
H39   H     H_    0.298261 0.293916 0.805741 0.123603
H40   H     H_    0.798343 0.205734 0.804988 0.123796
H41   H     H_    0.201659 0.794267 0.195009 0.123775
H42   H     H_    0.288016 0.391286 0.982365 0.131409
H43   H     H_    0.711983 0.608708 0.017640 0.131408
H44   H     H_    0.324693 0.823248 0.020509 0.136263
H45   H     H_    0.780627 0.598336 0.838287 0.130410
H46   H     H_    0.675305 0.176770 0.979500 0.136294
H47   H     H_    0.630879 0.724068 0.093152 0.143761
H48   H     H_    0.369121 0.275930 0.906846 0.143760
H49   H     H_    0.869238 0.223212 0.906091 0.143732
H50   H     H_    0.130756 0.776792 0.093921 0.143730
H51   H     H_    0.175203 0.322247 0.980396 0.136635
H52   H     H_    0.824797 0.677761 0.019600 0.136644
H53   H     H_    0.825889 0.120375 0.156982 0.317517
H54   H     H_    0.174105 0.879585 0.843023 0.317550
H55   H     H_    0.195651 0.043085 0.862367 0.328943
H56   H     H_    0.219372 0.401662 0.161715 0.130403
H57   H     H_    0.804351 0.956883 0.137627 0.328946
H58   H     H_    0.303135 0.541213 0.137621 0.328345
H59   H     H_    0.696875 0.458789 0.862374 0.328337
H60   H     H_    0.672154 0.619421 0.838107 0.315745
H61   H     H_    0.327845 0.380607 0.161887 0.315756
H62   H     H_    0.874313 0.947448 0.415880 0.111528
H63   H     H_    0.791860 0.981656 0.505393 0.092788
H64   H     H_    0.125638 0.052567 0.584187 0.111552
H65   H     H_    0.208080 0.018334 0.494639 0.092762
H66   H     H_    0.207958 0.879234 0.615205 0.159092
H67   H     H_    0.189635 0.667325 0.240301 0.096690
H68   H     H_    0.271454 0.897646 0.477529 0.104525
H69   H     H_    0.792582 0.121077 0.384116 0.159070
H70   H     H_    0.728718 0.102246 0.521562 0.104789
H71   H     H_    0.325929 0.361143 0.423290 0.108637
H72   H     H_    0.244074 0.397556 0.504358 0.112743
H73   H     H_    0.674092 0.638815 0.576690 0.108647
H74   H     H_    0.755954 0.602420 0.495608 0.112750
H75   H     H_    0.636399 0.452971 0.548910 0.100802
H76   H     H_    0.667319 0.467834 0.614897 0.161920
H77   H     H_    0.363433 0.546976 0.451526 0.100791
H78   H     H_    0.810356 0.332682 0.759719 0.096658
H79   H     H_    0.332609 0.532079 0.385404 0.161888
H80   H     H_    0.573540 0.154770 0.675141 0.103854
N1    N     N_R   0.389620 0.081040 0.705440 -0.033651
N2    N     N_R   0.417680 0.920160 0.443370 -0.047953
N3    N     N_R   0.417680 0.079840 0.443370 -0.044421
N4    N     N_R   0.582320 0.920160 0.556630 -0.044422
N5    N     N_R   0.082320 0.579840 0.556630 -0.046013
N6    N     N_R   0.917680 0.420160 0.443370 -0.046020
N7    N     N_R   0.917680 0.579840 0.443370 -0.047043
N8    N     N_R   0.082320 0.420160 0.556630 -0.047040
N9    N     N_R   0.627920 0.078930 0.443400 -0.059231
N10   N     N_R   0.372080 0.921070 0.556600 -0.059242
N11   N     N_R   0.372080 0.078930 0.556600 -0.058470
N12   N     N_R   0.610380 0.918960 0.294560 -0.033646
N13   N     N_R   0.627920 0.921070 0.443400 -0.058463
N14   N     N_R   0.127920 0.578930 0.443400 -0.057774
N15   N     N_R   0.872080 0.421070 0.556600 -0.057777
N16   N     N_R   0.872080 0.578930 0.556600 -0.060822
N17   N     N_R   0.127920 0.421070 0.443400 -0.060841
N18   N     N_R   0.555090 0.077730 0.294590 -0.049186
N19   N     N_R   0.444910 0.922270 0.705410 -0.049186
N20   N     N_R   0.444910 0.077730 0.705410 -0.047585
N21   N     N_R   0.555090 0.922270 0.294590 -0.047584
N22   N     N_R   0.055090 0.577730 0.294590 -0.047830
N23   N     N_R   0.610380 0.081040 0.294560 -0.056106
N24   N     N_R   0.944910 0.422270 0.705410 -0.047828
N25   N     N_R   0.944910 0.577730 0.705410 -0.049205
N26   N     N_R   0.055090 0.422270 0.294590 -0.049204
N27   N     N_3   0.825950 0.945741 0.435076 -0.181608
N28   N     N_3   0.174011 0.054253 0.564958 -0.181553
N29   N     N_3   0.228194 0.861522 0.535796 -0.220439
N30   N     N_3   0.771975 0.138530 0.463810 -0.220497
N31   N     N_3   0.279473 0.360157 0.436476 -0.191181
N32   N     N_3   0.720550 0.639811 0.563498 -0.191181
N33   N     N_3   0.681762 0.450483 0.538799 -0.227031
N34   N     N_R   0.389620 0.918960 0.705440 -0.056119
N35   N     N_3   0.318112 0.549484 0.461522 -0.227035
N36   N     N_R   0.889620 0.581040 0.705440 -0.056493
N37   N     N_R   0.110380 0.418960 0.294560 -0.056493
N38   N     N_R   0.110380 0.581040 0.294560 -0.032893
N39   N     N_R   0.889620 0.418960 0.705440 -0.032901
N40   N     N_R   0.582320 0.079840 0.556630 -0.047963
Ni1   Ni    Ni4+2 0.382970 0.000000 0.629840 0.268003
Ni2   Ni    Ni4+2 0.617030 1.000000 0.370160 0.268034
Ni3   Ni    Ni4+2 0.882970 0.500000 0.629840 0.267166
Ni4   Ni    Ni4+2 0.117030 0.500000 0.370160 0.267165
Ni5   Ni    Ni4+2 0.514540 0.000000 0.629840 0.201723
Ni6   Ni    Ni4+2 0.485460 1.000000 0.370160 0.201717
Ni7   Ni    Ni4+2 0.014540 0.500000 0.629840 0.203105
Ni8   Ni    Ni4+2 0.985460 0.500000 0.370160 0.203102
O1    O     O_2   0.739546 0.224112 0.245330 -0.669789
O2    O     O_R   0.254945 0.547539 0.214092 -0.800477
O3    O     O_2   0.686440 0.394848 0.738334 -0.675619
O4    O     O_R   0.745060 0.452493 0.785884 -0.800404
O5    O     O_2   0.758174 0.723775 0.753294 -0.672236
O6    O     O_R   0.715741 0.602357 0.760791 -0.789923
O7    O     O_2   0.241844 0.276230 0.246709 -0.672225
O8    O     O_R   0.284256 0.397666 0.239203 -0.789918
O9    O     O_R   0.783242 0.103051 0.235076 -0.803690
O10   O     O_2   0.260504 0.775907 0.754703 -0.669797
O11   O     O_R   0.216741 0.896912 0.764922 -0.803667
O12   O     O_2   0.186878 0.108434 0.737076 -0.656353
O13   O     O_R   0.244044 0.048643 0.785987 -0.800653
O14   O     O_2   0.813115 0.891489 0.262904 -0.656402
O15   O     O_R   0.755959 0.951339 0.214011 -0.800587
O16   O     O_2   0.313578 0.604960 0.261751 -0.675512

loop_
_geom_bond_atom_site_label_1
_geom_bond_atom_site_label_2
_ccdc_geom_bond_type
N5    N14   A    
C25   C31   S    
C73   C100  S    
C49   H9    S    
C45   C71   A    
H64   N28   S    
C39   N34   A    
C18   C26   D    
C24   C27   S    
C42   C103  S    
C90   N32   S    
C53   C59   A    
C30   H43   S    
C41   C67   A    
H66   N29   S    
C55   H15   S    
C11   C81   S    
N24   N39   A    
C55   N24   A    
C6    O6    S    
C13   C84   S    
C68   C96   S    
C49   C60   A    
C88   N30   S    
C34   H3    S    
C13   H35   S    
N1    N20   A    
C20   C66   S    
N5    Ni7   S    
C86   N28   S    
N9    Ni2   S    
H57   O15   S    
C76   C95   S    
N25   Ni7   S    
C15   H44   S    
N39   Ni3   S    
C81   C98   S    
C94   C98   S    
C82   C87   S    
C21   C30   D    
N20   Ni5   S    
C103  O10   D    
C41   C102  S    
C2    C85   S    
C43   N11   A    
C9    C79   S    
C84   H26   S    
N12   N21   A    
C42   N10   A    
H53   O9    S    
C43   C104  S    
C4    O16   D    
C41   N9    A    
H59   O4    S    
C86   C94   S    
C76   C94   S    
C66   C83   A    
C49   N18   A    
N3    Ni6   S    
C85   C93   S    
C15   C62   S    
N9    N40   A    
H55   O13   S    
C35   C70   A    
C51   N19   A    
N7    Ni8   S    
C54   N22   A    
C5    O4    S    
C40   N8    A    
H77   N35   S    
C2    H28   S    
N8    N17   A    
C44   C70   A    
C33   N2    A    
C35   H4    S    
C3    O14   D    
C91   C100  S    
C19   C27   D    
N34   Ni1   S    
N6    Ni8   S    
C88   C97   S    
C31   H42   S    
C28   H23   S    
C12   C92   S    
C76   C89   S    
N18   Ni6   S    
C83   N39   A    
C9    H30   S    
C37   N6    A    
C71   C101  S    
C39   H34   S    
C72   N38   A    
C44   N13   A    
C43   C69   A    
N26   N37   A    
C13   C91   S    
C8    C78   S    
C50   C63   A    
C56   H16   S    
C48   C75   A    
N21   Ni6   S    
C25   H39   S    
C51   C62   A    
C3    O15   S    
C85   N27   S    
C32   N40   A    
N14   Ni4   S    
N6    N15   A    
C8    C88   S    
C20   C29   D    
C28   C60   A    
C77   C90   S    
C6    O5    D    
N12   Ni2   S    
C3    C44   S    
H72   N31   S    
C51   H10   S    
C20   H49   S    
N11   Ni1   S    
N8    Ni7   S    
N22   Ni8   S    
C36   N5    A    
C84   C100  S    
C72   H67   S    
N40   Ni5   S    
C70   C93   S    
N7    N16   A    
C50   N36   A    
C40   H8    S    
C22   C31   D    
C61   H56   S    
C54   C65   A    
C10   C80   S    
C35   N4    A    
C17   H12   S    
C10   C93   S    
C45   N14   A    
C104  O12   D    
C29   H40   S    
C22   C64   S    
C48   N17   A    
C79   H21   S    
C75   C98   S    
C24   H36   S    
C83   H78   S    
H70   N30   S    
N16   Ni3   S    
H71   N31   S    
C14   C23   D    
C91   N33   S    
C92   N35   S    
C80   C85   S    
C77   H19   S    
H62   N27   S    
C22   H51   S    
C11   C89   S    
N23   Ni2   S    
C103  O11   S    
N37   Ni4   S    
N38   Ni4   S    
C27   H41   S    
N1    Ni1   S    
C87   C96   S    
C14   H46   S    
C78   C97   S    
N4    Ni5   S    
C87   N29   S    
C56   C63   A    
C12   C82   S    
C16   H48   S    
C102  O9    S    
C16   C58   S    
C10   H31   S    
C82   H25   S    
C34   C69   A    
C79   C92   S    
C52   C58   A    
C92   C101  S    
C17   C59   A    
C32   C67   A    
C32   H80   S    
C15   C24   D    
C7    O7    D    
C2    C99   S    
C26   C30   S    
N18   N23   A    
C54   H14   S    
C80   C99   S    
H60   O6    S    
C47   N16   A    
C37   H6    S    
H68   N29   S    
C23   C29   S    
C90   C99   S    
N36   Ni3   S    
C55   C66   A    
C78   H20   S    
N10   Ni1   S    
C57   C64   A    
N19   Ni5   S    
C38   C74   A    
C52   H11   S    
C11   C95   S    
C16   C25   D    
C28   N23   A    
C39   C62   A    
C37   C73   A    
C57   N26   A    
H61   O8    S    
H79   N35   S    
N19   N34   A    
N3    N11   A    
C8    H29   S    
N25   N36   A    
C4    O2    S    
N2    N10   A    
C12   C96   S    
C33   H2    S    
C84   C88   S    
C47   C74   A    
C69   C95   S    
C4    C45   S    
C36   C71   A    
C82   C101  S    
C74   C99   S    
N2    Ni6   S    
C1    N1    A    
C78   C91   S    
C65   C72   A    
C14   C60   S    
C5    C46   S    
C94   H27   S    
C40   C75   A    
C89   N31   S    
C89   C98   S    
C81   C86   S    
C76   H18   S    
C7    C48   S    
H69   N30   S    
H76   N33   S    
H63   N27   S    
C56   N25   A    
C81   H24   S    
C2    C77   S    
C1    C58   A    
N13   Ni2   S    
C61   C64   A    
H65   N28   S    
C50   H45   S    
C46   N15   A    
C9    C87   S    
N17   Ni4   S    
C80   H22   S    
N4    N13   A    
N22   N38   A    
C11   H32   S    
C77   C93   S    
C6    C47   S    
C21   H52   S    
C19   C65   S    
C53   H13   S    
H54   O11   S    
C42   C68   A    
C8    C100  S    
C34   N3    A    
C61   N37   A    
C21   C63   S    
C86   C95   S    
C67   C97   S    
N24   Ni7   S    
C57   H17   S    
C53   N21   A    
H58   O2    S    
C18   C59   S    
C79   C96   S    
C13   C97   S    
C7    O8    S    
C10   C90   S    
C102  O1    D    
C9    C101  S    
C104  O13   S    
C5    O3    D    
C1    H1    S    
C36   H5    S    
C38   N7    A    
C19   H50   S    
N26   Ni8   S    
C12   H33   S    
C23   H37   S    
C17   N12   A    
C52   N20   A    
C38   H7    S    
C26   H38   S    
N15   Ni3   S    
H74   N32   S    
C46   C73   A    
H75   N33   S    
C18   H47   S    
C33   C68   A    
H73   N32   S    
