data_mof_unit_5585.cif
_audit_creation_date              2012-12-10T21:07:38-0500
_audit_creation_method            fapswitch 2.2
_symmetry_space_group_name_H-M    P1
_symmetry_Int_Tables_number       1
_space_group_crystal_system       triclinic
_cell_length_a                    8.58873
_cell_length_b                    17.563063
_cell_length_c                    16.780623
_cell_angle_alpha                 89.542892
_cell_angle_beta                  98.797624
_cell_angle_gamma                 90.230707
_cell_volume                      2501.39240781

loop_
_atom_site_label
_atom_site_type_symbol
_atom_type_description
_atom_site_fract_x
_atom_site_fract_y
_atom_site_fract_z
_atom_type_partial_charge
C1    C     C_R   0.498635 0.353106 0.500313 0.946674
C2    C     C_R   0.383225 0.463114 0.242996 0.626704
C3    C     C_R   0.637356 0.487266 0.844302 0.312123
C4    C     C_R   0.380551 0.462552 0.158228 0.318678
C5    C     C_R   0.498245 0.503160 0.875710 -0.042017
C6    C     C_R   0.497570 0.502310 0.124262 -0.036230
C7    C     C_1   0.496639 0.504003 0.963365 0.038565
C8    C     C_1   0.497286 0.503888 0.036426 0.033903
C9    C     C_R   0.200620 0.500181 0.478956 1.006268
C10   C     C_R   0.799358 0.500049 0.521012 0.970151
C11   C     C_2   0.035679 0.500678 0.467460 -0.366000
C12   C     C_R   0.497746 0.646316 0.499404 0.942436
C13   C     C_2   0.964254 0.499873 0.532405 -0.357744
C14   C     C_R   0.592373 0.849252 0.544396 -0.216657
C15   C     C_R   0.527372 0.153294 0.429978 -0.237648
C16   C     C_R   0.598155 0.770522 0.547974 -0.262472
C17   C     C_R   0.536283 0.231896 0.433736 -0.234841
C18   C     C_R   0.487311 0.728042 0.497011 -0.193992
C19   C     C_R   0.493448 0.270222 0.500194 -0.221152
C20   C     C_R   0.368345 0.763734 0.442659 0.338703
C21   C     C_R   0.443013 0.228674 0.564181 0.343625
C22   C     C_R   0.360659 0.843078 0.441024 0.559719
C23   C     C_1   0.469384 0.965123 0.488848 0.096422
C24   C     C_R   0.429047 0.149656 0.558168 0.560585
C25   C     C_R   0.474249 0.884986 0.490938 -0.064380
C26   C     C_R   0.473193 0.112793 0.491861 -0.059584
C27   C     C_3   0.270074 0.718706 0.317723 0.129159
C28   C     C_3   0.161232 0.657533 0.275370 -0.316043
C29   C     C_3   0.179078 0.650783 0.186786 -0.980136
C30   C     C_3   0.509670 0.259074 0.696711 0.140001
C31   C     C_3   0.447669 0.293251 0.769164 -0.314184
C32   C     C_3   0.571494 0.290162 0.844739 -0.937063
C33   C     C_3   0.862590 0.541348 0.906416 0.072987
C34   C     C_1   0.469001 0.032679 0.488990 0.089937
C35   C     C_3   0.010627 0.528700 0.968024 -0.263602
C36   C     C_3   0.106771 0.601986 0.981851 -0.981192
C37   C     C_3   0.269061 0.349322 0.110850 0.147295
C38   C     C_3   0.349782 0.321680 0.041100 -0.407255
C39   C     C_3   0.347068 0.234989 0.035783 -0.918407
C40   C     C_R   0.361522 0.518530 0.820799 -0.347047
C41   C     C_R   0.616135 0.539669 0.176729 -0.342052
C42   C     C_R   0.365433 0.517910 0.737109 -0.121453
C43   C     C_R   0.615103 0.537932 0.260676 -0.129478
C44   C     C_R   0.634179 0.483542 0.759806 0.619172
F1    F     F_    0.241595 0.879026 0.392660 -0.661556
F2    F     F_    0.371658 0.109011 0.616605 -0.656092
F3    F     F_    0.766892 0.462832 0.731340 -0.661486
F4    F     F_    0.267206 0.427124 0.275125 -0.657525
H1    H     H_    0.973516 0.501701 0.405875 0.186069
H2    H     H_    0.706576 0.567514 0.300207 0.171392
H3    H     H_    0.393979 0.704400 0.311177 0.133261
H4    H     H_    0.238597 0.774629 0.288124 0.189909
H5    H     H_    0.189626 0.601750 0.305504 0.258267
H6    H     H_    0.036822 0.671553 0.279980 0.225678
H7    H     H_    0.145681 0.705055 0.154337 0.270651
H8    H     H_    0.100610 0.604694 0.158968 0.286013
H9    H     H_    0.302555 0.636494 0.180741 0.269182
H10   H     H_    0.617432 0.290832 0.686291 0.155994
H11   H     H_    0.541456 0.198556 0.711263 0.169242
H12   H     H_    0.026317 0.498814 0.593950 0.189611
H13   H     H_    0.413302 0.353339 0.755640 0.231774
H14   H     H_    0.341240 0.261312 0.780670 0.243335
H15   H     H_    0.598886 0.230091 0.862586 0.265567
H16   H     H_    0.525959 0.319152 0.894962 0.272434
H17   H     H_    0.681280 0.319389 0.833865 0.298716
H18   H     H_    0.791577 0.587137 0.929253 0.128716
H19   H     H_    0.898828 0.560232 0.848355 0.164961
H20   H     H_    0.976469 0.509301 0.026184 0.249812
H21   H     H_    0.084179 0.483769 0.946167 0.242582
H22   H     H_    0.141774 0.622952 0.924560 0.261084
H23   H     H_    0.679347 0.882269 0.583366 0.183921
H24   H     H_    0.214861 0.591128 0.025643 0.291887
H25   H     H_    0.036813 0.646727 0.006432 0.267329
H26   H     H_    0.147756 0.325444 0.103489 0.182338
H27   H     H_    0.331728 0.326406 0.169273 0.143861
H28   H     H_    0.288775 0.346047 0.983353 0.243109
H29   H     H_    0.474275 0.341364 0.050166 0.226209
H30   H     H_    0.409329 0.209461 0.092565 0.266331
H31   H     H_    0.407179 0.216775 0.985086 0.274376
H32   H     H_    0.223670 0.213786 0.024844 0.270009
H33   H     H_    0.562304 0.124135 0.378860 0.180105
H34   H     H_    0.689996 0.742703 0.589423 0.177846
H35   H     H_    0.577219 0.262688 0.384671 0.193788
H36   H     H_    0.252153 0.531348 0.842232 0.193218
H37   H     H_    0.708793 0.570382 0.152962 0.185714
H38   H     H_    0.259386 0.531551 0.696253 0.182057
N1    N     N_R   0.500040 0.500030 0.707230 -0.157075
N2    N     N_R   0.499960 0.499970 0.292770 -0.155278
O1    O     O_R   0.500000 0.389130 0.566570 -0.578114
O2    O     O_3   0.392024 0.265265 0.628183 -0.598588
O3    O     O_3   0.775765 0.472751 0.895824 -0.614893
O4    O     O_3   0.255596 0.429641 0.108299 -0.641755
O5    O     O_R   0.500000 0.610870 0.433430 -0.627726
O6    O     O_R   0.499990 0.389100 0.433480 -0.598264
O7    O     O_R   0.500010 0.610900 0.566520 -0.622683
O8    O     O_R   0.271750 0.500010 0.550980 -0.634849
O9    O     O_R   0.728250 0.499990 0.449020 -0.638258
O10   O     O_R   0.271740 0.499980 0.417890 -0.575079
O11   O     O_R   0.728260 0.500020 0.582110 -0.557337
O12   O     O_3   0.249372 0.720711 0.399543 -0.626307
Zn1   Zn    Zn3+2 0.500010 0.500020 0.588860 1.005239
Zn2   Zn    Zn3+2 0.499990 0.499980 0.411140 0.988803

loop_
_geom_bond_atom_site_label_1
_geom_bond_atom_site_label_2
_ccdc_geom_bond_type
C37   H26   S    
C9    O10   A    
C14   H23   S    
C31   H13   S    
C35   C36   S    
C30   O2    S    
C38   H29   S    
C7    C8    T    
C15   H33   S    
C13   H12   S    
C38   H28   S    
C43   N2    A    
C28   C29   S    
C19   C21   A    
C24   C26   A    
C33   O3    S    
C30   C31   S    
C3    O3    S    
C40   H36   S    
C33   C35   S    
N1    Zn1   S    
C26   C34   S    
C27   H3    S    
C1    O6    A    
C22   C25   A    
C12   O7    A    
C2    N2    A    
C42   H38   S    
C44   N1    A    
O9    Zn2   S    
C44   F3    S    
C40   C42   A    
C37   H27   S    
O8    Zn1   S    
C41   C43   A    
C31   H14   S    
C36   H22   S    
C33   H18   S    
C21   O2    S    
C27   O12   S    
C3    C44   A    
C1    C19   S    
C39   H30   S    
C32   H16   S    
C4    C6    A    
C5    C7    S    
C28   H6    S    
C15   C26   A    
C6    C8    S    
C29   H7    S    
C2    F4    S    
O10   Zn2   S    
C6    C41   A    
C17   H35   S    
C39   H31   S    
C10   O9    A    
C2    C4    A    
C37   C38   S    
C11   H1    S    
C31   C32   S    
C20   O12   S    
C23   C34   T    
C30   H11   S    
C16   H34   S    
C9    C11   S    
C9    O8    A    
C35   H21   S    
O11   Zn1   S    
C20   C22   A    
C14   C16   A    
C12   O5    A    
C21   C24   A    
C27   H4    S    
C33   H19   S    
C15   C17   A    
C1    O1    A    
C37   O4    S    
O1    Zn1   S    
C32   H15   S    
C29   H9    S    
C3    C5    A    
C10   C13   S    
O5    Zn2   S    
N2    Zn2   S    
C28   H5    S    
C43   H2    S    
C29   H8    S    
C41   H37   S    
C24   F2    S    
C39   H32   S    
C11   C13   D    
C38   C39   S    
C35   H20   S    
C30   H10   S    
C17   C19   A    
C18   C20   A    
C23   C25   S    
C14   C25   A    
C10   O11   A    
C36   H25   S    
O7    Zn1   S    
C22   F1    S    
O6    Zn2   S    
C16   C18   A    
C5    C40   A    
C12   C18   S    
C27   C28   S    
C42   N1    A    
C36   H24   S    
C32   H17   S    
C4    O4    S    
