data_mof_unit_58126.cif
_audit_creation_date              2013-03-05T16:17:41-0500
_audit_creation_method            fapswitch 2.2
_symmetry_space_group_name_H-M    P1
_symmetry_Int_Tables_number       1
_space_group_crystal_system       triclinic
_cell_length_a                    25.58806
_cell_length_b                    34.639252
_cell_length_c                    21.521946
_cell_angle_alpha                 90.10451
_cell_angle_beta                  126.371522
_cell_angle_gamma                 89.906327
_cell_volume                      15359.752627

loop_
_atom_site_label
_atom_site_type_symbol
_atom_site_description
_atom_site_fract_x
_atom_site_fract_y
_atom_site_fract_z
_atom_type_partial_charge
Zn1   Zn    Zn3+2 0.923580 0.282490 0.935040 0.979930
Zn2   Zn    Zn3+2 0.076420 0.717510 0.064960 0.995861
Zn3   Zn    Zn3+2 0.076420 0.282490 0.064960 0.990838
Zn4   Zn    Zn3+2 0.923580 0.717510 0.935040 0.993946
Zn5   Zn    Zn3+2 0.423580 0.782490 0.935040 0.988096
Zn6   Zn    Zn3+2 0.576420 0.217510 0.064960 0.994130
Zn7   Zn    Zn3+2 0.576420 0.782490 0.064960 0.995063
Zn8   Zn    Zn3+2 0.423580 0.217510 0.935040 1.025470
Zn9   Zn    Zn3+2 0.011450 0.217520 0.935010 0.984667
Zn10  Zn    Zn3+2 0.988550 0.782480 0.064990 0.994612
Zn11  Zn    Zn3+2 0.988550 0.217520 0.064990 0.984543
Zn12  Zn    Zn3+2 0.011450 0.782480 0.935010 0.998092
Zn13  Zn    Zn3+2 0.511450 0.717520 0.935010 0.985266
Zn14  Zn    Zn3+2 0.488550 0.282480 0.064990 0.991712
Zn15  Zn    Zn3+2 0.488550 0.717520 0.064990 0.980772
Zn16  Zn    Zn3+2 0.511450 0.282480 0.935010 0.989959
O1    O     O_3   0.000000 0.250010 0.000000 -0.529418
O2    O     O_3   0.000000 0.749990 0.000000 -0.531782
O3    O     O_3   0.500000 0.750010 0.000000 -0.530622
O4    O     O_3   0.500000 0.249990 0.000000 -0.535114
O5    O     O_R   0.140020 0.272750 0.045450 -0.615516
O6    O     O_R   0.859980 0.727250 0.954550 -0.616700
O7    O     O_R   0.859980 0.272750 0.954550 -0.637558
O8    O     O_R   0.140020 0.727250 0.045450 -0.624691
O9    O     O_R   0.640020 0.772750 0.045450 -0.614928
O10   O     O_R   0.359980 0.227250 0.954550 -0.605853
O11   O     O_R   0.359980 0.772750 0.954550 -0.637165
O12   O     O_R   0.640020 0.227250 0.045450 -0.616152
O13   O     O_R   0.944020 0.227270 0.826530 -0.616673
O14   O     O_R   0.055980 0.772730 0.173470 -0.618382
O15   O     O_R   0.055980 0.227270 0.173470 -0.607286
O16   O     O_R   0.944020 0.772730 0.826530 -0.618026
O17   O     O_R   0.444020 0.727270 0.826530 -0.614662
O18   O     O_R   0.555980 0.272730 0.173470 -0.615729
O19   O     O_R   0.555980 0.727270 0.173470 -0.612861
O20   O     O_R   0.444020 0.272730 0.826530 -0.613728
O21   O     O_R   0.008020 0.163280 0.954510 -0.611614
O22   O     O_R   0.991980 0.836720 0.045490 -0.621000
O23   O     O_R   0.991980 0.163280 0.045490 -0.602355
O24   O     O_R   0.008020 0.836720 0.954510 -0.619555
O25   O     O_R   0.508020 0.663280 0.954510 -0.608264
O26   O     O_R   0.491980 0.336720 0.045490 -0.629376
O27   O     O_R   0.491980 0.663280 0.045490 -0.601681
O28   O     O_R   0.508020 0.336720 0.954510 -0.629389
O29   O     O_R   0.053480 0.336740 0.045470 -0.610991
O30   O     O_R   0.946520 0.663260 0.954530 -0.620142
O31   O     O_R   0.946520 0.336740 0.954530 -0.615729
O32   O     O_R   0.053480 0.663260 0.045470 -0.615637
O33   O     O_R   0.553480 0.836740 0.045470 -0.610899
O34   O     O_R   0.446520 0.163260 0.954530 -0.603265
O35   O     O_R   0.446520 0.836740 0.954530 -0.611971
O36   O     O_R   0.553480 0.163260 0.045470 -0.618383
O37   O     O_R   0.882520 0.272750 0.826550 -0.612644
O38   O     O_R   0.117480 0.727250 0.173450 -0.616102
O39   O     O_R   0.117480 0.272750 0.173450 -0.613471
O40   O     O_R   0.882520 0.727250 0.826550 -0.617210
O41   O     O_R   0.382520 0.772750 0.826550 -0.605777
O42   O     O_R   0.617480 0.227250 0.173450 -0.617610
O43   O     O_R   0.617480 0.772750 0.173450 -0.610172
O44   O     O_R   0.382520 0.227250 0.826550 -0.603449
O45   O     O_R   0.094550 0.227270 0.954490 -0.635573
O46   O     O_R   0.905450 0.772730 0.045510 -0.632010
O47   O     O_R   0.905450 0.227270 0.045510 -0.633063
O48   O     O_R   0.094550 0.772730 0.954490 -0.620610
O49   O     O_R   0.594550 0.727270 0.954490 -0.639842
O50   O     O_R   0.405450 0.272730 0.045510 -0.633056
O51   O     O_R   0.405450 0.727270 0.045510 -0.634333
O52   O     O_R   0.594550 0.272730 0.954490 -0.632238
C1    C     C_R   0.141379 0.250121 0.999858 0.958668
C2    C     C_R   0.858449 0.749953 0.999921 0.964414
C3    C     C_R   0.858443 0.249973 0.999783 0.941652
C4    C     C_R   0.141324 0.749892 0.999702 0.962010
C5    C     C_R   0.641453 0.750050 0.000006 0.956971
C6    C     C_R   0.358443 0.250004 0.999932 0.955604
C7    C     C_R   0.358401 0.749745 0.999728 0.946683
C8    C     C_R   0.641317 0.249700 0.999716 0.964974
C9    C     C_R   0.894756 0.249833 0.789607 0.903842
C10   C     C_R   0.104932 0.749892 0.210321 0.915855
C11   C     C_R   0.105773 0.249466 0.210516 0.871085
C12   C     C_R   0.895006 0.749898 0.789785 0.908459
C13   C     C_R   0.394793 0.749885 0.789565 0.902910
C14   C     C_R   0.604948 0.249865 0.210352 0.913290
C15   C     C_R   0.605569 0.749599 0.210452 0.874555
C16   C     C_R   0.394994 0.249901 0.789735 0.901027
C17   C     C_R   0.000047 0.144858 0.000015 0.907620
C18   C     C_R   0.999996 0.855148 0.000037 0.942416
C19   C     C_R   0.500015 0.644801 0.999948 0.907463
C20   C     C_R   0.499901 0.355099 0.999958 0.962581
C21   C     C_R   0.000057 0.355322 0.000031 0.907362
C22   C     C_R   0.000092 0.645034 0.999721 0.902049
C23   C     C_R   0.500059 0.855329 0.999498 0.917994
C24   C     C_R   0.500138 0.145028 0.999676 0.889564
C25   C     C_R   0.059271 0.458687 0.026898 0.427033
C26   C     C_R   0.964530 0.542699 0.925628 0.440505
C27   C     C_R   0.942802 0.459739 0.965381 0.436376
C28   C     C_R   0.040959 0.541853 0.066946 0.455126
C29   C     C_R   0.558970 0.958602 0.023497 0.420627
C30   C     C_R   0.463768 0.042838 0.924613 0.436770
C31   C     C_R   0.443067 0.959842 0.964887 0.433305
C32   C     C_R   0.542661 0.041725 0.065621 0.455727
C33   C     C_R   0.059714 0.418414 0.034424 0.269602
C34   C     C_R   0.962822 0.583052 0.927180 0.295267
C35   C     C_R   0.942037 0.419235 0.964780 0.312770
C36   C     C_R   0.040119 0.582198 0.068028 0.295062
C37   C     C_R   0.559500 0.918313 0.031158 0.263512
C38   C     C_R   0.462209 0.083183 0.926553 0.302177
C39   C     C_R   0.441854 0.919254 0.963053 0.305214
C40   C     C_R   0.541817 0.082053 0.067112 0.296592
C41   C     C_R   0.000551 0.398139 0.999623 -0.405309
C42   C     C_R   0.000734 0.602828 0.998277 -0.404858
C43   C     C_R   0.500418 0.898154 0.997819 -0.389700
C44   C     C_R   0.501050 0.102827 0.997756 -0.407830
C45   C     C_R   0.001498 0.479445 0.995327 -0.180313
C46   C     C_R   0.003225 0.521928 0.995658 -0.167203
C47   C     C_R   0.501638 0.979443 0.993875 -0.171731
C48   C     C_R   0.503529 0.021933 0.994346 -0.169456
C49   C     C_3   0.744321 0.279234 0.956216 0.347977
C50   C     C_3   0.217595 0.715858 0.969464 0.313908
C51   C     C_3   0.253824 0.280676 0.041156 0.349022
C52   C     C_3   0.744417 0.720185 0.956194 0.350045
C53   C     C_3   0.281468 0.782982 0.028881 0.309204
C54   C     C_3   0.755260 0.219648 0.043057 0.347074
C55   C     C_3   0.754982 0.779822 0.043151 0.348280
C56   C     C_3   0.245330 0.219810 0.957843 0.340288
C57   C     C_3   0.268974 0.753495 0.072164 0.325319
C58   C     C_3   0.752338 0.215972 0.969747 0.312399
C59   C     C_3   0.751899 0.783477 0.969797 0.303676
C60   C     C_3   0.248433 0.217165 0.031338 0.306513
C61   C     C_3   0.747298 0.282857 0.029486 0.314698
C62   C     C_3   0.230406 0.745237 0.926318 0.318944
C63   C     C_3   0.250861 0.283281 0.967790 0.308150
C64   C     C_3   0.747597 0.716506 0.029616 0.308435
C65   C     C_3   0.198043 0.749660 0.999046 -0.359932
C66   C     C_3   0.801114 0.249903 0.999102 -0.354243
C67   C     C_3   0.801065 0.749740 0.999317 -0.361157
C68   C     C_3   0.198377 0.250441 0.999915 -0.353027
C69   C     C_3   0.698418 0.249090 0.999888 -0.361427
C70   C     C_3   0.301288 0.749190 0.999554 -0.350455
C71   C     C_3   0.301085 0.249983 0.999425 -0.355932
C72   C     C_3   0.698546 0.750261 0.000259 -0.353147
C73   C     C_3   0.211315 0.779036 0.955622 0.354196
C74   C     C_3   0.803356 0.253530 0.072421 0.315387
C75   C     C_3   0.803317 0.746050 0.072593 0.321057
C76   C     C_3   0.195991 0.253150 0.926513 0.321998
C77   C     C_3   0.696310 0.245321 0.926711 0.321434
C78   C     C_3   0.287815 0.719652 0.042649 0.341701
C79   C     C_3   0.303217 0.247356 0.072793 0.320638
C80   C     C_3   0.696105 0.753998 0.926898 0.317819
C81   C     C_R   0.240820 0.272507 0.419138 -0.310278
C82   C     C_R   0.747915 0.738352 0.583545 -0.317937
C83   C     C_R   0.769714 0.279222 0.582251 -0.298067
C84   C     C_R   0.252051 0.739634 0.417113 -0.311972
C85   C     C_R   0.735005 0.776143 0.418631 -0.306488
C86   C     C_R   0.249929 0.237235 0.582301 -0.300538
C87   C     C_R   0.268206 0.778943 0.582243 -0.298617
C88   C     C_R   0.751526 0.237863 0.417160 -0.314782
H1    H     H_    0.276117 0.295263 0.451101 0.204355
H2    H     H_    0.696437 0.733030 0.552606 0.198738
H3    H     H_    0.739955 0.304175 0.550779 0.199914
H4    H     H_    0.303578 0.734244 0.448480 0.194760
H5    H     H_    0.768496 0.799740 0.450206 0.205620
H6    H     H_    0.198492 0.231654 0.549867 0.205935
H7    H     H_    0.237267 0.803532 0.550866 0.199535
H8    H     H_    0.802708 0.231347 0.448489 0.194282
C89   C     C_R   0.201917 0.273636 0.338744 0.390531
C90   C     C_R   0.787870 0.737498 0.664166 0.402639
C91   C     C_R   0.808692 0.279832 0.662702 0.394612
C92   C     C_R   0.212292 0.738352 0.336525 0.391904
C93   C     C_R   0.698056 0.776099 0.338387 0.389662
C94   C     C_R   0.287496 0.239988 0.662840 0.419653
C95   C     C_R   0.307182 0.779417 0.662706 0.391260
C96   C     C_R   0.711702 0.236830 0.336478 0.403705
C97   C     C_R   0.150477 0.247014 0.295808 -0.306839
C98   C     C_R   0.853262 0.749068 0.704916 -0.293790
C99   C     C_R   0.851745 0.248921 0.704488 -0.305748
C100  C     C_R   0.146574 0.749371 0.295319 -0.294576
C101  C     C_R   0.648995 0.748103 0.295727 -0.309926
C102  C     C_R   0.354201 0.248436 0.704826 -0.308756
C103  C     C_R   0.351852 0.749120 0.704367 -0.304948
C104  C     C_R   0.646609 0.249166 0.295413 -0.293328
C105  C     C_R   0.143187 0.217238 0.335402 0.289580
C106  C     C_R   0.878821 0.758652 0.664071 0.281930
C107  C     C_R   0.853060 0.216939 0.664261 0.292118
C108  C     C_R   0.120685 0.759228 0.335852 0.280418
C109  C     C_R   0.642230 0.718270 0.335627 0.300779
C110  C     C_R   0.381745 0.255402 0.665241 0.282392
C111  C     C_R   0.354790 0.717894 0.663853 0.292529
C112  C     C_R   0.621267 0.260033 0.336072 0.279454
C113  C     C_R   0.188233 0.213605 0.415756 0.403826
C114  C     C_R   0.840413 0.753941 0.583723 0.414579
C115  C     C_R   0.809337 0.215227 0.583523 0.412314
C116  C     C_R   0.159523 0.755919 0.416596 0.412093
C117  C     C_R   0.685843 0.715862 0.416303 0.409526
C118  C     C_R   0.344542 0.249624 0.585098 0.407935
C119  C     C_R   0.310928 0.716122 0.583150 0.411195
C120  C     C_R   0.659960 0.256750 0.416780 0.411426
C121  C     C_R   0.235378 0.242400 0.458109 -0.043654
C122  C     C_R   0.773798 0.745815 0.543007 -0.043772
C123  C     C_R   0.768956 0.247052 0.542365 -0.045728
C124  C     C_R   0.226047 0.747652 0.457355 -0.039570
C125  C     C_R   0.730709 0.745826 0.458092 -0.049042
C126  C     C_R   0.277645 0.242366 0.543163 -0.045754
C127  C     C_R   0.268933 0.747387 0.542197 -0.044853
C128  C     C_R   0.726027 0.247195 0.457490 -0.039467
C129  C     C_R   0.034402 0.041452 0.977690 0.400603
C130  C     C_R   0.022894 0.958518 0.068398 0.353663
C131  C     C_R   0.965911 0.041583 0.022573 0.400503
C132  C     C_R   0.977198 0.958416 0.931705 0.352650
C133  C     C_R   0.528935 0.541282 0.970160 0.398966
C134  C     C_R   0.529546 0.458401 0.069423 0.350879
C135  C     C_R   0.470831 0.541272 0.028588 0.396195
C136  C     C_R   0.470512 0.458171 0.929616 0.352517
C137  C     C_R   0.033365 0.081814 0.976396 0.357958
C138  C     C_R   0.017972 0.918171 0.066828 0.310042
C139  C     C_R   0.967183 0.081932 0.024219 0.355771
C140  C     C_R   0.982086 0.918071 0.933306 0.308995
C141  C     C_R   0.528252 0.581656 0.969525 0.358119
C142  C     C_R   0.524762 0.418044 0.068770 0.310183
C143  C     C_R   0.471597 0.581642 0.029649 0.365707
C144  C     C_R   0.474621 0.417745 0.930500 0.309214
C145  C     C_R   0.000138 0.102317 0.000121 -0.404024
C146  C     C_R   0.999971 0.897660 0.000051 -0.367790
C147  C     C_R   0.499962 0.602162 0.999721 -0.408319
C148  C     C_R   0.499700 0.397524 0.999760 -0.359501
C149  C     C_R   0.000079 0.021190 0.000034 -0.186649
C150  C     C_R   0.000033 0.978711 0.000036 -0.193211
C151  C     C_R   0.499922 0.520976 0.999334 -0.183593
C152  C     C_R   0.500131 0.478509 0.999463 -0.188631
O53   O     O_3   0.116827 0.478234 0.057066 -0.539761
C153  C     C_3   0.132465 0.475834 0.004443 -0.300549
H9    H     H_    0.095346 0.490571 0.949433 0.130181
H10   H     H_    0.138775 0.445428 0.993289 0.189321
H11   H     H_    0.179290 0.490871 0.029782 0.183316
O54   O     O_3   0.923276 0.524178 0.855265 -0.511406
C154  C     C_3   0.959321 0.507933 0.831330 -0.258811
H12   H     H_    0.975343 0.478285 0.854580 0.157544
H13   H     H_    0.001820 0.525744 0.847216 0.094686
H14   H     H_    0.927111 0.505550 0.767505 0.186738
O55   O     O_3   0.884374 0.479332 0.930161 -0.510617
C155  C     C_3   0.880760 0.497344 0.986519 -0.292301
H15   H     H_    0.904200 0.526113 0.002198 0.148209
H16   H     H_    0.901597 0.479463 0.039252 0.108528
H17   H     H_    0.828953 0.502423 0.961331 0.182490
O56   O     O_3   0.081929 0.522538 0.136399 -0.514997
C156  C     C_3   0.045756 0.505699 0.159617 -0.314078
H18   H     H_    0.033069 0.475435 0.138973 0.138732
H19   H     H_    0.000912 0.521952 0.140365 0.099868
H20   H     H_    0.076699 0.504869 0.223576 0.188011
O57   O     O_3   0.616225 0.978011 0.051450 -0.540157
C157  C     C_3   0.628114 0.976787 0.995369 -0.303884
H21   H     H_    0.591212 0.993758 0.943670 0.133496
H22   H     H_    0.630173 0.946678 0.978773 0.183389
H23   H     H_    0.676012 0.990236 0.020025 0.184030
O58   O     O_3   0.421034 0.024459 0.854437 -0.507085
C158  C     C_3   0.455218 0.008445 0.827831 -0.249648
H24   H     H_    0.472981 0.979081 0.851873 0.155265
H25   H     H_    0.496185 0.026801 0.840550 0.092246
H26   H     H_    0.421119 0.005415 0.764209 0.187897
O59   O     O_3   0.385147 0.979752 0.931305 -0.519483
C159  C     C_3   0.383194 0.997870 0.988881 -0.297916
H27   H     H_    0.403509 0.027445 0.000647 0.156861
H28   H     H_    0.408263 0.981183 0.043681 0.103229
H29   H     H_    0.331739 0.000962 0.966885 0.185779
O60   O     O_3   0.584901 0.022283 0.134591 -0.515853
C160  C     C_3   0.550315 0.005443 0.159968 -0.315820
H30   H     H_    0.537701 0.975092 0.139880 0.140603
H31   H     H_    0.505602 0.021523 0.141839 0.101109
H32   H     H_    0.582434 0.004865 0.223954 0.188977
O61   O     O_3   0.064850 0.022440 0.950419 -0.517648
C161  C     C_3   0.124298 0.006356 0.012525 0.127199
H33   H     H_    0.115855 0.978170 0.029620 0.117463
H34   H     H_    0.151026 0.025674 0.063970 0.087923
C162  C     C_3   0.167313 0.999058 0.986610 -0.834938
H35   H     H_    0.177239 0.026643 0.969173 0.257736
H36   H     H_    0.214089 0.986173 0.034669 0.188795
H37   H     H_    0.142907 0.978803 0.936864 0.255970
O62   O     O_3   0.045595 0.978338 0.135861 -0.539432
C163  C     C_3   0.113802 0.980747 0.180429 0.129987
H38   H     H_    0.128814 0.997901 0.149875 0.092228
H39   H     H_    0.136372 0.951536 0.193980 0.154397
C164  C     C_3   0.139074 0.001082 0.256022 -0.796345
H40   H     H_    0.125414 0.984502 0.288533 0.260091
H41   H     H_    0.192781 0.003350 0.291637 0.189458
H42   H     H_    0.118089 0.030573 0.244368 0.264362
O63   O     O_3   0.935439 0.022676 0.049772 -0.517417
C165  C     C_3   0.875712 0.006960 0.987485 0.125127
H43   H     H_    0.883739 0.978873 0.969461 0.120058
H44   H     H_    0.848984 0.026593 0.936596 0.088146
C166  C     C_3   0.832974 0.999526 0.013685 -0.833832
H45   H     H_    0.823499 0.027003 0.032095 0.256682
H46   H     H_    0.785962 0.986952 0.965457 0.189946
H47   H     H_    0.857371 0.978966 0.062842 0.254996
O64   O     O_3   0.954718 0.978111 0.864286 -0.540406
C167  C     C_3   0.886556 0.980946 0.819838 0.131707
H48   H     H_    0.871872 0.998484 0.850431 0.093164
H49   H     H_    0.863583 0.951881 0.806403 0.154602
C168  C     C_3   0.861468 0.001019 0.744163 -0.799144
H50   H     H_    0.874804 0.984060 0.711612 0.259000
H51   H     H_    0.807800 0.003623 0.708640 0.190226
H52   H     H_    0.882873 0.030361 0.755707 0.264137
O65   O     O_3   0.553410 0.522278 0.935686 -0.518888
C169  C     C_3   0.615124 0.506522 0.992703 0.124703
H53   H     H_    0.609928 0.478567 0.013646 0.119493
H54   H     H_    0.645602 0.526264 0.042882 0.088843
C170  C     C_3   0.650724 0.498707 0.957163 -0.828885
H55   H     H_    0.657205 0.526041 0.935571 0.256893
H56   H     H_    0.699196 0.486076 0.001188 0.189855
H57   H     H_    0.622541 0.478058 0.908407 0.255962
O66   O     O_3   0.558642 0.478344 0.138231 -0.542001
C171  C     C_3   0.625937 0.480587 0.174383 0.132650
H58   H     H_    0.635761 0.498386 0.139472 0.092717
H59   H     H_    0.647771 0.451384 0.183600 0.155830
C172  C     C_3   0.658590 0.499906 0.252628 -0.800438
H60   H     H_    0.650179 0.482669 0.289412 0.259931
H61   H     H_    0.711641 0.502077 0.281641 0.189686
H62   H     H_    0.638514 0.529387 0.245256 0.263429
O67   O     O_3   0.446404 0.522273 0.063004 -0.518423
C173  C     C_3   0.385013 0.506146 0.006022 0.125027
H63   H     H_    0.390783 0.477976 0.986071 0.119095
H64   H     H_    0.354502 0.525462 0.955194 0.087604
C174  C     C_3   0.348986 0.498794 0.041121 -0.829752
H65   H     H_    0.341962 0.526353 0.061759 0.258392
H66   H     H_    0.300748 0.485912 0.997119 0.189427
H67   H     H_    0.377162 0.478521 0.090482 0.254302
O68   O     O_3   0.441528 0.477909 0.860701 -0.543326
C175  C     C_3   0.374238 0.480419 0.824487 0.132053
H68   H     H_    0.364506 0.498485 0.859288 0.093669
H69   H     H_    0.352199 0.451326 0.815387 0.155078
C176  C     C_3   0.341746 0.499518 0.746161 -0.806164
H70   H     H_    0.350073 0.482007 0.709483 0.258325
H71   H     H_    0.288704 0.501903 0.717102 0.189420
H72   H     H_    0.362018 0.528896 0.753414 0.264515
O69   O     O_3   0.062031 0.100971 0.947334 -0.550434
C177  C     C_3   0.125652 0.111941 0.008886 -0.211999
H73   H     H_    0.128668 0.125001 0.058267 0.126671
H74   H     H_    0.142411 0.134069 0.987329 0.212361
H75   H     H_    0.159302 0.087082 0.028969 0.144398
O70   O     O_3   0.036839 0.898705 0.133226 -0.577895
C178  C     C_3   0.986011 0.900888 0.141238 -0.201415
H76   H     H_    0.000508 0.884317 0.193128 0.159574
H77   H     H_    0.940490 0.887834 0.090790 0.153267
H78   H     H_    0.976794 0.931082 0.149974 0.192912
O71   O     O_3   0.939955 0.101133 0.055134 -0.543903
C179  C     C_3   0.876023 0.112400 0.995118 -0.200051
H79   H     H_    0.871826 0.125515 0.945101 0.126973
H80   H     H_    0.860549 0.134577 0.018268 0.215419
H81   H     H_    0.842237 0.087684 0.975612 0.141220
O72   O     O_3   0.963746 0.898518 0.867092 -0.579021
C180  C     C_3   0.015083 0.900551 0.859968 -0.184370
H82   H     H_    0.001648 0.883263 0.809174 0.164740
H83   H     H_    0.060775 0.888182 0.911376 0.156511
H84   H     H_    0.023576 0.930627 0.849978 0.189225
O73   O     O_3   0.551748 0.600810 0.934338 -0.546627
C181  C     C_3   0.617035 0.611510 0.990541 -0.206413
H85   H     H_    0.626861 0.621598 0.045780 0.126828
H86   H     H_    0.628724 0.635840 0.967336 0.207260
H87   H     H_    0.649974 0.587338 0.001712 0.144495
O74   O     O_3   0.550789 0.398537 0.137336 -0.579882
C182  C     C_3   0.507312 0.401483 0.157177 -0.207443
H88   H     H_    0.530397 0.388172 0.214597 0.158848
H89   H     H_    0.461428 0.385684 0.115077 0.157786
H90   H     H_    0.496287 0.431936 0.162023 0.193106
O75   O     O_3   0.448344 0.600756 0.065268 -0.529195
C183  C     C_3   0.382958 0.611325 0.009343 -0.238197
H91   H     H_    0.373876 0.623407 0.955776 0.111400
H92   H     H_    0.370169 0.634107 0.034388 0.222567
H93   H     H_    0.350331 0.586508 0.994966 0.143374
O76   O     O_3   0.447387 0.397866 0.861944 -0.583257
C184  C     C_3   0.489791 0.400044 0.840471 -0.209158
H94   H     H_    0.467262 0.384358 0.785272 0.163593
H95   H     H_    0.537256 0.386097 0.884243 0.156292
H96   H     H_    0.497668 0.430254 0.830449 0.195255
O77   O     O_3   0.118287 0.398906 0.072295 -0.565626
C185  C     C_3   0.153090 0.403555 0.153221 0.216156
H97   H     H_    0.153789 0.375433 0.178431 0.175185
H98   H     H_    0.132288 0.425358 0.171362 0.116718
C186  C     C_3   0.222701 0.415224 0.188001 -0.811149
H99   H     H_    0.251019 0.417020 0.251758 0.199130
H100  H     H_    0.245515 0.393650 0.172871 0.250210
H101  H     H_    0.223902 0.443849 0.165907 0.287105
O78   O     O_3   0.920522 0.602824 0.858777 -0.540194
C187  C     C_3   0.954396 0.615383 0.829316 0.170641
H102  H     H_    0.974830 0.590554 0.817450 0.122776
H103  H     H_    0.994483 0.635481 0.870050 0.113131
C188  C     C_3   0.907620 0.636697 0.753786 -0.836447
H104  H     H_    0.886213 0.661716 0.763538 0.265486
H105  H     H_    0.933784 0.647306 0.730512 0.194867
H106  H     H_    0.867992 0.617057 0.710856 0.253203
O79   O     O_3   0.882909 0.400518 0.926956 -0.542730
C189  C     C_3   0.865449 0.395149 0.977647 0.177874
H107  H     H_    0.895949 0.411287 0.033317 0.061153
H108  H     H_    0.869644 0.363986 0.992024 0.165423
C190  C     C_3   0.795161 0.407332 0.936742 -0.794454
H109  H     H_    0.763517 0.389666 0.883985 0.268556
H110  H     H_    0.780759 0.403665 0.975873 0.178941
H111  H     H_    0.788536 0.438007 0.919241 0.270650
O80   O     O_3   0.080684 0.601311 0.137797 -0.535732
C191  C     C_3   0.045221 0.611485 0.166620 0.158355
H112  H     H_    0.028945 0.585338 0.180483 0.123626
H113  H     H_    0.002051 0.629482 0.124781 0.099724
C192  C     C_3   0.088683 0.634715 0.240492 -0.832062
H114  H     H_    0.105104 0.661401 0.228448 0.263275
H115  H     H_    0.061453 0.642839 0.263888 0.194769
H116  H     H_    0.131775 0.617339 0.284297 0.251139
O81   O     O_3   0.617443 0.898461 0.065067 -0.568244
C193  C     C_3   0.658152 0.905015 0.145848 0.216927
H117  H     H_    0.659343 0.878352 0.175228 0.169387
H118  H     H_    0.642376 0.929037 0.166003 0.133662
C194  C     C_3   0.726631 0.913850 0.171735 -0.818726
H119  H     H_    0.727035 0.940584 0.143778 0.282445
H120  H     H_    0.759300 0.918085 0.235208 0.199917
H121  H     H_    0.745060 0.889663 0.155902 0.257060
O82   O     O_3   0.419094 0.103002 0.858448 -0.523710
C195  C     C_3   0.452117 0.116412 0.828410 0.154630
H122  H     H_    0.475292 0.092263 0.818890 0.111260
H123  H     H_    0.490021 0.137912 0.867687 0.102645
C196  C     C_3   0.403703 0.135889 0.751083 -0.771871
H124  H     H_    0.378834 0.159890 0.758129 0.280158
H125  H     H_    0.429310 0.147684 0.727924 0.180881
H126  H     H_    0.366829 0.114661 0.709277 0.254526
O83   O     O_3   0.382584 0.900348 0.921069 -0.548437
C197  C     C_3   0.355669 0.899140 0.962556 0.190326
H127  H     H_    0.383177 0.915696 0.017773 0.083659
H128  H     H_    0.354723 0.868617 0.977636 0.178538
C198  C     C_3   0.286102 0.914036 0.911151 -0.831109
H129  H     H_    0.255541 0.893996 0.862023 0.235902
H130  H     H_    0.266390 0.916706 0.945059 0.185016
H131  H     H_    0.283713 0.942742 0.887087 0.301897
O84   O     O_3   0.583989 0.100990 0.136724 -0.536036
C199  C     C_3   0.550726 0.111011 0.168429 0.159909
H132  H     H_    0.534706 0.084819 0.182502 0.123309
H133  H     H_    0.507636 0.129458 0.128390 0.100527
C200  C     C_3   0.596313 0.133524 0.242763 -0.834534
H134  H     H_    0.612874 0.160125 0.230666 0.267372
H135  H     H_    0.570754 0.141745 0.268230 0.193353
H136  H     H_    0.639234 0.115586 0.284930 0.252696
O85   O     O_3   0.283920 0.758172 0.146280 -0.584066
C201  C     C_3   0.351649 0.755670 0.202758 -0.271706
H137  H     H_    0.379642 0.772404 0.187472 0.174902
H138  H     H_    0.367707 0.725135 0.213682 0.184568
H139  H     H_    0.363583 0.767698 0.257574 0.175690
O86   O     O_3   0.759869 0.181758 0.940077 -0.629818
C202  C     C_3   0.705293 0.157685 0.909725 -0.318599
H140  H     H_    0.665545 0.166377 0.849960 0.197994
H141  H     H_    0.687059 0.157148 0.945549 0.192533
H142  H     H_    0.719312 0.127729 0.907185 0.157151
O87   O     O_3   0.759695 0.817710 0.940605 -0.609397
C203  C     C_3   0.704252 0.841256 0.908129 -0.260919
H143  H     H_    0.684947 0.841927 0.942836 0.189737
H144  H     H_    0.665667 0.831865 0.848332 0.192773
H145  H     H_    0.717618 0.871269 0.905071 0.160260
O88   O     O_3   0.242736 0.184005 0.064919 -0.628454
C204  C     C_3   0.288603 0.156052 0.078628 -0.325036
H146  H     H_    0.337312 0.168527 0.103115 0.192223
H147  H     H_    0.270787 0.139873 0.024984 0.199022
H148  H     H_    0.294573 0.134964 0.121134 0.161515
O89   O     O_3   0.739440 0.317056 0.058926 -0.602316
C205  C     C_3   0.794502 0.340809 0.090659 -0.289455
H149  H     H_    0.813135 0.341533 0.055271 0.172607
H150  H     H_    0.833648 0.331560 0.150305 0.194183
H151  H     H_    0.780927 0.370774 0.093898 0.162442
O90   O     O_3   0.216572 0.740113 0.852838 -0.613192
C206  C     C_3   0.149364 0.744025 0.794922 -0.258329
H152  H     H_    0.136883 0.774823 0.779397 0.191452
H153  H     H_    0.118959 0.731403 0.811130 0.196340
H154  H     H_    0.136970 0.728663 0.742514 0.156162
O91   O     O_3   0.256476 0.316526 0.934274 -0.614953
C207  C     C_3   0.210009 0.344280 0.919684 -0.269225
H155  H     H_    0.228057 0.361387 0.972400 0.197728
H156  H     H_    0.161873 0.331542 0.897182 0.185942
H157  H     H_    0.202555 0.364589 0.875289 0.158645
O92   O     O_3   0.739978 0.682323 0.059091 -0.626518
C208  C     C_3   0.794833 0.658394 0.090025 -0.315561
H158  H     H_    0.834608 0.667642 0.149411 0.198676
H159  H     H_    0.812723 0.657365 0.053853 0.190874
H160  H     H_    0.781274 0.628535 0.093697 0.157080
O93   O     O_3   0.741062 0.309885 0.910944 -0.593881
C209  C     C_3   0.686895 0.333362 0.886654 -0.305102
H161  H     H_    0.700223 0.355815 0.930423 0.197824
H162  H     H_    0.644860 0.316971 0.875291 0.203881
H163  H     H_    0.670685 0.347950 0.832123 0.159869
O94   O     O_3   0.180497 0.681651 0.940292 -0.606034
C210  C     C_3   0.202187 0.658390 0.905875 -0.292294
H164  H     H_    0.255869 0.658660 0.937848 0.164929
H165  H     H_    0.178416 0.667296 0.845210 0.192816
H166  H     H_    0.187662 0.628119 0.904924 0.160538
O95   O     O_3   0.252490 0.312339 0.081540 -0.580838
C211  C     C_3   0.312028 0.332271 0.120915 -0.291536
H167  H     H_    0.332642 0.334276 0.087728 0.189608
H168  H     H_    0.347435 0.318487 0.177377 0.192569
H169  H     H_    0.304273 0.362187 0.132145 0.166806
O96   O     O_3   0.742624 0.690064 0.910696 -0.590654
C212  C     C_3   0.691143 0.664580 0.887951 -0.277981
H170  H     H_    0.647340 0.679319 0.875997 0.187434
H171  H     H_    0.707557 0.641958 0.932313 0.186583
H172  H     H_    0.676426 0.649837 0.834030 0.167133
O97   O     O_3   0.318276 0.817296 0.057974 -0.624143
C213  C     C_3   0.294852 0.841045 0.089856 -0.307186
H173  H     H_    0.315996 0.832156 0.149889 0.200211
H174  H     H_    0.240919 0.841391 0.055219 0.186326
H175  H     H_    0.310768 0.871101 0.092034 0.158247
O98   O     O_3   0.757045 0.189582 0.088487 -0.591381
C214  C     C_3   0.808073 0.163788 0.110540 -0.263079
H176  H     H_    0.824395 0.150006 0.165813 0.167158
H177  H     H_    0.851094 0.178020 0.119643 0.187037
H178  H     H_    0.790477 0.140480 0.067093 0.186250
O99   O     O_3   0.756598 0.810007 0.088445 -0.587164
C215  C     C_3   0.805562 0.836896 0.107751 -0.270153
H179  H     H_    0.783253 0.862655 0.070150 0.182871
H180  H     H_    0.844023 0.825422 0.103567 0.187006
H181  H     H_    0.829649 0.846460 0.168176 0.158046
O100  O     O_3   0.246101 0.188399 0.916478 -0.577027
C216  C     C_3   0.185793 0.169155 0.875069 -0.222541
H182  H     H_    0.193328 0.138984 0.864617 0.174558
H183  H     H_    0.151584 0.182904 0.817978 0.181006
H184  H     H_    0.163514 0.167896 0.906415 0.173469
O101  O     O_3   0.166530 0.808491 0.909818 -0.598857
C217  C     C_3   0.194551 0.834587 0.887402 -0.326078
H185  H     H_    0.223628 0.820198 0.870895 0.199120
H186  H     H_    0.224989 0.855508 0.934356 0.204664
H187  H     H_    0.155205 0.851041 0.836566 0.170187
O102  O     O_3   0.862872 0.258590 0.145855 -0.614928
C218  C     C_3   0.853536 0.254768 0.203836 -0.260518
H188  H     H_    0.807248 0.267800 0.187909 0.198469
H189  H     H_    0.893755 0.269838 0.256389 0.158447
H190  H     H_    0.856070 0.223951 0.219006 0.181114
O103  O     O_3   0.862560 0.741358 0.146384 -0.586669
C219  C     C_3   0.851737 0.744022 0.203282 -0.272274
H191  H     H_    0.808850 0.727115 0.188707 0.174831
H192  H     H_    0.846282 0.774576 0.213592 0.192903
H193  H     H_    0.894879 0.732355 0.258129 0.172303
O104  O     O_3   0.135926 0.255584 0.852943 -0.602814
C220  C     C_3   0.146423 0.262697 0.796764 -0.302894
H194  H     H_    0.187218 0.245451 0.806027 0.201002
H195  H     H_    0.155054 0.293845 0.794582 0.191641
H196  H     H_    0.101788 0.254604 0.739643 0.169290
O105  O     O_3   0.637400 0.240553 0.852515 -0.586666
C221  C     C_3   0.649004 0.242290 0.796133 -0.275714
H197  H     H_    0.691603 0.224781 0.811419 0.178451
H198  H     H_    0.655457 0.272564 0.785297 0.188730
H199  H     H_    0.605850 0.230663 0.741216 0.171669
O106  O     O_3   0.331378 0.689551 0.088098 -0.611298
C222  C     C_3   0.301470 0.663218 0.107945 -0.277731
H200  H     H_    0.274614 0.640950 0.062392 0.193461
H201  H     H_    0.268415 0.677298 0.118725 0.200729
H202  H     H_    0.339666 0.648080 0.161687 0.167301
O107  O     O_3   0.362415 0.245041 0.147366 -0.584337
C223  C     C_3   0.350100 0.238090 0.202167 -0.277594
H203  H     H_    0.341825 0.206896 0.204532 0.190305
H204  H     H_    0.308412 0.255047 0.191218 0.178389
H205  H     H_    0.393649 0.246528 0.259939 0.171797
O108  O     O_3   0.636402 0.759030 0.853663 -0.611177
C224  C     C_3   0.645222 0.754992 0.795256 -0.257250
H206  H     H_    0.639926 0.724281 0.778028 0.177087
H207  H     H_    0.692482 0.766565 0.811671 0.196297
H208  H     H_    0.606246 0.771292 0.743819 0.162014
O109  O     O_3   0.213126 0.301916 0.302711 -0.583453
C225  C     C_3   0.268173 0.291031 0.306350 0.127689
H209  H     H_    0.259676 0.263020 0.276090 0.132721
H210  H     H_    0.312168 0.288536 0.367217 0.148457
C226  C     C_3   0.281667 0.321599 0.267190 -0.817543
H211  H     H_    0.289295 0.349939 0.295513 0.246903
H212  H     H_    0.326286 0.313934 0.272549 0.192840
H213  H     H_    0.240208 0.323547 0.205142 0.302831
O110  O     O_3   0.762404 0.728131 0.703870 -0.587665
C227  C     C_3   0.736548 0.690273 0.684385 0.081916
H214  H     H_    0.762724 0.670633 0.670091 0.145350
H215  H     H_    0.684477 0.691454 0.634272 0.145054
C228  C     C_3   0.741752 0.672786 0.752562 -0.695739
H216  H     H_    0.716396 0.691504 0.768673 0.256843
H217  H     H_    0.719117 0.643707 0.737013 0.189633
H218  H     H_    0.793534 0.670070 0.802759 0.296851
O111  O     O_3   0.808594 0.312177 0.700509 -0.573902
C229  C     C_3   0.751179 0.312347 0.695994 0.107261
H219  H     H_    0.742002 0.283673 0.711428 0.129380
H220  H     H_    0.708780 0.320410 0.636829 0.141611
C230  C     C_3   0.757832 0.341961 0.752626 -0.685861
H221  H     H_    0.766734 0.371064 0.739099 0.257260
H222  H     H_    0.712519 0.342781 0.748568 0.176924
H223  H     H_    0.798895 0.334101 0.812538 0.302372
O112  O     O_3   0.238409 0.729124 0.297461 -0.572537
C231  C     C_3   0.260882 0.690520 0.313979 0.147417
H224  H     H_    0.226709 0.670790 0.314510 0.139058
H225  H     H_    0.309367 0.688924 0.370712 0.136837
C232  C     C_3   0.267489 0.676142 0.252234 -0.763317
H226  H     H_    0.303153 0.694189 0.252057 0.249490
H227  H     H_    0.284656 0.645748 0.264193 0.193232
H228  H     H_    0.219792 0.677629 0.194657 0.289072
O113  O     O_3   0.708768 0.804470 0.302034 -0.582038
C233  C     C_3   0.766489 0.795327 0.310284 0.129524
H229  H     H_    0.762319 0.766731 0.283797 0.132740
H230  H     H_    0.809201 0.795010 0.372146 0.151877
C234  C     C_3   0.778765 0.825742 0.269739 -0.818296
H231  H     H_    0.780685 0.854665 0.293214 0.246993
H232  H     H_    0.825940 0.820176 0.279814 0.192680
H233  H     H_    0.739413 0.825006 0.206767 0.300997
O114  O     O_3   0.260428 0.232848 0.701687 -0.560317
C235  C     C_3   0.206961 0.257503 0.676099 0.114737
H234  H     H_    0.198337 0.280264 0.634292 0.105043
H235  H     H_    0.216803 0.273129 0.727081 0.151866
C236  C     C_3   0.145595 0.233492 0.641045 -0.864895
H236  H     H_    0.152594 0.212023 0.683647 0.267349
H237  H     H_    0.104274 0.252650 0.624085 0.196410
H238  H     H_    0.133597 0.217865 0.589070 0.257628
O115  O     O_3   0.305492 0.811181 0.700603 -0.572461
C237  C     C_3   0.247661 0.810116 0.695114 0.135499
H239  H     H_    0.240079 0.781245 0.711543 0.145342
H240  H     H_    0.205092 0.817276 0.635442 0.138757
C238  C     C_3   0.251866 0.839861 0.750007 -0.735858
H241  H     H_    0.259673 0.869092 0.735770 0.266189
H242  H     H_    0.205982 0.839920 0.744721 0.168066
H243  H     H_    0.292758 0.832749 0.810475 0.289112
O116  O     O_3   0.737096 0.226650 0.296961 -0.586485
C239  C     C_3   0.762593 0.188711 0.316982 0.080864
H244  H     H_    0.736013 0.169511 0.331199 0.144940
H245  H     H_    0.814597 0.189785 0.367297 0.144717
C240  C     C_3   0.757627 0.170681 0.249211 -0.694854
H246  H     H_    0.783766 0.188827 0.233493 0.254247
H247  H     H_    0.779570 0.141396 0.265012 0.191840
H248  H     H_    0.705920 0.168299 0.198650 0.297367
O117  O     O_3   0.095690 0.189317 0.295364 -0.561554
C241  C     C_3   0.043788 0.198209 0.299250 0.168059
H249  H     H_    0.023602 0.227426 0.275060 0.137688
H250  H     H_    0.059458 0.196991 0.359759 0.152015
C242  C     C_3   0.990031 0.168744 0.252065 -0.738057
H251  H     H_    0.008685 0.139229 0.274540 0.256794
H252  H     H_    0.949572 0.174958 0.256111 0.172526
H253  H     H_    0.971725 0.170104 0.190655 0.282212
O118  O     O_3   0.943221 0.769089 0.702938 -0.576846
C243  C     C_3   0.946423 0.809326 0.694686 0.179258
H254  H     H_    0.931659 0.825418 0.726817 0.151248
H255  H     H_    0.915031 0.818628 0.633184 0.155457
C244  C     C_3   0.015749 0.820120 0.727479 -0.836460
H256  H     H_    0.031164 0.804527 0.695720 0.247971
H257  H     H_    0.019288 0.851633 0.721362 0.187841
H258  H     H_    0.048136 0.812253 0.789417 0.307409
O119  O     O_3   0.892677 0.185502 0.704056 -0.571047
C245  C     C_3   0.947460 0.187223 0.703232 0.149330
H259  H     H_    0.971540 0.216037 0.722365 0.138975
H260  H     H_    0.933484 0.180984 0.644465 0.163572
C246  C     C_3   0.996545 0.156972 0.758316 -0.710382
H261  H     H_    0.973958 0.127870 0.741744 0.257555
H262  H     H_    0.038683 0.157019 0.755918 0.171041
H263  H     H_    0.013885 0.163441 0.818310 0.292040
O120  O     O_3   0.055486 0.767864 0.296279 -0.565309
C247  C     C_3   0.048612 0.807992 0.301373 0.188272
H264  H     H_    0.066059 0.824472 0.272552 0.143851
H265  H     H_    0.075581 0.817917 0.362263 0.158423
C248  C     C_3   0.977309 0.817040 0.261087 -0.816577
H266  H     H_    0.959204 0.801417 0.289821 0.254366
H267  H     H_    0.970454 0.848480 0.263798 0.172160
H268  H     H_    0.949370 0.807837 0.199905 0.289010
O121  O     O_3   0.597125 0.689113 0.295736 -0.557617
C249  C     C_3   0.543425 0.696393 0.297019 0.132521
H269  H     H_    0.522992 0.725795 0.274592 0.115458
H270  H     H_    0.557276 0.693562 0.356545 0.157903
C250  C     C_3   0.490548 0.667028 0.245934 -0.684032
H271  H     H_    0.509534 0.637294 0.265825 0.252358
H272  H     H_    0.449272 0.671631 0.249077 0.176056
H273  H     H_    0.473226 0.670337 0.185134 0.303428
O122  O     O_3   0.446053 0.266262 0.705333 -0.561218
C251  C     C_3   0.448216 0.306089 0.692698 0.185298
H274  H     H_    0.417733 0.323377 0.703880 0.118037
H275  H     H_    0.431768 0.311470 0.632674 0.165386
C252  C     C_3   0.517564 0.320121 0.747295 -0.833649
H276  H     H_    0.533754 0.317048 0.807651 0.280600
H277  H     H_    0.549488 0.302921 0.738830 0.266618
H278  H     H_    0.520757 0.350938 0.735814 0.173197
O123  O     O_3   0.396615 0.687221 0.703230 -0.565195
C253  C     C_3   0.450963 0.691274 0.702007 0.157864
H279  H     H_    0.474044 0.720215 0.723623 0.138548
H280  H     H_    0.436858 0.687042 0.642620 0.159140
C254  C     C_3   0.501189 0.660792 0.754018 -0.726118
H281  H     H_    0.479506 0.631531 0.735058 0.262088
H282  H     H_    0.542879 0.662711 0.750898 0.166873
H283  H     H_    0.518855 0.665410 0.814689 0.287891
O124  O     O_3   0.556672 0.270176 0.296642 -0.562106
C255  C     C_3   0.552487 0.310622 0.301121 0.190319
H284  H     H_    0.573702 0.325792 0.275271 0.137073
H285  H     H_    0.577757 0.320483 0.361808 0.158874
C256  C     C_3   0.481561 0.321879 0.256714 -0.822971
H286  H     H_    0.455276 0.313755 0.195043 0.287467
H287  H     H_    0.459558 0.306776 0.281469 0.255101
H288  H     H_    0.477038 0.353479 0.260972 0.172131
O125  O     O_3   0.183121 0.182871 0.452807 -0.605584
C257  C     C_3   0.222085 0.152416 0.457984 -0.246394
H289  H     H_    0.274328 0.160315 0.496118 0.137818
H290  H     H_    0.207660 0.143462 0.400048 0.172015
H291  H     H_    0.215445 0.127122 0.484177 0.189647
O126  O     O_3   0.867854 0.759708 0.545145 -0.611745
C258  C     C_3   0.890581 0.723982 0.538560 -0.311199
H292  H     H_    0.849517 0.704191 0.499347 0.143772
H293  H     H_    0.925375 0.710208 0.595904 0.176714
H294  H     H_    0.916768 0.729087 0.512769 0.177771
O127  O     O_3   0.809249 0.183054 0.545244 -0.613609
C259  C     C_3   0.761364 0.157169 0.532543 -0.292341
H295  H     H_    0.711986 0.168500 0.487917 0.144749
H296  H     H_    0.766862 0.150468 0.586761 0.173039
H297  H     H_    0.766653 0.129655 0.510317 0.186862
O128  O     O_3   0.132648 0.762944 0.455508 -0.613583
C260  C     C_3   0.109153 0.727884 0.463202 -0.304628
H298  H     H_    0.149905 0.708332 0.504265 0.144366
H299  H     H_    0.074986 0.713288 0.406559 0.178665
H300  H     H_    0.082033 0.734194 0.487447 0.179692
O129  O     O_3   0.681584 0.684998 0.453819 -0.613992
C261  C     C_3   0.725251 0.656104 0.465064 -0.286038
H301  H     H_    0.776317 0.665502 0.507817 0.142644
H302  H     H_    0.716750 0.647495 0.409842 0.176451
H303  H     H_    0.717642 0.630142 0.488888 0.187489
O130  O     O_3   0.373057 0.253503 0.547342 -0.619832
C262  C     C_3   0.402695 0.218205 0.552163 -0.305311
H304  H     H_    0.366113 0.194790 0.521977 0.141885
H305  H     H_    0.441023 0.209952 0.613122 0.189587
H306  H     H_    0.426369 0.221561 0.522897 0.174688
O131  O     O_3   0.312427 0.684574 0.544686 -0.614000
C263  C     C_3   0.266016 0.657479 0.532078 -0.289769
H307  H     H_    0.216027 0.668042 0.487655 0.143802
H308  H     H_    0.272085 0.650076 0.586382 0.174254
H309  H     H_    0.272634 0.630502 0.509631 0.186884
O132  O     O_3   0.633522 0.265167 0.455703 -0.613386
C264  C     C_3   0.608448 0.230921 0.463795 -0.306038
H310  H     H_    0.648292 0.210914 0.505012 0.143415
H311  H     H_    0.573557 0.216370 0.407301 0.179207
H312  H     H_    0.581703 0.238385 0.488049 0.179645

loop_
_geom_bond_atom_site_label_1
_geom_bond_atom_site_label_2
_geom_bond_distance
_ccdc_geom_bond_type
C261  H302  1.114016 S    
C158  H25   1.113263 S    
C245  H259  1.115825 S    
Zn8   O34   1.938831 S    
C256  H287  1.110088 S    
C224  H206  1.107660 S    
C11   C97   1.481589 S    
C112  O124  1.382452 S    
C109  O121  1.383702 S    
C247  C248  1.517141 S    
C254  H281  1.110615 S    
C260  H298  1.110815 S    
O85   C201  1.410631 S    
C164  H42   1.110952 S    
C225  C226  1.516669 S    
O123  C253  1.413661 S    
C94   C102  1.409559 A    
O109  C225  1.414151 S    
C188  H104  1.108732 S    
C57   C78   1.539115 S    
O42   C14   1.283064 A    
O106  C222  1.411235 S    
C53   O97   1.411887 S    
C261  H303  1.109144 S    
C119  C127  1.407391 A    
C92   O112  1.385732 S    
C157  H22   1.113040 S    
C162  H37   1.110964 S    
C117  C125  1.407142 A    
O56   C156  1.413514 S    
O46   C2    1.277613 A    
C239  C240  1.520095 S    
O89   C205  1.410326 S    
O24   C18   1.282808 A    
C62   C73   1.538821 S    
Zn6   O42   1.938621 S    
C241  H249  1.115040 S    
C28   O56   1.387016 S    
C186  H101  1.108775 S    
C138  C146  1.412328 A    
C195  C196  1.521727 S    
C234  H232  1.109171 S    
O98   C214  1.411104 S    
C73   O101  1.409263 S    
O74   C182  1.411819 S    
C144  O76   1.383893 S    
C32   O60   1.386914 S    
O132  C264  1.408884 S    
C226  H212  1.109179 S    
C251  C252  1.514443 S    
C130  C150  1.406335 A    
C231  H224  1.116088 S    
C120  C128  1.406261 A    
C38   O82   1.385691 S    
Zn16  O28   1.937554 S    
Zn1   O31   1.939208 S    
C165  C166  1.520844 S    
C246  H263  1.110857 S    
Zn4   O2    1.950170 S    
C130  C138  1.401988 A    
C157  H23   1.109235 S    
C156  H18   1.109117 S    
Zn4   O40   1.939506 S    
C195  H123  1.112466 S    
C28   C46   1.415605 A    
O33   C23   1.287410 A    
O11   C7    1.277326 A    
C139  C145  1.414450 A    
Zn7   O43   1.939505 S    
O76   C184  1.411281 S    
C250  H272  1.108884 S    
O73   C181  1.412458 S    
C85   C125  1.396614 A    
C214  H177  1.113044 S    
O25   C19   1.283846 A    
C248  H268  1.108727 S    
C171  H59   1.114569 S    
C90   C98   1.410664 A    
O122  C251  1.414085 S    
C206  H152  1.106979 S    
C25   C33   1.403941 A    
C235  H234  1.116448 S    
C26   O54   1.386322 S    
C228  H218  1.110776 S    
C29   O57   1.384454 S    
C61   C74   1.539456 S    
C136  C144  1.403413 A    
C237  C238  1.521211 S    
O69   C177  1.411348 S    
C7    C70   1.459363 S    
C130  O62   1.383585 S    
C85   H5    1.083450 S    
C208  H160  1.109221 S    
C19   C147  1.476986 S    
Zn12  O24   1.937554 S    
C204  H148  1.109099 S    
Zn13  O17   1.940403 S    
O53   C153  1.409519 S    
O16   C12   1.283919 A    
Zn10  O14   1.940403 S    
C49   O93   1.410904 S    
C151  C152  1.471031 S    
C263  H309  1.109142 S    
Zn16  O4    1.949792 S    
C200  H136  1.110657 S    
O100  C216  1.410687 S    
C231  C232  1.518660 S    
C213  H173  1.108470 S    
C232  H226  1.108875 S    
C27   O55   1.387394 S    
C252  H278  1.110122 S    
C153  H10   1.112435 S    
C244  H256  1.110043 S    
C189  H107  1.116695 S    
O77   C185  1.418562 S    
O30   C22   1.281329 A    
O47   C3    1.276521 A    
C52   C80   1.539849 S    
C207  H157  1.109080 S    
Zn7   O3    1.950170 S    
C220  H195  1.108300 S    
C154  H13   1.113808 S    
O119  C245  1.413722 S    
C232  H228  1.110876 S    
C193  H118  1.117493 S    
C115  O127  1.383887 S    
O23   C17   1.282431 A    
C62   C70   1.549887 S    
C143  O75   1.384867 S    
C254  H283  1.110999 S    
C113  O125  1.383347 S    
C99   C107  1.417340 A    
Zn9   O21   1.939316 S    
C190  H109  1.108147 S    
C106  O118  1.382690 S    
C113  C121  1.406225 A    
C185  H97   1.110836 S    
C100  C108  1.414196 A    
C28   C36   1.397990 A    
C225  H209  1.115028 S    
C173  C174  1.520768 S    
C36   O80   1.385824 S    
C134  C152  1.405958 A    
C29   C37   1.404702 A    
C142  O74   1.383584 S    
C54   C69   1.553912 S    
C59   C67   1.549825 S    
C235  C236  1.524317 S    
C60   C79   1.540382 S    
C217  H185  1.113480 S    
C240  H246  1.107884 S    
C51   C68   1.550985 S    
C30   C38   1.399261 A    
C256  H286  1.110724 S    
C54   O98   1.411834 S    
Zn10  O22   1.939317 S    
C52   C67   1.554488 S    
C133  C141  1.398582 A    
C203  H143  1.113577 S    
C223  H204  1.113001 S    
C164  H40   1.110730 S    
O117  C241  1.412779 S    
C165  H44   1.114703 S    
C177  H75   1.107784 S    
C4    C65   1.459738 S    
C167  H48   1.111322 S    
Zn6   O4    1.949423 S    
Zn10  O2    1.946292 S    
C219  H193  1.109114 S    
C83   C91   1.394602 A    
C211  H167  1.113698 S    
C259  H296  1.114228 S    
O79   C189  1.415462 S    
Zn3   O1    1.950170 S    
C116  C124  1.406181 A    
C60   O88   1.411184 S    
O112  C231  1.414922 S    
C257  H290  1.113706 S    
C202  H141  1.113202 S    
C258  H292  1.111215 S    
C102  C110  1.412186 A    
C210  H166  1.109133 S    
C61   C69   1.547696 S    
O104  C220  1.407533 S    
C58   C66   1.550841 S    
C174  H65   1.110607 S    
C156  H20   1.109036 S    
C182  H88   1.106401 S    
C262  H305  1.113183 S    
Zn5   O35   1.939208 S    
C106  C114  1.402360 A    
Zn6   O36   1.939208 S    
C236  H236  1.110431 S    
O81   C193  1.417959 S    
C51   C79   1.539669 S    
C185  C186  1.521943 S    
C133  O65   1.387086 S    
C242  H252  1.109865 S    
C141  C147  1.416142 A    
C36   C42   1.409638 A    
O124  C255  1.412418 S    
C56   C71   1.554293 S    
C233  C234  1.516455 S    
C249  H270  1.112794 S    
C264  H312  1.109169 S    
C217  H187  1.108809 S    
C192  H114  1.108836 S    
C118  O130  1.383694 S    
O110  C227  1.415999 S    
C84   C124  1.397143 A    
O57   C157  1.409384 S    
O22   C18   1.283416 A    
Zn9   O45   1.937982 S    
Zn11  O47   1.937038 S    
Zn12  O48   1.937037 S    
C218  H190  1.107359 S    
C233  H230  1.114175 S    
C172  H61   1.110455 S    
C47   C48   1.472494 S    
C82   C90   1.397460 A    
C90   O110  1.386428 S    
C183  H91   1.114437 S    
C260  H299  1.114104 S    
Zn1   O37   1.938621 S    
C243  H254  1.113261 S    
O72   C180  1.411819 S    
C244  H258  1.108319 S    
C173  H64   1.114397 S    
C132  C150  1.405989 A    
Zn5   O11   1.936839 S    
Zn3   O39   1.939505 S    
Zn6   O12   1.936840 S    
C138  O70   1.383491 S    
O60   C160  1.413465 S    
C170  H56   1.110602 S    
C51   C63   1.538026 S    
C20   C148  1.469573 S    
C49   C61   1.537861 S    
C253  C254  1.520934 S    
O35   C23   1.286919 A    
C34   O78   1.385385 S    
C67   C75   1.549083 S    
C35   O79   1.382981 S    
Zn15  O51   1.937038 S    
O32   C22   1.280430 A    
O62   C163  1.409873 S    
C52   O96   1.411638 S    
C255  H285  1.112693 S    
C155  H16   1.113441 S    
C168  H51   1.110452 S    
C95   C103  1.412715 A    
C237  H239  1.116283 S    
C137  C145  1.414042 A    
C87   C127  1.397678 A    
C93   C101  1.411757 A    
C196  H125  1.110683 S    
C58   C77   1.539633 S    
C27   C35   1.403133 A    
C264  H310  1.110809 S    
C199  H133  1.113263 S    
Zn14  O50   1.937983 S    
C240  H248  1.110814 S    
C169  H54   1.114578 S    
C32   C40   1.397661 A    
C205  H149  1.113017 S    
C89   O109  1.382309 S    
C203  H145  1.109148 S    
C74   O102  1.411723 S    
C81   C89   1.394103 A    
O92   C208  1.410777 S    
C105  O117  1.383366 S    
C177  H73   1.114093 S    
C219  H191  1.112995 S    
C247  H265  1.112776 S    
C61   O89   1.411688 S    
C200  H135  1.110498 S    
C143  C147  1.415878 A    
C88   C96   1.398614 A    
C211  H169  1.107697 S    
O5    C1    1.271232 A    
O128  C260  1.408893 S    
C216  H183  1.108102 S    
C243  C244  1.516904 S    
C83   H3    1.083514 S    
C209  H162  1.108418 S    
C96   O116  1.386883 S    
C53   C57   1.539779 S    
O64   C167  1.409832 S    
C164  H41   1.110455 S    
Zn4   O6    1.935646 S    
C55   C59   1.538704 S    
C222  H200  1.108273 S    
C241  C242  1.519588 S    
C110  O122  1.382249 S    
C31   O59   1.386562 S    
C56   O100  1.412121 S    
C174  H67   1.110921 S    
C77   O105  1.412242 S    
C166  H45   1.110622 S    
C222  H202  1.108039 S    
C121  C126  1.473927 S    
C226  H211  1.109354 S    
C79   O107  1.411903 S    
C194  H121  1.108435 S    
C239  H245  1.111620 S    
C160  H31   1.113891 S    
C26   C34   1.399360 A    
C198  H130  1.109822 S    
C75   O103  1.411158 S    
C95   O115  1.384232 S    
C263  H308  1.114239 S    
O129  C261  1.409022 S    
C180  H84   1.111661 S    
C117  O129  1.383707 S    
C197  H127  1.115049 S    
C154  H14   1.109059 S    
C191  H113  1.113445 S    
C212  H172  1.108827 S    
O51   C7    1.272452 A    
C184  H96   1.111424 S    
C238  H243  1.111060 S    
O29   C21   1.285768 A    
O8    C4    1.275744 A    
C91   C99   1.411897 A    
Zn9   O1    1.946291 S    
C92   C100  1.410802 A    
C212  H170  1.113437 S    
C227  H214  1.117251 S    
C245  H260  1.112237 S    
C229  C230  1.522075 S    
C161  H33   1.109745 S    
C39   C43   1.417123 A    
C110  C118  1.404729 A    
C207  H156  1.113489 S    
O88   C204  1.410204 S    
C229  H219  1.116470 S    
Zn14  O18   1.940403 S    
C214  H176  1.108869 S    
C64   O92   1.411614 S    
C136  O68   1.383756 S    
O52   C8    1.278302 A    
C135  C143  1.398514 A    
C29   C47   1.403098 A    
Zn1   O1    1.949423 S    
O40   C12   1.283184 A    
C183  H93   1.107554 S    
C51   O95   1.411066 S    
C258  H294  1.109178 S    
C194  H119  1.108661 S    
C33   O77   1.384597 S    
O118  C243  1.414021 S    
Zn16  O20   1.939902 S    
C70   C78   1.552364 S    
C155  H15   1.107866 S    
C162  H36   1.110538 S    
C108  O120  1.382824 S    
C182  H90   1.112073 S    
C251  H275  1.111981 S    
C10   C100  1.473202 S    
C93   O113  1.382423 S    
C209  H161  1.107140 S    
C241  H250  1.113243 S    
C186  H100  1.108366 S    
C63   C71   1.551060 S    
O102  C218  1.409260 S    
C129  C137  1.398329 A    
C178  H78   1.111749 S    
O13   C9    1.281527 A    
C179  H79   1.114085 S    
C197  C198  1.523891 S    
C219  H192  1.106471 S    
C181  H85   1.114882 S    
O95   C211  1.409198 S    
C22   C42   1.462527 S    
C163  H38   1.111199 S    
C175  H69   1.114482 S    
O18   C14   1.283273 A    
C188  H105  1.110552 S    
O86   C202  1.411413 S    
C220  H194  1.112595 S    
C17   C145  1.473594 S    
O6    C2    1.271200 A    
O59   C159  1.415061 S    
C215  H179  1.109041 S    
C184  H95   1.112964 S    
C227  C228  1.519475 S    
C114  O126  1.383774 S    
C253  H280  1.112520 S    
C55   O99   1.412025 S    
O82   C195  1.413509 S    
C78   O106  1.411805 S    
C232  H227  1.110414 S    
O55   C155  1.413916 S    
C32   C48   1.415069 A    
C144  C148  1.411427 A    
O71   C179  1.410845 S    
C192  H116  1.110796 S    
C3    C66   1.458299 S    
Zn13  O25   1.939316 S    
C250  H271  1.110601 S    
C154  H12   1.109217 S    
Zn15  O3    1.949794 S    
C248  H267  1.109748 S    
C221  H197  1.112413 S    
O115  C237  1.413476 S    
C69   C77   1.548807 S    
O43   C15   1.288869 A    
C246  H261  1.110654 S    
C60   C68   1.548284 S    
C31   C47   1.410405 A    
O101  C217  1.406380 S    
C235  H235  1.109439 S    
C228  H217  1.110357 S    
C103  C111  1.417726 A    
C33   C41   1.415201 A    
C118  C126  1.405767 A    
C166  H47   1.110942 S    
C101  C109  1.419640 A    
O96   C212  1.411234 S    
C49   C77   1.539227 S    
C176  H70   1.110742 S    
C204  H147  1.108623 S    
C201  H137  1.113028 S    
O10   C6    1.272552 A    
C229  H220  1.112793 S    
C104  C112  1.413799 A    
C86   C126  1.397700 A    
C105  C113  1.404027 A    
C135  O67   1.387321 S    
C230  H222  1.110219 S    
C163  C164  1.520104 S    
O120  C247  1.413030 S    
C206  H154  1.109061 S    
C213  H174  1.113629 S    
O75   C183  1.411803 S    
C108  C116  1.404526 A    
C129  C149  1.413977 A    
C246  H262  1.109615 S    
C252  H277  1.109045 S    
C37   O81   1.385232 S    
C59   C80   1.539909 S    
C56   C60   1.538886 S    
C96   C104  1.411074 A    
C64   C75   1.540409 S    
C261  H301  1.111007 S    
C37   C43   1.415284 A    
C158  H26   1.109047 S    
C97   C105  1.420274 A    
C262  H304  1.111486 S    
C198  H129  1.108947 S    
O61   C161  1.414003 S    
Zn4   O30   1.938831 S    
C224  H207  1.114579 S    
C161  C162  1.520872 S    
C98   C106  1.412236 A    
Zn10  O46   1.937983 S    
C204  H146  1.113472 S    
C159  H29   1.108859 S    
C49   C66   1.550419 S    
C87   H7    1.083527 S    
C254  H282  1.110014 S    
C86   H6    1.080568 S    
C238  H241  1.110605 S    
O70   C178  1.411584 S    
C180  H82   1.106526 S    
C225  H210  1.114385 S    
C213  H175  1.109308 S    
Zn13  O3    1.946291 S    
O87   C203  1.410204 S    
Zn14  O4    1.946292 S    
C13   C103  1.476659 S    
C167  C168  1.520111 S    
Zn2   O38   1.938621 S    
O19   C15   1.282558 A    
O90   C206  1.409604 S    
C159  H27   1.108385 S    
Zn13  O49   1.937982 S    
C187  C188  1.521180 S    
Zn2   O32   1.939208 S    
C157  H21   1.108912 S    
O84   C199  1.413344 S    
Zn3   O29   1.938831 S    
C155  H17   1.108787 S    
C140  O72   1.383499 S    
C201  H139  1.109039 S    
C203  H144  1.108774 S    
C120  O132  1.383843 S    
O37   C9    1.285496 A    
O127  C259  1.409047 S    
C249  C250  1.519941 S    
O63   C165  1.413959 S    
C50   C62   1.539785 S    
O7    C3    1.272818 A    
C66   C74   1.549534 S    
O39   C11   1.289642 A    
C178  H76   1.106609 S    
C179  H81   1.107829 S    
C218  H188  1.114192 S    
C226  H213  1.110471 S    
C131  C139  1.397993 A    
C25   C45   1.403954 A    
C253  H279  1.115602 S    
C50   O94   1.411858 S    
C257  H291  1.109142 S    
C236  H238  1.108850 S    
C210  H165  1.108501 S    
C187  H102  1.111047 S    
C156  H19   1.113633 S    
C195  H122  1.111389 S    
C16   C102  1.472760 S    
C34   C42   1.410474 A    
C208  H159  1.113275 S    
O54   C154  1.411883 S    
C84   C92   1.397237 A    
C24   C44   1.462859 S    
O12   C8    1.271333 A    
C132  O64   1.383511 S    
C250  H273  1.111007 S    
C114  C122  1.407717 A    
C242  H251  1.110597 S    
C6    C71   1.461228 S    
C214  H178  1.108157 S    
C171  H58   1.110866 S    
Zn11  O1    1.949794 S    
C82   H2    1.082826 S    
O65   C169  1.413769 S    
C141  O73   1.385046 S    
C131  O63   1.387090 S    
C217  H186  1.103913 S    
C53   C73   1.539517 S    
C142  C148  1.410813 A    
C190  H111  1.106703 S    
Zn5   O3    1.949423 S    
C230  H221  1.110572 S    
C64   C72   1.548888 S    
C31   C39   1.406290 A    
C65   C73   1.550865 S    
Zn7   O9    1.935646 S    
Zn5   O41   1.938621 S    
C35   C41   1.415933 A    
C12   C98   1.471025 S    
C153  H9    1.109646 S    
C68   C76   1.547357 S    
Zn8   O44   1.939506 S    
C176  H72   1.110928 S    
C218  H189  1.109036 S    
C86   C94   1.400405 A    
C240  H247  1.110353 S    
C172  H60   1.110745 S    
C116  O128  1.383905 S    
C111  O123  1.384332 S    
O107  C223  1.410835 S    
C183  H92   1.107789 S    
O83   C197  1.415219 S    
O68   C175  1.409904 S    
C80   O108  1.411665 S    
C243  H255  1.113898 S    
C244  H257  1.110004 S    
Zn15  O27   1.937555 S    
C136  C152  1.406081 A    
C40   C44   1.410221 A    
O94   C210  1.410639 S    
C220  H196  1.108539 S    
C85   C93   1.392791 A    
C139  O71   1.384614 S    
C249  H269  1.115496 S    
C166  H46   1.110544 S    
C133  C151  1.412904 A    
O80   C191  1.413562 S    
C81   H1    1.083416 S    
C82   C122  1.397652 A    
C59   O87   1.411674 S    
C63   C76   1.540084 S    
C107  O119  1.384598 S    
O38   C10   1.283355 A    
C171  C172  1.520078 S    
O50   C6    1.276558 A    
Zn8   O4    1.950170 S    
O131  C263  1.409003 S    
C84   H4    1.083035 S    
C62   O90   1.411724 S    
C163  H39   1.114387 S    
Zn2   O2    1.949423 S    
C168  H50   1.110731 S    
C40   O84   1.385851 S    
C72   C80   1.548305 S    
C189  C190  1.519472 S    
C234  H231  1.109209 S    
C26   C46   1.414696 A    
O99   C215  1.412395 S    
C38   C44   1.411078 A    
O66   C171  1.409858 S    
O126  C258  1.408713 S    
C190  H110  1.108963 S    
C169  C170  1.520843 S    
C71   C79   1.550142 S    
O58   C158  1.411390 S    
C205  H150  1.108724 S    
O67   C173  1.413918 S    
C170  H55   1.110610 S    
C210  H164  1.113264 S    
O21   C17   1.283594 A    
C223  H203  1.108469 S    
C115  C123  1.407796 A    
O78   C187  1.413018 S    
O97   C213  1.411003 S    
C63   O91   1.411968 S    
C165  H43   1.109803 S    
C91   O111  1.384358 S    
C177  H74   1.106801 S    
C119  O131  1.383909 S    
C9    C99   1.475420 S    
C89   C97   1.412480 A    
O103  C219  1.409423 S    
C21   C41   1.483317 S    
O49   C5    1.276140 A    
C259  H295  1.110577 S    
C153  H11   1.109212 S    
C216  H182  1.109027 S    
C23   C43   1.484105 S    
C199  H132  1.110146 S    
C202  H142  1.109182 S    
C264  H311  1.114094 S    
C45   C46   1.472186 S    
C131  C149  1.413643 A    
C174  H66   1.110578 S    
C193  C194  1.522379 S    
C55   C75   1.538922 S    
C262  H306  1.109187 S    
C198  H131  1.106726 S    
O130  C262  1.408913 S    
Zn16  O52   1.937037 S    
C236  H237  1.110137 S    
C160  H30   1.109193 S    
O9    C5    1.271165 A    
Zn9   O13   1.940403 S    
C76   O104  1.410727 S    
C188  H106  1.110648 S    
C230  H223  1.110968 S    
C2    C67   1.460696 S    
C257  H289  1.111134 S    
Zn11  O15   1.939902 S    
O116  C239  1.415698 S    
C180  H83   1.113779 S    
C94   O114  1.388536 S    
C135  C151  1.413246 A    
Zn12  O16   1.939902 S    
C15   C101  1.478886 S    
C197  H128  1.111041 S    
C256  H288  1.109824 S    
O31   C21   1.288183 A    
C191  C192  1.520908 S    
O111  C229  1.413691 S    
C175  C176  1.520070 S    
C211  H168  1.104707 S    
C192  H115  1.110477 S    
C201  H138  1.108052 S    
C8    C69   1.459030 S    
Zn8   O10   1.935646 S    
C227  H215  1.111659 S    
C234  H233  1.110293 S    
C83   C123  1.398516 A    
C50   C78   1.539488 S    
Zn7   O33   1.938831 S    
O93   C209  1.412157 S    
C159  H28   1.113816 S    
C233  H229  1.115176 S    
C172  H62   1.110928 S    
C209  H163  1.108554 S    
C208  H158  1.108515 S    
C55   C72   1.551261 S    
C205  H151  1.109110 S    
O113  C233  1.414554 S    
C175  H68   1.110672 S    
C53   C70   1.549425 S    
C54   C58   1.539675 S    
C260  H300  1.109140 S    
C237  H240  1.112858 S    
C39   O83   1.386090 S    
O114  C235  1.417268 S    
C173  H63   1.109735 S    
C30   C48   1.415079 A    
O91   C207  1.411086 S    
C199  C200  1.520949 S    
C170  H57   1.110946 S    
C57   C65   1.549422 S    
O105  C221  1.411362 S    
C122  C125  1.471634 S    
C222  H201  1.112700 S    
C149  C150  1.471436 S    
C176  H71   1.110458 S    
C137  O69   1.384497 S    
C182  H89   1.112452 S    
C207  H155  1.108431 S    
Zn11  O23   1.937555 S    
C134  O66   1.383781 S    
C112  C120  1.403926 A    
C186  H99   1.110108 S    
C50   C65   1.549124 S    
C221  H199  1.109187 S    
C245  C246  1.521571 S    
O34   C24   1.282029 A    
O108  C224  1.409377 S    
C178  H77   1.113562 S    
C179  H80   1.107579 S    
Zn1   O7    1.936839 S    
O26   C20   1.282554 A    
C181  H86   1.108453 S    
C215  H181  1.108727 S    
Zn2   O8    1.936840 S    
C255  H284  1.113769 S    
C168  H52   1.110962 S    
O41   C13   1.285648 A    
Zn3   O5    1.935646 S    
C194  H120  1.109834 S    
C54   C74   1.539810 S    
Zn12  O2    1.949792 S    
C158  H24   1.109203 S    
C88   C128  1.397707 A    
C30   O58   1.386404 S    
C196  H126  1.110621 S    
C215  H180  1.112806 S    
C184  H94   1.106923 S    
C196  H124  1.109687 S    
O45   C1    1.276064 A    
C193  H117  1.110396 S    
O125  C257  1.408741 S    
C169  H53   1.109790 S    
C187  H103  1.113088 S    
C189  H108  1.110865 S    
C111  C119  1.402840 A    
C52   C64   1.538833 S    
C223  H205  1.108871 S    
C109  C117  1.403269 A    
C107  C115  1.403117 A    
C231  H225  1.111970 S    
O15   C11   1.283098 A    
C247  H264  1.113764 S    
C5    C72   1.457688 S    
C1    C68   1.457803 S    
C181  H87   1.107861 S    
C248  H266  1.109842 S    
C25   O53   1.384378 S    
C221  H198  1.108354 S    
C134  C142  1.402820 A    
C259  H297  1.109140 S    
Zn14  O26   1.939317 S    
C216  H184  1.112812 S    
O27   C19   1.284131 A    
C242  H253  1.111003 S    
C212  H171  1.108164 S    
C238  H242  1.110409 S    
C202  H140  1.108318 S    
O121  C249  1.412909 S    
C27   C45   1.410924 A    
C167  H49   1.114474 S    
O44   C16   1.283877 A    
C228  H216  1.107333 S    
C123  C128  1.470914 S    
O20   C16   1.284082 A    
C124  C127  1.470355 S    
C224  H208  1.109042 S    
C185  H98   1.118135 S    
C161  H34   1.114504 S    
O48   C4    1.274197 A    
C129  O61   1.387248 S    
C239  H244  1.116949 S    
C160  H32   1.109050 S    
C140  C146  1.412707 A    
Zn15  O19   1.939902 S    
O36   C24   1.279955 A    
C57   O85   1.411612 S    
O14   C10   1.282434 A    
C87   C95   1.394760 A    
C58   O86   1.411362 S    
C263  H307  1.110584 S    
C88   H8    1.083054 S    
C255  C256  1.516908 S    
C132  C140  1.401566 A    
C200  H134  1.108804 S    
C14   C104  1.474393 S    
C206  H153  1.114296 S    
C191  H112  1.110156 S    
C56   C76   1.539701 S    
C18   C146  1.472579 S    
C258  H293  1.114019 S    
C252  H276  1.110132 S    
O28   C20   1.281993 A    
O17   C13   1.282093 A    
C251  H274  1.116036 S    
C81   C121  1.397343 A    
C162  H35   1.110634 S    
