data_mof_unit_56479.cif
_audit_creation_date              2012-12-10T17:23:44-0500
_audit_creation_method            fapswitch 2.2
_symmetry_space_group_name_H-M    P1
_symmetry_Int_Tables_number       1
_space_group_crystal_system       triclinic
_cell_length_a                    9.589896
_cell_length_b                    10.827609
_cell_length_c                    17.351166
_cell_angle_alpha                 92.580885
_cell_angle_beta                  85.769841
_cell_angle_gamma                 89.785382
_cell_volume                      1794.89365955

loop_
_atom_site_label
_atom_site_type_symbol
_atom_type_description
_atom_site_fract_x
_atom_site_fract_y
_atom_site_fract_z
_atom_type_partial_charge
C1    C     C_R   0.500183 0.736653 0.492272 0.851913
C2    C     C_R   0.341924 0.499141 0.776717 -0.169497
C3    C     C_R   0.411684 0.462872 0.147081 -0.210048
C4    C     C_R   0.405017 0.475099 0.226967 -0.177858
C5    C     C_R   0.658209 0.481003 0.223205 -0.292639
C6    C     C_R   0.665717 0.471226 0.142263 0.457006
C7    C     C_R   0.541362 0.463487 0.104007 0.094663
C8    C     C_2   0.448265 0.510049 0.980465 -0.252501
C9    C     C_2   0.548036 0.458611 0.019127 -0.185062
C10   C     C_R   0.527867 0.485871 0.265648 -0.081549
C11   C     C_R   0.247452 0.887669 0.450767 0.186973
C12   C     C_R   0.481565 0.501322 0.649852 0.812982
C13   C     C_R   0.118680 0.945438 0.471422 -0.138699
C14   C     C_R   0.112559 0.054257 0.517162 -0.163002
C15   C     C_R   0.235964 0.113459 0.534319 -0.149406
C16   C     C_R   0.367560 0.061177 0.508166 0.067490
C17   C     C_R   0.371480 0.937341 0.479630 0.062195
C18   C     C_R   0.498662 0.870503 0.482531 -0.103807
C19   C     C_R   0.623729 0.934980 0.490117 -0.201518
C20   C     C_R   0.622593 0.062537 0.498615 -0.207398
C21   C     C_R   0.495402 0.127367 0.507888 -0.097767
C22   C     C_R   0.870157 0.334784 0.397713 -0.152680
C23   C     C_R   0.498785 0.262445 0.504894 0.772017
C24   C     C_R   0.949217 0.253122 0.348187 -0.207971
C25   C     C_R   0.092901 0.252933 0.348158 -0.193162
C26   C     C_R   0.158394 0.334448 0.397618 -0.130608
C27   C     C_R   0.081976 0.418646 0.449672 0.174093
C28   C     C_R   0.932315 0.418734 0.449719 0.197591
C29   C     C_R   0.917994 0.577076 0.547653 -0.092948
C30   C     C_R   0.065176 0.577565 0.548142 0.242560
C31   C     C_R   0.518472 0.496556 0.350154 0.812800
C32   C     C_R   0.472091 0.505045 0.734418 -0.033024
C33   C     C_R   0.594610 0.516073 0.773607 -0.194476
C34   C     C_R   0.587550 0.519037 0.853733 -0.143884
C35   C     C_R   0.457814 0.509933 0.895925 0.186308
C36   C     C_R   0.334929 0.502468 0.857214 -0.155415
Cu1   Cu    Cu3+1 0.359340 0.500010 0.500010 0.972012
Cu2   Cu    Cu3+1 0.640660 0.499990 0.499990 0.940569
H1    H     H_    0.696247 0.522950 0.742501 0.160192
H2    H     H_    0.723086 0.886925 0.489802 0.166536
H3    H     H_    0.023450 0.907439 0.450582 0.151808
H4    H     H_    0.012432 0.096784 0.535321 0.146150
H5    H     H_    0.226521 0.198583 0.569299 0.167098
H6    H     H_    0.721736 0.110075 0.499399 0.164507
H7    H     H_    0.855754 0.639874 0.586564 0.160408
H8    H     H_    0.760946 0.327962 0.392509 0.200318
H9    H     H_    0.898318 0.189759 0.309332 0.161064
H10   H     H_    0.303090 0.475016 0.258330 0.186180
H11   H     H_    0.154457 0.189303 0.309355 0.162103
H12   H     H_    0.268981 0.326928 0.392325 0.197129
H13   H     H_    0.754156 0.484458 0.252481 0.172556
H14   H     H_    0.639568 0.416145 0.987968 0.187113
H15   H     H_    0.233971 0.496962 0.889280 0.131130
H16   H     H_    0.314814 0.451720 0.119351 0.149898
H17   H     H_    0.245890 0.491249 0.747782 0.169448
H18   H     H_    0.356193 0.552624 0.010984 0.157651
H19   H     H_    0.683526 0.530001 0.882416 0.132534
N1    N     N_R   0.852190 0.498790 0.499250 -0.214190
N2    N     N_R   0.148060 0.498710 0.499220 -0.210318
O1    O     O_R   0.381190 0.680360 0.500010 -0.531973
O2    O     O_R   0.618760 0.680340 0.500000 -0.587472
O3    O     O_R   0.367440 0.500030 0.613600 -0.563704
O4    O     O_R   0.605010 0.500010 0.613590 -0.587825
O5    O     O_R   0.381240 0.319660 0.500000 -0.616249
O6    O     O_R   0.618810 0.319640 0.499990 -0.602139
O7    O     O_R   0.394990 0.499990 0.386410 -0.585168
O8    O     O_R   0.632560 0.499970 0.386400 -0.604962
O9    O     O_3   0.794279 0.461796 0.100568 -0.592469
C37   C     C_3   0.856097 0.579833 0.098674 0.066399
H20   H     H_    0.880486 0.613780 0.157682 0.154027
H21   H     H_    0.786147 0.647698 0.073808 0.146058
C38   C     C_3   0.992337 0.571355 0.047825 -0.784922
H22   H     H_    0.065066 0.505111 0.071442 0.245214
H23   H     H_    0.971435 0.539496 0.988043 0.241854
H24   H     H_    0.042457 0.663573 0.046031 0.205381
I1    I     I_    0.248631 0.759212 0.354582 -0.409470
I2    I     I_    0.143616 0.706689 0.629437 -0.388143

loop_
_geom_bond_atom_site_label_1
_geom_bond_atom_site_label_2
_ccdc_geom_bond_type
C31   O7    A    
C16   C21   A    
C35   C36   A    
C8    H18   S    
C13   H3    S    
Cu1   O3    S    
C31   O8    A    
C1    C18   S    
C29   C30   A    
C34   C35   A    
C3    C7    A    
C11   I1    S    
C26   H12   S    
C5    C6    A    
C3    H16   S    
C15   C16   A    
C2    C32   A    
C18   C19   A    
C37   H21   S    
C36   H15   S    
Cu2   N1    S    
C30   I2    S    
C10   C31   S    
C19   C20   A    
O9    C37   S    
C34   H19   S    
C14   H4    S    
Cu2   O2    S    
C6    O9    S    
C22   C28   A    
C13   C14   A    
C12   C32   S    
C9    H14   S    
C38   H24   S    
C20   H6    S    
C33   C34   A    
C24   C25   A    
C38   H23   S    
C1    O1    A    
C12   O4    A    
C8    C9    D    
C25   C26   A    
C29   H7    S    
C8    C35   S    
C37   C38   S    
Cu1   Cu2   S    
C12   O3    A    
Cu2   O6    S    
C30   N2    A    
C20   C21   A    
C17   C18   A    
C26   C27   A    
C33   H1    S    
Cu2   O8    S    
Cu1   N2    S    
C23   O5    A    
C22   H8    S    
C21   C23   S    
C22   C24   A    
C4    C10   A    
C3    C4    A    
Cu1   O5    S    
Cu2   O4    S    
C4    H10   S    
C2    C36   A    
C7    C9    S    
C11   C17   A    
C24   H9    S    
C38   H22   S    
C1    O2    A    
C6    C7    A    
C28   N1    A    
C2    H17   S    
C32   C33   A    
C23   O6    A    
C15   H5    S    
C5    C10   A    
C27   N2    A    
C11   C13   A    
C16   C17   A    
Cu1   O7    S    
C37   H20   S    
C25   H11   S    
Cu1   O1    S    
C19   H2    S    
C29   N1    A    
C27   C28   A    
C14   C15   A    
C5    H13   S    
