data_mof_unit_35070.cif
_audit_creation_date              2012-12-10T20:25:43-0500
_audit_creation_method            fapswitch 2.2
_symmetry_space_group_name_H-M    P1
_symmetry_Int_Tables_number       1
_space_group_crystal_system       triclinic
_cell_length_a                    8.586574
_cell_length_b                    10.744357
_cell_length_c                    9.872036
_cell_angle_alpha                 89.463414
_cell_angle_beta                  98.533605
_cell_angle_gamma                 90.093424
_cell_volume                      900.64394145

loop_
_atom_site_label
_atom_site_type_symbol
_atom_type_description
_atom_site_fract_x
_atom_site_fract_y
_atom_site_fract_z
_atom_type_partial_charge
C1    C     C_R   0.497621 0.260230 0.500058 0.911035
C2    C     C_R   0.364301 0.477508 0.911585 0.222322
C3    C     C_3   0.266980 0.362021 0.895030 -0.513916
C4    C     C_R   0.201226 0.500369 0.464162 0.968609
C5    C     C_3   0.267890 0.361600 0.048944 -0.515847
C6    C     C_R   0.501319 0.740014 0.499055 0.885236
C7    C     C_R   0.798735 0.501136 0.535741 0.955075
C8    C     C_2   0.036096 0.499881 0.444789 -0.388824
C9    C     C_2   0.963758 0.504524 0.554714 -0.391270
C10   C     C_R   0.459322 0.061732 0.612903 0.130951
C11   C     C_R   0.482944 0.128781 0.496587 -0.181765
C12   C     C_R   0.500390 0.939359 0.371930 0.462066
C13   C     C_R   0.489618 0.067454 0.373163 -0.324136
C14   C     C_3   0.690827 0.881293 0.247017 0.120855
C15   C     C_3   0.717583 0.874398 0.098524 -0.855096
C16   C     C_R   0.490640 0.872149 0.494180 -0.242244
C17   C     C_R   0.461687 0.934440 0.611074 0.089430
C18   C     C_3   0.548624 0.925769 0.753635 -0.460757
C19   C     C_3   0.546910 0.066621 0.755436 -0.474504
C20   C     C_R   0.364540 0.477165 0.054096 0.234209
C21   C     C_R   0.630682 0.532854 0.088355 -0.126049
C22   C     C_R   0.630675 0.532938 0.944553 -0.153986
H1    H     H_    0.974561 0.494313 0.340443 0.169379
H2    H     H_    0.668783 0.885868 0.758198 0.203057
H3    H     H_    0.474206 0.103957 0.829728 0.200101
H4    H     H_    0.665962 0.108840 0.760367 0.205787
H5    H     H_    0.736825 0.558260 0.155514 0.146378
H6    H     H_    0.744800 0.798067 0.303065 0.153489
H7    H     H_    0.753274 0.966053 0.291790 0.119593
H8    H     H_    0.675576 0.961594 0.043911 0.259258
H9    H     H_    0.845106 0.863032 0.093509 0.209560
H10   H     H_    0.652455 0.794395 0.047326 0.263642
H11   H     H_    0.736851 0.558103 0.904105 0.151253
H12   H     H_    0.148113 0.378859 0.836524 0.198997
H13   H     H_    0.331065 0.282421 0.858606 0.213634
H14   H     H_    0.149840 0.378784 0.078466 0.201217
H15   H     H_    0.333232 0.281629 0.102388 0.216147
H16   H     H_    0.025259 0.511312 0.658803 0.171820
H17   H     H_    0.500496 0.117959 0.279461 0.190845
H18   H     H_    0.475541 0.882642 0.825446 0.219961
N1    N     N_R   0.498950 0.499140 0.142680 -0.102762
N2    N     N_R   0.498950 0.499180 0.857030 -0.106396
O1    O     O_R   0.500020 0.316790 0.614690 -0.617794
O2    O     O_R   0.500000 0.316760 0.385350 -0.629633
O3    O     O_R   0.271760 0.500010 0.587850 -0.614360
O4    O     O_R   0.271740 0.499970 0.358500 -0.627000
O5    O     O_R   0.500000 0.683240 0.614650 -0.620466
O6    O     O_R   0.499980 0.683210 0.385310 -0.572505
O7    O     O_R   0.728260 0.500030 0.641500 -0.635635
O8    O     O_R   0.728240 0.499990 0.412150 -0.626964
O9    O     O_3   0.526855 0.882725 0.252115 -0.583173
Zn1   Zn    Zn3+2 0.500010 0.500020 0.653130 0.936327
Zn2   Zn    Zn3+2 0.499990 0.499980 0.346870 0.954850

loop_
_geom_bond_atom_site_label_1
_geom_bond_atom_site_label_2
_ccdc_geom_bond_type
C15   H9    S    
O5    Zn1   S    
C5    H15   S    
C1    O2    A    
C14   O9    S    
C3    H12   S    
C3    H13   S    
C10   C19   S    
C4    C8    S    
O7    Zn1   S    
C8    H1    S    
C2    C3    S    
C21   H5    S    
C15   H10   S    
C5    C20   S    
C4    O4    A    
C21   C22   A    
C11   C13   A    
N1    Zn2   S    
C22   N2    A    
C6    O6    A    
C2    N2    A    
C21   N1    A    
O4    Zn2   S    
C9    H16   S    
C20   N1    A    
C4    O3    A    
O6    Zn2   S    
C19   H3    S    
C18   H2    S    
O1    Zn1   S    
C13   H17   S    
O8    Zn2   S    
C10   C11   A    
C14   H7    S    
C2    C20   A    
C5    H14   S    
C12   O9    S    
C12   C13   A    
C7    O7    A    
C15   H8    S    
C17   C18   S    
C18   C19   S    
C6    O5    A    
C7    C9    S    
C19   H4    S    
C18   H18   S    
C14   C15   S    
C8    C9    D    
C1    C11   S    
C10   C17   A    
O3    Zn1   S    
C14   H6    S    
C6    C16   S    
O2    Zn2   S    
C1    O1    A    
C12   C16   A    
C7    O8    A    
N2    Zn1   S    
C16   C17   A    
C3    C5    S    
C22   H11   S    
