data_mof_unit_20053.cif
_audit_creation_date              2012-12-10T17:36:48-0500
_audit_creation_method            fapswitch 2.2
_symmetry_space_group_name_H-M    P1
_symmetry_Int_Tables_number       1
_space_group_crystal_system       triclinic
_cell_length_a                    10.602487
_cell_length_b                    12.326793
_cell_length_c                    13.170017
_cell_angle_alpha                 116.734718
_cell_angle_beta                  77.529235
_cell_angle_gamma                 101.444141
_cell_volume                      1490.82241109

loop_
_atom_site_label
_atom_site_type_symbol
_atom_type_description
_atom_site_fract_x
_atom_site_fract_y
_atom_site_fract_z
_atom_type_partial_charge
C1    C     C_R   0.509319 0.854865 0.286611 0.774417
C2    C     C_3   0.013428 0.908091 0.523827 -0.129169
C3    C     C_3   0.954875 0.891879 0.419413 -0.184336
C4    C     C_3   0.877614 0.999656 0.499171 0.012932
C5    C     C_R   0.330581 0.271271 0.024748 0.150884
C6    C     C_R   0.452068 0.228145 0.835142 -0.092188
C7    C     C_R   0.579003 0.816469 0.082927 -0.180187
C8    C     C_R   0.596092 0.738380 0.966841 -0.151259
C9    C     C_R   0.551775 0.614637 0.930028 -0.200487
C10   C     C_R   0.484304 0.566876 0.009287 0.090579
C11   C     C_R   0.451461 0.649893 0.125120 0.081621
C12   C     C_R   0.740522 0.999598 0.499506 0.785188
C13   C     C_R   0.447510 0.439604 0.977160 0.045331
C14   C     C_R   0.365539 0.398039 0.056688 0.116161
C15   C     C_R   0.318915 0.484067 0.165193 -0.205505
C16   C     C_R   0.359868 0.607681 0.198340 -0.214207
C17   C     C_R   0.493078 0.352323 0.868706 -0.256876
C18   C     C_R   0.373063 0.187486 0.913842 -0.210295
C19   C     C_R   0.509797 0.773152 0.163568 -0.107367
C20   C     C_R   0.705286 0.345643 0.326534 -0.287247
C21   C     C_R   0.327717 0.761746 0.648786 -0.020597
C22   C     C_R   0.293982 0.668475 0.685542 0.445736
C23   C     C_R   0.480407 0.145226 0.713618 0.810613
C24   C     C_R   0.357075 0.562532 0.626893 -0.294505
C25   C     C_R   0.459291 0.552297 0.535795 -0.068673
C26   C     C_R   0.493582 0.652951 0.505034 0.264064
C27   C     C_R   0.529954 0.447173 0.475307 0.002560
C28   C     C_R   0.633819 0.446042 0.386780 0.174603
C29   C     C_R   0.666647 0.545405 0.359206 -0.278122
C30   C     C_R   0.598553 0.646463 0.417154 -0.148414
C31   C     C_R   0.503107 0.342468 0.498573 0.033047
C32   C     C_R   0.674151 0.246142 0.353805 0.080304
C33   C     C_R   0.259530 0.000040 0.499972 0.779509
C34   C     C_3   0.986720 0.090931 0.474860 -0.113065
C35   C     C_3   0.066276 0.983051 0.395166 -0.155320
C36   C     C_3   0.122514 0.999425 0.499587 0.012696
C37   C     C_3   0.045213 0.107143 0.579290 -0.169955
C38   C     C_3   0.933895 0.015963 0.603527 -0.160692
Cu1   Cu    Cu3+1 0.529830 0.098270 0.475420 0.942715
Cu2   Cu    Cu3+1 0.470170 0.901730 0.524580 0.920601
H1    H     H_    0.123722 0.969692 0.310079 0.151604
H2    H     H_    0.561353 0.378574 0.807917 0.158882
H3    H     H_    0.621996 0.910754 0.109690 0.160267
H4    H     H_    0.568732 0.559566 0.838644 0.132389
H5    H     H_    0.647657 0.773236 0.905158 0.150169
H6    H     H_    0.315406 0.669493 0.281207 0.178293
H7    H     H_    0.728846 0.168298 0.307531 0.130085
H8    H     H_    0.746625 0.545454 0.292114 0.148924
H9    H     H_    0.784902 0.344238 0.258819 0.149657
H10   H     H_    0.425579 0.334979 0.563841 0.122853
H11   H     H_    0.277029 0.842325 0.692351 0.151488
H12   H     H_    0.973253 0.165836 0.454689 0.156048
H13   H     H_    0.324686 0.490577 0.654990 0.148918
H14   H     H_    0.632984 0.718073 0.390460 0.201272
H15   H     H_    0.085489 0.195103 0.644530 0.136264
H16   H     H_    0.876496 0.029329 0.688620 0.137557
H17   H     H_    0.026974 0.833135 0.543889 0.148150
H18   H     H_    0.914504 0.803889 0.354260 0.127213
H19   H     H_    0.341203 0.090927 0.888320 0.173972
H20   H     H_    0.250841 0.457195 0.226089 0.183257
N1    N     N_R   0.575030 0.246270 0.438190 -0.183744
N2    N     N_R   0.425760 0.754330 0.561190 -0.237793
O1    O     O_R   0.537510 0.972500 0.318130 -0.577004
O2    O     O_R   0.487140 0.806530 0.359650 -0.602167
O3    O     O_R   0.708330 0.082950 0.479220 -0.584980
O4    O     O_R   0.657960 0.916980 0.520740 -0.595640
O5    O     O_R   0.512860 0.193470 0.640350 -0.589096
O6    O     O_R   0.462490 0.027500 0.681870 -0.585810
O7    O     O_R   0.342040 0.083020 0.479260 -0.575693
O8    O     O_R   0.291670 0.917050 0.520780 -0.595456
O9    O     O_3   0.193818 0.679308 0.775107 -0.579347
C39   C     C_3   0.246270 0.696746 0.871885 -0.290709
H21   H     H_    0.323706 0.775944 0.894698 0.165088
H22   H     H_    0.284292 0.612667 0.858330 0.161799
H23   H     H_    0.167560 0.717121 0.946411 0.195913
I1    I     I_    0.212683 0.197313 0.136779 -0.467723

loop_
_geom_bond_atom_site_label_1
_geom_bond_atom_site_label_2
_ccdc_geom_bond_type
C34   C37   S    
C15   H20   S    
C31   N1    A    
C35   C36   S    
C2    H17   S    
C7    C8    A    
C30   H14   S    
C11   C19   A    
C29   C30   A    
Cu2   O8    S    
C36   C37   S    
C37   C38   S    
C32   N1    A    
C15   C16   A    
C33   C36   S    
Cu2   N2    S    
C34   C35   S    
C23   O5    A    
C8    H5    S    
C17   H2    S    
C8    C9    A    
C7    H3    S    
C4    C12   S    
C9    C10   A    
C33   O7    A    
Cu2   O4    S    
C21   C22   A    
Cu1   O3    S    
C39   H23   S    
Cu1   N1    S    
C1    O1    A    
C25   C26   A    
C6    C18   A    
C4    C34   S    
C1    C19   S    
C29   H8    S    
C27   C31   A    
C24   C25   A    
C39   H22   S    
C16   H6    S    
Cu1   Cu2   S    
C5    C18   A    
C20   C28   A    
C24   H13   S    
C12   O4    A    
C23   O6    A    
C20   H9    S    
C11   C16   A    
C2    C38   S    
C3    C35   S    
Cu1   O7    S    
C5    C14   A    
C33   O8    A    
C4    C38   S    
C26   C30   A    
C7    C19   A    
C32   H7    S    
C22   C24   A    
C31   H10   S    
C3    C4    S    
C1    O2    A    
C22   O9    S    
C21   H11   S    
C20   C32   A    
C2    C36   S    
C6    C17   A    
C28   C29   A    
C9    H4    S    
Cu1   O5    S    
C39   H21   S    
C10   C13   A    
C25   C27   A    
Cu1   O1    S    
C12   O3    A    
C34   H12   S    
Cu2   O2    S    
C13   C17   A    
C5    I1    S    
C2    C3    S    
C26   N2    A    
O9    C39   S    
C6    C23   S    
C35   H1    S    
C10   C11   A    
C37   H15   S    
C3    H18   S    
C18   H19   S    
C38   H16   S    
Cu2   O6    S    
C27   C28   A    
C14   C15   A    
C21   N2    A    
C13   C14   A    
