data_mof_unit_15923.cif
_audit_creation_date              2012-12-10T17:12:36-0500
_audit_creation_method            fapswitch 2.2
_symmetry_space_group_name_H-M    P1
_symmetry_Int_Tables_number       1
_space_group_crystal_system       triclinic
_cell_length_a                    23.444153
_cell_length_b                    10.660357
_cell_length_c                    9.999964
_cell_angle_alpha                 91.041322
_cell_angle_beta                  90.051111
_cell_angle_gamma                 90.237255
_cell_volume                      2498.78606488

loop_
_atom_site_label
_atom_site_type_symbol
_atom_type_description
_atom_site_fract_x
_atom_site_fract_y
_atom_site_fract_z
_atom_type_partial_charge
C1    C     C_R   0.500816 0.262235 0.498467 0.976383
C2    C     C_R   0.118482 0.610721 0.495208 0.503851
C3    C     C_R   0.235924 0.523826 0.387537 -0.202098
C4    C     C_R   0.389230 0.500853 0.499901 0.892012
C5    C     C_R   0.295345 0.526308 0.382819 0.441071
C6    C     C_R   0.326794 0.503094 0.500519 -0.153573
C7    C     C_R   0.297940 0.483166 0.621488 -0.280908
C8    C     C_R   0.238846 0.483560 0.625293 -0.110960
C9    C     C_R   0.207945 0.503172 0.508357 0.256395
C10   C     C_R   0.762002 0.479539 0.377358 0.213460
C11   C     C_R   0.702502 0.483072 0.378742 -0.252512
C12   C     C_R   0.970041 0.270662 0.547393 -0.268518
C13   C     C_R   0.672843 0.497389 0.499825 -0.070652
C14   C     C_R   0.702890 0.508269 0.620651 -0.217377
C15   C     C_R   0.761942 0.505486 0.620374 -0.138325
C16   C     C_R   0.503410 0.737549 0.501341 0.964334
C17   C     C_R   0.791485 0.491349 0.499884 0.294422
C18   C     C_2   0.526408 0.930922 0.394607 -0.312957
C19   C     C_2   0.516426 0.868015 0.506215 -0.399228
C20   C     C_2   0.533101 0.067098 0.401671 0.522640
C21   C     C_2   0.501609 0.129256 0.493252 -0.409508
C22   C     C_2   0.532469 0.573281 0.926316 -0.129312
C23   C     C_R   0.029641 0.270950 0.552586 0.489155
C24   C     C_2   0.534849 0.567828 0.076447 -0.144043
C25   C     C_R   0.610670 0.499608 0.499978 0.882107
C26   C     C_R   0.880016 0.604141 0.488706 0.503026
C27   C     C_R   0.880352 0.382750 0.523265 0.514104
C28   C     C_R   0.939912 0.381943 0.527536 -0.079534
C29   C     C_R   0.969673 0.495512 0.510969 -0.022374
C30   C     C_R   0.939513 0.607931 0.491358 0.000095
C31   C     C_3   0.614672 0.066130 0.269219 0.102919
C32   C     C_3   0.656882 0.156514 0.206689 -0.798057
C33   C     C_3   0.056778 0.128825 0.706486 0.107193
C34   C     C_R   0.060001 0.384153 0.532193 -0.140640
C35   C     C_3   0.091924 0.011290 0.728079 -0.709787
C36   C     C_3   0.324097 0.674903 0.237478 0.118953
C37   C     C_3   0.359439 0.697695 0.112693 -0.783525
C38   C     C_3   0.792606 0.461123 0.245336 -0.417789
C39   C     C_3   0.788360 0.577819 0.159715 -0.832003
C40   C     C_R   0.029633 0.496747 0.512918 -0.082077
C41   C     C_R   0.059042 0.610876 0.494571 0.010548
C42   C     C_R   0.028573 0.722178 0.475395 -0.176187
C43   C     C_R   0.969308 0.720796 0.474203 -0.163234
C44   C     C_R   0.119870 0.389251 0.530065 0.537290
H1    H     H_    0.947592 0.182485 0.559014 0.203594
H2    H     H_    0.566771 0.625042 0.127487 0.154521
H3    H     H_    0.468227 0.452656 0.101124 0.178514
H4    H     H_    0.050390 0.810550 0.460402 0.200813
H5    H     H_    0.946989 0.808158 0.458933 0.195792
H6    H     H_    0.211423 0.537932 0.297183 0.153532
H7    H     H_    0.320970 0.466220 0.713306 0.187832
H8    H     H_    0.216933 0.467816 0.718840 0.149643
H9    H     H_    0.603157 0.993120 0.192966 0.138805
H10   H     H_    0.636223 0.021712 0.355756 0.149617
H11   H     H_    0.670252 0.228741 0.281831 0.254435
H12   H     H_    0.679464 0.473352 0.285090 0.169237
H13   H     H_    0.695180 0.104575 0.171655 0.211768
H14   H     H_    0.636948 0.203435 0.120185 0.257786
H15   H     H_    0.012390 0.109999 0.740500 0.126236
H16   H     H_    0.075622 0.206315 0.768834 0.144725
H17   H     H_    0.136516 0.026759 0.694552 0.282592
H18   H     H_    0.092187 0.988230 0.835921 0.193476
H19   H     H_    0.073250 0.931052 0.670654 0.248857
H20   H     H_    0.344391 0.727614 0.322506 0.135997
H21   H     H_    0.280365 0.711831 0.220502 0.149686
H22   H     H_    0.340548 0.646346 0.025625 0.250453
H23   H     H_    0.680870 0.519515 0.715259 0.166293
H24   H     H_    0.360412 0.799527 0.091285 0.206487
H25   H     H_    0.403804 0.664914 0.128150 0.260747
H26   H     H_    0.743146 0.598439 0.135621 0.247887
H27   H     H_    0.807521 0.659948 0.213146 0.294076
H28   H     H_    0.811832 0.561982 0.064536 0.247111
H29   H     H_    0.838395 0.439170 0.259907 0.214799
H30   H     H_    0.773475 0.379738 0.190285 0.208967
H31   H     H_    0.785031 0.514921 0.713915 0.141168
H32   H     H_    0.527474 0.884095 0.297235 0.178765
H33   H     H_    0.519918 0.912287 0.604655 0.159403
H34   H     H_    0.474234 0.082916 0.564730 0.115232
H35   H     H_    0.560039 0.640530 0.877780 0.157362
H36   H     H_    0.476811 0.432732 0.896526 0.170316
N1    N     N_R   0.852093 0.492613 0.503488 -0.360383
N2    N     N_R   0.147275 0.501089 0.511880 -0.351217
N3    N     N_2   0.500610 0.501330 0.852150 -0.189285
N4    N     N_2   0.500630 0.501360 0.147810 -0.186457
O1    O     O_R   0.499990 0.319060 0.613040 -0.626058
O2    O     O_R   0.583840 0.500020 0.613040 -0.621302
O3    O     O_R   0.583850 0.500060 0.386900 -0.615871
O4    O     O_2   0.850121 0.710598 0.471471 -0.562303
O5    O     O_3   0.565552 0.133269 0.309289 -0.589324
O6    O     O_3   0.057790 0.158547 0.569438 -0.560766
O7    O     O_3   0.322254 0.544891 0.261775 -0.596426
O8    O     O_2   0.850744 0.275061 0.538284 -0.557197
O9    O     O_2   0.150799 0.283871 0.544369 -0.503505
O10   O     O_2   0.147524 0.719113 0.479597 -0.566438
O11   O     O_R   0.500010 0.319100 0.386900 -0.553337
O12   O     O_R   0.416150 0.499940 0.613100 -0.626212
O13   O     O_R   0.416160 0.499980 0.386960 -0.566748
O14   O     O_R   0.499990 0.680900 0.613100 -0.618643
O15   O     O_R   0.500010 0.680940 0.386960 -0.618967
Zn1   Zn    Zn3+2 0.499990 0.499970 0.650990 0.945410
Zn2   Zn    Zn3+2 0.500010 0.500030 0.349010 0.983724

loop_
_geom_bond_atom_site_label_1
_geom_bond_atom_site_label_2
_ccdc_geom_bond_type
C15   H31   S    
C1    C21   S    
C37   H25   S    
C41   C42   A    
C32   H14   S    
C7    C8    A    
C12   C23   A    
C12   C28   A    
C34   C40   A    
C36   C37   S    
C22   H35   S    
C44   N2    A    
C38   C39   S    
C2    C41   A    
C37   H24   S    
C25   O3    A    
C18   C19   D    
C19   H33   S    
C44   O9    S    
C4    O12   A    
C8    C9    A    
C31   O5    S    
C21   H34   S    
C14   H23   S    
O2    Zn1   S    
C8    H8    S    
C32   H11   S    
C17   N1    S    
C9    N2    S    
C33   H15   S    
O3    Zn2   S    
C13   C14   A    
N4    Zn2   S    
C13   C25   S    
C32   H13   S    
H36   N3    S    
C3    H6    S    
C1    O1    A    
C2    O10   S    
C34   C44   A    
C4    C6    S    
C36   H21   S    
C43   H5    S    
C29   C30   A    
C3    C9    A    
C31   C32   S    
C27   N1    A    
C1    O11   A    
C23   C34   A    
C37   H22   S    
C23   O6    S    
C27   O8    S    
C35   H17   S    
C42   H4    S    
H3    N4    S    
C31   H9    S    
C5    O7    S    
C39   H28   S    
C36   O7    S    
C40   C41   A    
O15   Zn2   S    
C26   C30   A    
C33   H16   S    
O14   Zn1   S    
N3    Zn1   S    
C22   C24   S    
C30   C43   A    
C2    N2    A    
C42   C43   A    
C38   H30   S    
C15   C17   A    
C28   C29   A    
C18   H32   S    
C12   H1    S    
C3    C5    A    
C16   O15   A    
C6    C7    A    
C26   N1    A    
C20   O5    S    
C10   C38   S    
C24   H2    S    
C22   N3    D    
C24   N4    D    
C7    H7    S    
O1    Zn1   S    
C36   H20   S    
C33   O6    S    
C11   C13   A    
C16   O14   A    
C5    C6    A    
C16   C19   S    
O12   Zn1   S    
C29   C40   A    
C25   O2    A    
C33   C35   S    
C39   H26   S    
C35   H18   S    
C18   C20   S    
C31   H10   S    
C10   C11   A    
C20   C21   D    
C26   O4    S    
C27   C28   A    
C39   H27   S    
C14   C15   A    
C35   H19   S    
C10   C17   A    
C4    O13   A    
O13   Zn2   S    
C11   H12   S    
O11   Zn2   S    
C38   H29   S    
