data_mof_unit_8985.cif
_audit_creation_date              2012-10-26T18:36:06-0400
_audit_creation_method            fapswitch 2.2
_symmetry_space_group_name_H-M    P1
_symmetry_Int_Tables_number       1
_space_group_crystal_system       triclinic
_cell_length_a                    11.058898
_cell_length_b                    12.687022
_cell_length_c                    13.876274
_cell_angle_alpha                 98.744065
_cell_angle_beta                  91.779388
_cell_angle_gamma                 94.094115
_cell_volume                      1917.62987827

loop_
_atom_site_label
_atom_site_type_symbol
_atom_type_description
_atom_site_fract_x
_atom_site_fract_y
_atom_site_fract_z
_atom_type_partial_charge
Br1   Br    Br    0.095664 0.267623 0.434560 -0.143612
Br2   Br    Br    0.158399 0.583288 0.701028 -0.219245
Br3   Br    Br    0.509726 0.683654 0.054263 -0.348385
Br4   Br    Br    0.865076 0.470014 0.282852 -0.194883
Br5   Br    Br    0.866233 0.313385 0.588440 -0.163533
Br6   Br    Br    0.177596 0.745865 0.561132 -0.173763
C1    C     C_R   0.504428 0.482964 0.315847 0.609282
C2    C     C_1   0.503305 0.471899 0.212295 0.132701
C3    C     C_2   0.499026 0.029109 0.461903 0.168855
C4    C     C_R   0.258831 0.499564 0.496398 0.631163
C5    C     C_2   0.502674 0.971131 0.537340 0.186273
C6    C     C_1   0.514078 0.854566 0.523270 0.351348
C7    C     C_1   0.486587 0.145546 0.476410 0.299882
C8    C     C_R   0.497529 0.517140 0.684256 0.609943
C9    C     C_R   0.740298 0.500977 0.497703 0.611044
C10   C     C_3   0.059323 0.408591 0.405389 0.256327
C11   C     C_3   0.915125 0.418344 0.399654 0.225276
C12   C     C_3   0.876740 0.505018 0.496714 -0.178328
C13   C     C_3   0.074354 0.472880 0.600896 0.227789
C14   C     C_3   0.081587 0.622784 0.476008 0.243359
C15   C     C_3   0.120784 0.500419 0.493622 -0.166030
C16   C     C_3   0.927186 0.463739 0.597334 0.248701
C17   C     C_3   0.935312 0.632505 0.491749 0.280390
C18   C     C_1   0.497059 0.527920 0.787756 0.122292
C19   C     C_2   0.500318 0.542629 0.978925 0.142903
C20   C     C_2   0.497336 0.453483 0.020814 0.238990
C21   C     C_1   0.500947 0.462524 0.125005 0.089921
C22   C     C_1   0.498021 0.536044 0.874932 0.102119
Cu1   Cu    Cu3+1 0.491980 0.395330 0.493960 1.291172
Cu2   Cu    Cu3+1 0.508020 0.604670 0.506040 1.276351
H1    H     H_    0.940102 0.904777 0.647084 0.392527
H2    H     H_    0.799489 0.736209 0.258900 0.384171
H3    H     H_    0.738222 0.628491 0.773698 0.377041
H4    H     H_    0.480195 0.161546 0.983880 0.393937
H5    H     H_    0.489586 0.985341 0.801478 0.394652
H6    H     H_    0.662652 0.892753 0.262577 0.394270
H7    H     H_    0.159508 0.449147 0.148955 0.384549
H8    H     H_    0.775795 0.126069 0.387591 0.396738
H9    H     H_    0.135048 0.194613 0.670606 0.404536
H10   H     H_    0.187573 0.810198 0.304427 0.405418
N1    N     N_1   0.479930 0.238040 0.484880 -0.133645
N2    N     N_1   0.520070 0.761960 0.515120 -0.113665
O1    O     O_R   0.492240 0.399110 0.356330 -0.448103
O2    O     O_2   0.970599 0.716013 0.697123 -0.183953
O3    O     O_3   0.960803 0.856629 0.587769 -0.382930
O4    O     O_2   0.796499 0.416838 0.760777 -0.159362
O5    O     O_2   0.944710 0.563529 0.796838 -0.142803
O6    O     O_3   0.745815 0.588597 0.707255 -0.501934
O7    O     O_2   0.375100 0.307023 0.886999 -0.203765
O8    O     O_2   0.597154 0.311545 0.890234 -0.184850
O9    O     O_3   0.484462 0.231311 0.027499 -0.445999
O10   O     O_2   0.591860 0.119480 0.684878 -0.200680
O11   O     O_2   0.370776 0.084573 0.667796 -0.228321
O12   O     O_R   0.505790 0.575900 0.366540 -0.474941
O13   O     O_3   0.495899 0.943779 0.735592 -0.471837
O14   O     O_2   0.427042 0.872268 0.314895 -0.232046
O15   O     O_2   0.499353 0.045507 0.271066 -0.198132
O16   O     O_3   0.658304 0.926173 0.331573 -0.494334
O17   O     O_2   0.097371 0.275848 0.231706 -0.131224
O18   O     O_2   0.265629 0.394234 0.300475 -0.284396
O19   O     O_3   0.101222 0.465896 0.200896 -0.379758
O20   O     O_2   0.695318 0.295278 0.338358 -0.245765
O21   O     O_2   0.870778 0.242144 0.254381 -0.123503
O22   O     O_3   0.841328 0.180447 0.415434 -0.402568
O23   O     O_R   0.310920 0.411610 0.494880 -0.439808
O24   O     O_2   0.270645 0.374841 0.670983 -0.243730
O25   O     O_2   0.092681 0.381715 0.766877 -0.139843
O26   O     O_3   0.094545 0.234093 0.624030 -0.396079
O27   O     O_2   0.249853 0.608034 0.328534 -0.234325
O28   O     O_2   0.046947 0.642028 0.276268 -0.152336
O29   O     O_3   0.180233 0.794396 0.371847 -0.396084
O30   O     O_2   0.749933 0.761625 0.444972 -0.204883
O31   O     O_2   0.948627 0.812245 0.399967 -0.134896
O32   O     O_3   0.818605 0.671926 0.287241 -0.437878
O33   O     O_R   0.324460 0.588390 0.505090 -0.460725
O34   O     O_R   0.494210 0.424100 0.633460 -0.446355
O35   O     O_R   0.507760 0.600890 0.643670 -0.483258
O36   O     O_R   0.675540 0.411610 0.494910 -0.455643
O37   O     O_R   0.689080 0.588390 0.505120 -0.430387
O38   O     O_2   0.777367 0.744386 0.623976 -0.199192
S1    S     S_3+6 0.908823 0.732676 0.604500 0.155685
S2    S     S_3+6 0.862359 0.716267 0.404113 0.170488
S3    S     S_3+6 0.856484 0.508369 0.717737 0.153637
S4    S     S_3+6 0.488264 0.323363 0.952056 0.097325
S5    S     S_3+6 0.489682 0.034155 0.658917 0.075672
S6    S     S_3+6 0.517424 0.967369 0.340606 0.056664
S7    S     S_3+6 0.131381 0.387301 0.283991 0.160875
S8    S     S_3+6 0.828312 0.283844 0.353851 0.158684
S9    S     S_3+6 0.134967 0.364261 0.663931 0.157345
S10   S     S_3+6 0.138323 0.662229 0.359694 0.151422

loop_
_geom_bond_atom_site_label_1
_geom_bond_atom_site_label_2
_ccdc_geom_bond_type
C9    C12   S    
C10   C15   S    
H10   O29   S    
O21   S8    D    
C11   S8    S    
H9    O26   S    
C7    N1    T    
O8    S4    D    
C1    C2    S    
Cu1   O34   S    
C19   C22   S    
Cu2   O12   S    
C20   C21   S    
O7    S4    D    
O10   S5    D    
C17   S2    S    
H6    O16   S    
H2    O32   S    
C9    O36   A    
O25   S9    D    
O15   S6    D    
C8    O35   A    
C8    C18   S    
C3    C7    S    
C6    N2    T    
O19   S7    S    
Cu2   O35   S    
C9    O37   A    
Cu1   O36   S    
C10   C11   S    
C10   S7    S    
C1    O1    A    
Cu1   O1    S    
O28   S10   D    
O32   S2    S    
O16   S6    S    
O18   S7    D    
C11   C12   S    
O24   S9    D    
H8    O22   S    
C4    C15   S    
Br5   C16   S    
H5    O13   S    
C12   C17   S    
Br3   C19   S    
C13   C16   S    
O2    S1    D    
C19   C20   D    
O20   S8    D    
C8    O34   A    
O13   S5    S    
Cu1   Cu2   S    
C13   S9    S    
C3    S6    S    
C4    O33   A    
O14   S6    D    
C14   C17   S    
O26   S9    S    
H4    O9    S    
Br1   C10   S    
C3    C5    D    
Cu1   O23   S    
Cu2   O37   S    
O5    S3    D    
Br4   C11   S    
O27   S10   D    
O31   S2    D    
C4    O23   A    
C2    C21   T    
C20   S4    S    
C17   S1    S    
Cu1   N1    S    
Br2   C13   S    
C12   C16   S    
O3    S1    S    
C18   C22   T    
O38   S1    D    
H7    O19   S    
C5    C6    S    
Br6   C14   S    
O6    S3    S    
C16   S3    S    
Cu2   O33   S    
O29   S10   S    
C14   S10   S    
C5    S5    S    
O17   S7    D    
O4    S3    D    
C14   C15   S    
H1    O3    S    
H3    O6    S    
Cu2   N2    S    
O11   S5    D    
C1    O12   A    
O9    S4    S    
O22   S8    S    
O30   S2    D    
C13   C15   S    
