data_mof_unit_41044.cif
_audit_creation_date              2012-12-10T20:34:12-0500
_audit_creation_method            fapswitch 2.2
_symmetry_space_group_name_H-M    P1
_symmetry_Int_Tables_number       1
_space_group_crystal_system       triclinic
_cell_length_a                    9.896144
_cell_length_b                    10.692005
_cell_length_c                    13.597734
_cell_angle_alpha                 90.572516
_cell_angle_beta                  84.388192
_cell_angle_gamma                 89.456134
_cell_volume                      1431.72472213

loop_
_atom_site_label
_atom_site_type_symbol
_atom_type_description
_atom_site_fract_x
_atom_site_fract_y
_atom_site_fract_z
_atom_type_partial_charge
C1    C     C_R   0.500129 0.739885 0.495938 0.925951
C2    C     C_3   0.257032 0.933107 0.556166 0.504296
C3    C     C_R   0.923075 0.595392 0.544059 0.028268
C4    C     C_R   0.476900 0.499783 0.685515 0.869054
C5    C     C_R   0.936394 0.416063 0.444374 0.576622
C6    C     C_R   0.080386 0.416133 0.444231 0.514652
C7    C     C_R   0.063576 0.591970 0.546990 -0.042767
C8    C     C_3   0.053833 0.638135 0.652103 0.264858
C9    C     C_3   0.900346 0.654373 0.645301 0.252430
C10   C     C_R   0.501069 0.259971 0.496341 0.956516
C11   C     C_R   0.522583 0.496862 0.314490 0.907517
C12   C     C_1   0.459933 0.499966 0.789017 -0.134825
C13   C     C_1   0.534588 0.473128 0.212396 -0.102259
C14   C     C_2   0.523973 0.428248 0.023988 0.388791
C15   C     C_2   0.435810 0.501736 0.982096 0.405319
C16   C     C_1   0.445316 0.500638 0.876671 -0.102528
C17   C     C_1   0.534980 0.449997 0.126793 -0.078593
C18   C     C_3   0.240489 0.627192 0.992447 0.099905
C19   C     C_3   0.143552 0.700381 0.065876 -0.740155
C20   C     C_3   0.069400 0.425160 0.709485 0.206607
C21   C     C_3   0.082456 0.353009 0.804011 -0.868145
C22   C     C_3   0.780115 0.659014 0.800219 0.163717
C23   C     C_R   0.379538 0.937432 0.482764 0.060581
C24   C     C_3   0.802259 0.586370 0.892815 -0.808212
C25   C     C_3   0.694256 0.273271 0.019511 0.111174
C26   C     C_3   0.769584 0.176560 0.951436 -0.804546
C27   C     C_R   0.501596 0.870861 0.478080 -0.434694
C28   C     C_R   0.624630 0.933177 0.452842 0.540732
C29   C     C_R   0.625351 0.062564 0.453898 0.554300
C30   C     C_R   0.503074 0.128354 0.479453 -0.372596
C31   C     C_R   0.380446 0.065027 0.483917 0.043885
C32   C     C_3   0.258344 0.074857 0.557635 -0.453312
F1    F     F_    0.156187 0.329932 0.389157 -0.594666
F2    F     F_    0.744799 0.870698 0.434398 -0.587937
F3    F     F_    0.746068 0.121410 0.437208 -0.542987
F4    F     F_    0.145981 0.886530 0.513796 -0.618742
F5    F     F_    0.877446 0.331584 0.387840 -0.549094
H1    H     H_    0.104102 0.729549 0.658762 0.112971
H2    H     H_    0.108916 0.640307 0.129416 0.270302
H3    H     H_    0.148968 0.387031 0.654199 0.159179
H4    H     H_    0.968415 0.405582 0.684238 0.164327
H5    H     H_    0.003860 0.384263 0.862952 0.258282
H6    H     H_    0.069594 0.251503 0.790015 0.209200
H7    H     H_    0.184357 0.367794 0.829511 0.256164
H8    H     H_    0.670516 0.682373 0.800714 0.140310
H9    H     H_    0.835931 0.748977 0.804405 0.103103
H10   H     H_    0.911718 0.585653 0.904401 0.252068
H11   H     H_    0.744526 0.631126 0.958213 0.204356
H12   H     H_    0.866360 0.753523 0.638152 0.091864
H13   H     H_    0.767869 0.488868 0.885029 0.295100
H14   H     H_    0.642883 0.223502 0.084102 0.173872
H15   H     H_    0.769797 0.340142 0.044514 0.156676
H16   H     H_    0.818705 0.222584 0.884567 0.256808
H17   H     H_    0.848791 0.129183 0.990541 0.221900
H18   H     H_    0.697505 0.105452 0.928450 0.255608
H19   H     H_    0.281797 0.115240 0.629663 0.128854
H20   H     H_    0.170047 0.118376 0.525894 0.274018
H21   H     H_    0.276086 0.889341 0.627405 0.021285
H22   H     H_    0.184739 0.545464 0.965676 0.158167
H23   H     H_    0.272491 0.689434 0.929464 0.155475
H24   H     H_    0.195208 0.783687 0.093353 0.267251
H25   H     H_    0.053703 0.731789 0.029377 0.198811
N1    N     N_R   0.857130 0.500860 0.500650 -0.184871
N2    N     N_R   0.142770 0.500820 0.500650 -0.203982
O1    O     O_R   0.385310 0.683210 0.499990 -0.598598
O2    O     O_3   0.089996 0.554463 0.727334 -0.592576
O3    O     O_3   0.819901 0.584052 0.715440 -0.574820
O4    O     O_3   0.598359 0.336440 0.967068 -0.642865
O5    O     O_R   0.614650 0.683240 0.500000 -0.559264
O6    O     O_R   0.368820 0.499950 0.640340 -0.618997
O7    O     O_R   0.598170 0.499990 0.640350 -0.569877
O8    O     O_R   0.385350 0.316760 0.500000 -0.590045
O9    O     O_R   0.614690 0.316790 0.500010 -0.532063
O10   O     O_R   0.401830 0.500010 0.359650 -0.561244
O11   O     O_R   0.631180 0.500050 0.359660 -0.580750
O12   O     O_3   0.354556 0.588064 0.039681 -0.624778
Zn1   Zn    Zn3+2 0.346870 0.499980 0.499990 1.026786
Zn2   Zn    Zn3+2 0.653130 0.500020 0.500010 1.082879

loop_
_geom_bond_atom_site_label_1
_geom_bond_atom_site_label_2
_ccdc_geom_bond_type
C8    O2    S    
C5    F5    S    
N2    Zn1   S    
C26   H18   S    
C4    O6    A    
C20   H4    S    
C7    C8    S    
C29   C30   A    
C20   O2    S    
C28   C29   A    
C3    C7    A    
C30   C31   A    
C20   H3    S    
C10   O9    A    
C19   H25   S    
C15   C16   S    
C5    N1    A    
C2    C32   S    
C18   C19   S    
C6    N2    A    
C21   H6    S    
C12   C16   T    
C8    C9    S    
O10   Zn1   S    
C1    O1    A    
O9    Zn2   S    
C23   C27   A    
C4    C12   S    
C15   O12   S    
C28   F2    S    
O6    Zn1   S    
C14   C17   S    
O5    Zn2   S    
C25   O4    S    
C8    H1    S    
C32   H20   S    
C26   H17   S    
C24   H13   S    
C7    N2    A    
O1    Zn1   S    
C24   H11   S    
C9    H12   S    
C25   C26   S    
C1    O5    A    
C23   C31   A    
C9    O3    S    
O8    Zn1   S    
C3    C9    S    
C21   H7    S    
C10   C30   S    
C31   C32   S    
C19   H2    S    
C18   H23   S    
C22   H9    S    
C22   C24   S    
C26   H16   S    
C2    C23   S    
C2    F4    S    
C18   O12   S    
C24   H10   S    
C11   O10   A    
C2    H21   S    
C3    N1    A    
C29   F3    S    
C25   H14   S    
C6    F1    S    
C13   C17   T    
C25   H15   S    
C11   O11   A    
C11   C13   S    
C5    C6    A    
C19   H24   S    
C4    O7    A    
O11   Zn2   S    
C22   O3    S    
C21   H5    S    
C18   H22   S    
C22   H8    S    
C20   C21   S    
C27   C28   A    
C1    C27   S    
C14   O4    S    
C14   C15   D    
C32   H19   S    
O7    Zn2   S    
N1    Zn2   S    
C10   O8    A    
