data_mof_unit_64095.cif
_audit_creation_date              2012-12-10T17:51:45-0500
_audit_creation_method            fapswitch 2.2
_symmetry_space_group_name_H-M    P1
_symmetry_Int_Tables_number       1
_space_group_crystal_system       triclinic
_cell_length_a                    18.676921
_cell_length_b                    18.875078
_cell_length_c                    18.635389
_cell_angle_alpha                 109.194325
_cell_angle_beta                  109.209178
_cell_angle_gamma                 109.649496
_cell_volume                      5079.51300472

loop_
_atom_site_label
_atom_site_type_symbol
_atom_type_description
_atom_site_fract_x
_atom_site_fract_y
_atom_site_fract_z
_atom_type_partial_charge
C1    C     C_R   0.620147 0.120093 0.999897 0.870181
C2    C     C_R   0.503811 0.758818 0.681574 -0.299558
C3    C     C_R   0.503436 0.822846 0.743902 -0.056946
C4    C     C_R   0.495978 0.114905 0.119957 0.929082
C5    C     C_R   0.496720 0.812961 0.813382 -0.261443
C6    C     C_R   0.328372 0.810257 0.075163 -0.217532
C7    C     C_R   0.265374 0.747695 0.077087 -0.066948
C8    C     C_R   0.187244 0.683726 0.998909 -0.185740
C9    C     C_R   0.172839 0.680141 0.918594 0.482160
C10   C     C_R   0.234355 0.746424 0.917948 -0.131848
C11   C     C_R   0.312748 0.810792 0.996794 -0.160259
C12   C     C_R   0.820857 0.244370 0.999673 -0.190041
C13   C     C_R   0.620097 0.502016 0.621966 0.984772
C14   C     C_R   0.497701 0.384221 0.380189 0.881439
C15   C     C_R   0.379755 0.503791 0.383308 0.863575
C16   C     C_R   0.379552 0.879268 0.999381 0.883121
C17   C     C_R   0.500598 0.622134 0.623581 0.961261
C18   C     C_R   0.879941 0.500768 0.880171 1.016099
C19   C     C_R   0.878786 0.380260 0.999565 0.847490
C20   C     C_R   0.120349 0.499844 0.119465 0.858843
C21   C     C_R   0.120400 0.619450 0.999801 0.960620
C22   C     C_R   0.756586 0.578922 0.757622 -0.342602
C23   C     C_R   0.811820 0.315091 0.000095 -0.063090
C24   C     C_R   0.819941 0.579684 0.823267 0.496544
C25   C     C_R   0.813441 0.500441 0.813734 -0.328632
C26   C     C_R   0.742614 0.420916 0.741361 0.355941
C27   C     C_R   0.679518 0.421043 0.675979 0.431824
C28   C     C_R   0.499866 0.880786 0.880314 0.926497
C29   C     C_R   0.686139 0.500357 0.686191 -0.277290
C30   C     C_R   0.331853 0.522167 0.255132 -0.207958
C31   C     C_R   0.268299 0.520657 0.189115 0.003416
C32   C     C_R   0.187364 0.501135 0.185757 -0.041725
C33   C     C_R   0.169957 0.483111 0.246986 -0.196334
C34   C     C_R   0.739366 0.322156 0.001139 -0.006905
C35   C     C_R   0.232955 0.483020 0.311580 -0.177435
C36   C     C_R   0.313826 0.502947 0.315744 -0.033771
C37   C     C_2   0.422836 0.240400 0.254541 -0.257112
C38   C     C_2   0.490478 0.322137 0.303196 -0.184675
C39   C     C_2   0.416925 0.175580 0.179376 0.020420
C40   C     C_2   0.489337 0.170774 0.189003 -0.368914
C41   C     C_R   0.758413 0.180754 0.001163 -0.179388
C42   C     C_3   0.419849 0.542940 0.745255 -0.206620
C43   C     C_1   0.513909 0.899565 0.737233 0.221638
C44   C     C_1   0.283155 0.748968 0.159289 0.201309
C45   C     C_R   0.675740 0.256692 0.999955 -0.208039
C46   C     C_3   0.108158 0.552014 0.793997 -0.269754
C47   C     C_1   0.215999 0.746781 0.836235 0.243150
C48   C     C_3   0.867593 0.702589 0.946410 -0.224840
C49   C     C_3   0.688000 0.312574 0.769211 -0.211569
C50   C     C_1   0.552459 0.355219 0.275311 0.214267
C51   C     C_3   0.632345 0.321776 0.537833 -0.230482
C52   C     C_1   0.288060 0.541602 0.127483 0.164478
C53   C     C_1   0.332981 0.116707 0.100473 0.225648
C54   C     C_1   0.727691 0.394110 0.001233 0.151997
C55   C     C_3   0.396487 0.701376 0.872468 -0.294581
C56   C     C_R   0.685892 0.186881 0.000491 -0.022472
C57   C     C_R   0.488401 0.738282 0.819455 0.436011
C58   C     C_R   0.492129 0.675524 0.757803 0.431263
C59   C     C_R   0.499101 0.686544 0.689067 -0.224861
H1    H     H_    0.370810 0.220526 0.270121 0.178122
H2    H     H_    0.876854 0.239167 0.999459 0.154474
H3    H     H_    0.618996 0.260464 0.999868 0.154626
H4    H     H_    0.362943 0.537060 0.693599 0.116227
H5    H     H_    0.411850 0.551199 0.803355 0.185047
H6    H     H_    0.419220 0.480724 0.718245 0.180913
H7    H     H_    0.043480 0.494716 0.741938 0.196439
H8    H     H_    0.143902 0.530361 0.834651 0.158209
H9    H     H_    0.143704 0.574674 0.761552 0.145800
H10   H     H_    0.927455 0.757917 0.007395 0.187038
H11   H     H_    0.828122 0.661333 0.965404 0.162166
H12   H     H_    0.508768 0.765562 0.627487 0.187621
H13   H     H_    0.831265 0.729518 0.914639 0.153770
H14   H     H_    0.719054 0.359319 0.839758 0.122220
H15   H     H_    0.685567 0.251439 0.763933 0.190082
H16   H     H_    0.619550 0.298264 0.733756 0.184943
H17   H     H_    0.645899 0.371794 0.517404 0.125949
H18   H     H_    0.576144 0.260161 0.479668 0.185903
H19   H     H_    0.689387 0.311569 0.558937 0.182307
H20   H     H_    0.348387 0.640447 0.809250 0.120307
H21   H     H_    0.378321 0.751500 0.872687 0.144060
H22   H     H_    0.391189 0.689097 0.925273 0.200387
H23   H     H_    0.389009 0.859992 0.135320 0.171901
H24   H     H_    0.761896 0.639489 0.762474 0.192754
H25   H     H_    0.394810 0.537309 0.258805 0.159164
H26   H     H_    0.107335 0.468194 0.243977 0.145305
H27   H     H_    0.219150 0.468669 0.358824 0.152918
H28   H     H_    0.547132 0.208096 0.253504 0.155612
H29   H     H_    0.765694 0.126180 0.001239 0.148888
N1    N     N_1   0.522381 0.960982 0.732001 -0.197553
N2    N     N_1   0.297343 0.749868 0.224991 -0.192219
N3    N     N_1   0.201313 0.746954 0.770933 -0.193539
N4    N     N_1   0.601714 0.381661 0.253237 -0.198355
N5    N     N_1   0.303796 0.558413 0.078141 -0.205894
N6    N     N_1   0.265784 0.069568 0.037376 -0.191232
N7    N     N_1   0.718326 0.451703 0.001289 -0.198155
O1    O     O_R   0.539900 0.091920 0.948590 -0.617965
O2    O     O_R   0.908310 0.551980 0.960300 -0.609642
O3    O     O_R   0.908280 0.357000 0.948510 -0.618945
O4    O     O_R   0.643340 0.091290 0.051390 -0.627193
O5    O     O_R   0.908310 0.459790 0.051330 -0.620274
O6    O     O_R   0.091510 0.448020 0.039520 -0.625348
O7    O     O_R   0.091540 0.550800 0.142340 -0.617105
O8    O     O_R   0.091520 0.540220 0.948490 -0.619136
O9    O     O_R   0.091540 0.643000 0.051310 -0.614542
O10   O     O_R   0.448270 0.091350 0.039630 -0.606430
O11   O     O_R   0.551710 0.090720 0.142430 -0.626713
O12   O     O_R   0.643360 0.554400 0.594170 -0.632251
O13   O     O_R   0.356660 0.908710 0.948610 -0.615617
O14   O     O_R   0.460100 0.908080 0.051410 -0.617409
O15   O     O_R   0.448290 0.909280 0.857570 -0.625560
O16   O     O_R   0.551730 0.908650 0.960370 -0.580712
O17   O     O_R   0.539910 0.450960 0.594180 -0.576709
O18   O     O_3   0.501638 0.610227 0.770728 -0.586157
O19   O     O_3   0.094537 0.616337 0.842677 -0.588309
O20   O     O_3   0.892911 0.657193 0.892339 -0.575278
O21   O     O_3   0.737287 0.343197 0.732050 -0.576164
O22   O     O_3   0.609818 0.343511 0.603962 -0.580416
O23   O     O_R   0.448310 0.360490 0.412110 -0.614280
O24   O     O_3   0.483250 0.729100 0.888618 -0.563284
O25   O     O_R   0.551750 0.463920 0.412090 -0.619198
O26   O     O_R   0.356690 0.452080 0.412090 -0.633652
O27   O     O_R   0.460130 0.555510 0.412070 -0.625186
O28   O     O_R   0.448290 0.542560 0.594160 -0.617450
O29   O     O_R   0.551730 0.645990 0.594150 -0.628798
O30   O     O_R   0.908290 0.449200 0.857490 -0.580226
Zn1   Zn    Zn3+2 0.430930 0.000420 0.931360 1.001379
Zn2   Zn    Zn3+2 0.569070 0.999580 0.068640 0.990603
Zn3   Zn    Zn3+2 0.430950 0.434180 0.503140 0.976095
Zn4   Zn    Zn3+2 0.569090 0.572300 0.503120 0.977370
Zn5   Zn    Zn3+2 0.999890 0.431370 0.931260 0.994835
Zn6   Zn    Zn3+2 0.999930 0.568630 0.068560 0.999783

loop_
_geom_bond_atom_site_label_1
_geom_bond_atom_site_label_2
_ccdc_geom_bond_type
C6    H23   S    
C15   O27   A    
C27   C29   A    
C35   C36   A    
C31   C52   S    
C13   O12   A    
C1    O4    A    
C57   C58   A    
O5    Zn6   S    
C7    C8    A    
C55   O24   S    
C12   C23   A    
C3    C43   S    
C26   C27   A    
C12   C41   A    
O10   Zn1   S    
C9    O19   S    
C40   H28   S    
C13   C29   S    
C22   C29   A    
C1    C56   S    
C46   H7    S    
C13   O17   A    
C18   O30   A    
C30   C31   A    
C35   H27   S    
C20   O7    A    
C45   H3    S    
C33   H26   S    
C17   O29   A    
C51   O22   S    
C21   O9    A    
O30   Zn5   S    
C17   O28   A    
C4    C40   S    
C45   C56   A    
C8    C9    A    
C14   O23   A    
O9    Zn6   S    
C42   H6    S    
C49   H16   S    
C18   O2    A    
C55   H22   S    
C9    C10   A    
C48   H10   S    
O27   Zn4   S    
O12   Zn4   S    
C57   O24   S    
O6    Zn5   S    
C18   C25   S    
O23   Zn3   S    
C48   H13   S    
C55   H21   S    
C19   O3    A    
O14   Zn2   S    
C16   O14   A    
C27   O22   S    
C28   O16   A    
C10   C47   S    
C46   O19   S    
O25   Zn4   S    
O7    Zn6   S    
O2    Zn6   S    
O26   Zn3   S    
C6    C11   A    
C2    C59   A    
O4    Zn2   S    
C20   O6    A    
C28   O15   A    
C25   C26   A    
C4    O11   A    
O11   Zn2   S    
C19   C23   S    
C51   H18   S    
C41   C56   A    
C46   H9    S    
C37   C38   D    
C58   O18   S    
C5    C28   S    
C55   H20   S    
C11   C16   S    
C42   O18   S    
C31   C32   A    
C23   C34   A    
O3    Zn5   S    
C8    C21   S    
O1    Zn1   S    
C52   N5    T    
C34   C45   A    
C43   N1    T    
C7    C44   S    
C24   C25   A    
C54   N7    T    
C17   C59   S    
C48   O20   S    
C50   N4    T    
O15   Zn1   S    
C34   C54   S    
C14   O25   A    
O16   Zn2   S    
C49   H14   S    
C14   C38   S    
C42   H5    S    
C15   C36   S    
C39   C40   D    
C44   N2    T    
C20   C32   S    
C41   H29   S    
C15   O26   A    
C53   N6    T    
C47   N3    T    
C48   H11   S    
C3    C5    A    
C19   O5    A    
C6    C7    A    
C38   C50   S    
C30   C36   A    
C4    O10   A    
C5    C57   A    
C22   H24   S    
C2    C3    A    
C58   C59   A    
C51   H19   S    
C46   H8    S    
C37   C39   S    
C32   C33   A    
C12   H2    S    
O28   Zn3   S    
C39   C53   S    
C1    O1    A    
C33   C35   A    
O29   Zn4   S    
C22   C24   A    
C30   H25   S    
O8    Zn5   S    
C26   O21   S    
O17   Zn3   S    
C37   H1    S    
C10   C11   A    
C16   O13   A    
C21   O8    A    
C49   O21   S    
C24   O20   S    
C51   H17   S    
C49   H15   S    
O13   Zn1   S    
C42   H4    S    
C2    H12   S    
