data_mof_unit_33540.cif
_audit_creation_date              2012-12-11T14:14:07-0500
_audit_creation_method            fapswitch 2.2
_symmetry_space_group_name_H-M    P1
_symmetry_Int_Tables_number       1
_space_group_crystal_system       triclinic
_cell_length_a                    17.03087
_cell_length_b                    7.248844
_cell_length_c                    17.01713
_cell_angle_alpha                 89.999923
_cell_angle_beta                  99.32703
_cell_angle_gamma                 90.000931
_cell_volume                      2073.06044172

loop_
_atom_site_label
_atom_site_type_symbol
_atom_type_description
_atom_site_fract_x
_atom_site_fract_y
_atom_site_fract_z
_atom_type_partial_charge
O1    O     O_R   0.414560 0.494370 0.416770 -0.545725
O2    O     O_R   0.585440 0.994370 0.583230 -0.545727
O3    O     O_R   0.578370 0.819590 0.429320 -0.539147
O4    O     O_R   0.421630 0.319590 0.570680 -0.539164
C1    C     C_R   0.604322 0.655844 0.413716 0.771188
C2    C     C_R   0.395679 0.155841 0.586284 0.771181
O5    O     O_R   0.414740 0.823790 0.407360 -0.521060
O6    O     O_R   0.585260 0.323790 0.592640 -0.521048
O7    O     O_R   0.420650 0.998510 0.561120 -0.526596
O8    O     O_R   0.579350 0.498510 0.438880 -0.526571
C3    C     C_R   0.386223 0.655566 0.387135 0.677696
C4    C     C_R   0.613776 0.155566 0.612867 0.677721
O9    O     O_3   0.502130 0.662240 0.550470 -0.373178
O10   O     O_3   0.497870 0.162240 0.449530 -0.373161
V1    V     V_3+5 0.499600 0.935390 0.490640 1.557403
V2    V     V_3+5 0.500400 0.435390 0.509360 1.557396
C5    C     C_2   0.787853 0.264881 0.783668 0.272666
C6    C     C_2   0.212156 0.764872 0.216329 0.272681
C7    C     C_2   0.809731 0.113911 0.829399 0.224172
C8    C     C_2   0.190269 0.613899 0.170601 0.224153
C9    C     C_2   0.708502 0.272226 0.729599 0.267748
C10   C     C_2   0.291509 0.772199 0.270394 0.267776
C11   C     C_2   0.689251 0.144709 0.671454 0.222835
C12   C     C_2   0.310746 0.644717 0.328552 0.222816
C13   C     C_R   0.330434 0.152278 0.634678 -0.231920
C14   C     C_R   0.669566 0.652293 0.365320 -0.231943
C15   C     C_R   0.168198 0.114836 0.863845 -0.235622
C16   C     C_R   0.831799 0.614820 0.136154 -0.235601
C17   C     C_R   0.291740 0.980178 0.832944 0.394580
C18   C     C_R   0.708271 0.480096 0.167072 0.394555
C19   C     C_R   0.236559 0.003814 0.885834 0.262477
C20   C     C_R   0.763455 0.503719 0.114184 0.262492
C21   C     C_R   0.157051 0.208565 0.790008 -0.113355
C22   C     C_R   0.842930 0.708621 0.209976 -0.113348
C23   C     C_R   0.214245 0.191627 0.737057 -0.093562
C24   C     C_R   0.785742 0.691668 0.262931 -0.093549
C25   C     C_R   0.283743 0.082089 0.760819 -0.117716
C26   C     C_R   0.716261 0.582049 0.239187 -0.117668
C27   C     C_R   0.343732 0.074074 0.711011 0.332956
C28   C     C_R   0.656277 0.574013 0.289001 0.332979
C29   C     C_R   0.258965 0.248244 0.608253 0.207667
C30   C     C_R   0.741019 0.748348 0.391727 0.207697
C31   C     C_R   0.203211 0.276951 0.660339 0.388306
C32   C     C_R   0.796764 0.777063 0.339634 0.388306
O11   O     O_R   0.920750 0.773600 0.061260 -0.539788
O12   O     O_R   0.079250 0.273600 0.938740 -0.539792
O13   O     O_R   0.085340 0.439850 0.092570 -0.548703
O14   O     O_R   0.914660 0.939850 0.907430 -0.548714
C33   C     C_R   0.114245 0.608063 0.112412 0.667825
C34   C     C_R   0.885755 0.108064 0.887588 0.667844
O15   O     O_R   0.921720 0.444130 0.070790 -0.527016
O16   O     O_R   0.078280 0.944130 0.929210 -0.527051
O17   O     O_R   0.914480 0.269530 0.916840 -0.512302
O18   O     O_R   0.085520 0.769530 0.083160 -0.512303
C35   C     C_R   0.895998 0.611908 0.085926 0.683804
C36   C     C_R   0.104000 0.111911 0.914075 0.683786
O19   O     O_3   0.997840 0.601520 0.949550 -0.366930
O20   O     O_3   0.002160 0.101520 0.050450 -0.366909
V3    V     V_3+5 0.000400 0.328340 0.009360 1.534738
V4    V     V_3+5 0.999600 0.828340 0.990640 1.534689
O21   O     O_3   0.837986 0.415921 0.787994 -0.637604
H1    H     H_    0.813520 0.508993 0.748808 0.312291
O22   O     O_3   0.162037 0.915928 0.211994 -0.637606
H2    H     H_    0.186513 0.009009 0.251170 0.312305
C37   C     C_1   0.084550 0.315516 0.769318 0.457089
N1    N     N_1   0.026586 0.400456 0.753335 -0.271945
C38   C     C_1   0.915414 0.815659 0.230646 0.457139
N2    N     N_1   0.973360 0.900667 0.246615 -0.271937
O23   O     O_3   0.756942 0.967274 0.825181 -0.630211
H3    H     H_    0.776893 0.875597 0.866792 0.296313
O24   O     O_3   0.243045 0.467237 0.174829 -0.630216
H4    H     H_    0.223108 0.375607 0.133194 0.296309
O25   O     O_3   0.656218 0.414434 0.737420 -0.640719
H5    H     H_    0.679180 0.489830 0.784159 0.307730
O26   O     O_3   0.343813 0.914353 0.262547 -0.640718
H6    H     H_    0.320861 0.989720 0.215794 0.307736
O27   O     O_3   0.743889 0.006605 0.664279 -0.625344
H7    H     H_    0.724490 0.931687 0.616549 0.306553
O28   O     O_3   0.256089 0.506668 0.335750 -0.625344
H8    H     H_    0.275483 0.431774 0.383489 0.306565
O29   O     O_3   0.418022 0.000180 0.736957 -0.602797
H9    H     H_    0.436987 0.051962 0.790614 0.332725
O30   O     O_3   0.582003 0.500011 0.263076 -0.602787
H10   H     H_    0.563015 0.551733 0.209413 0.332720
O31   O     O_3   0.241869 0.317625 0.531664 -0.640928
H11   H     H_    0.272281 0.247945 0.496607 0.276865
O32   O     O_3   0.758102 0.817810 0.468302 -0.640913
H12   H     H_    0.727720 0.748090 0.503376 0.276859
O33   O     O_3   0.352739 0.852399 0.849189 -0.620021
H13   H     H_    0.347730 0.780014 0.897405 0.343076
O34   O     O_3   0.647279 0.352290 0.150838 -0.620052
H14   H     H_    0.652204 0.280121 0.102545 0.343108
O35   O     O_3   0.136192 0.383422 0.635985 -0.627457
H15   H     H_    0.140092 0.449101 0.585804 0.352590
O36   O     O_3   0.863764 0.883613 0.363967 -0.627459
H16   H     H_    0.859847 0.949348 0.414130 0.352586
O37   O     O_3   0.251251 0.914725 0.958730 -0.649019
H17   H     H_    0.223728 0.979891 0.997561 0.287295
O38   O     O_3   0.748798 0.414520 0.041310 -0.649025
H18   H     H_    0.776277 0.479744 0.002458 0.287285

loop_
_geom_bond_atom_site_label_1
_geom_bond_atom_site_label_2
_ccdc_geom_bond_type
C18   C20   A    
O32   H12   S    
O11   V4    S    
O35   H15   S    
C9    O25   S    
O12   V3    S    
O25   H5    S    
O36   H16   S    
O1    C3    A    
O2    C4    A    
C2    O7    A    
C17   O33   S    
O29   H9    S    
O17   V3    S    
C21   C37   S    
O13   C33   A    
O18   V4    S    
O27   H7    S    
C15   C21   A    
O5    C3    A    
C4    C11   S    
C23   C25   A    
C21   C23   A    
C6    O22   S    
C2    C13   S    
C33   O18   A    
O37   H17   S    
C3    C12   S    
C18   C26   A    
O16   V4    S    
C5    O21   S    
O30   H10   S    
C8    O24   S    
C23   C31   A    
C6    C8    D    
O5    V1    S    
C16   C22   A    
O6    V2    S    
C29   C31   A    
C28   O30   S    
O21   H1    S    
C30   C32   A    
C10   O26   S    
C16   C35   S    
O14   V4    S    
C34   O17   A    
C15   C19   A    
C38   N2    T    
C16   C20   A    
O28   H8    S    
C27   O29   S    
O4    C2    A    
C13   C29   A    
O34   H14   S    
C15   C36   S    
C5    C7    D    
O19   V4    S    
O15   C35   A    
O20   V3    S    
O31   H11   S    
C5    C9    S    
O22   H2    S    
O4    V2    S    
O26   H6    S    
C8    C33   S    
C12   O28   S    
O38   H18   S    
O6    C4    A    
O1    V2    S    
C11   O27   S    
O2    V1    S    
C9    C11   D    
C10   C12   D    
C7    O23   S    
O15   V3    S    
C17   C25   A    
O3    V1    S    
C14   C30   A    
C6    C10   S    
C18   O34   S    
O3    C1    A    
C22   C38   S    
C29   O31   S    
C20   O38   S    
C24   C26   A    
O7    V1    S    
O24   H4    S    
C17   C19   A    
C32   O36   S    
O8    V2    S    
C13   C27   A    
C26   C28   A    
C7    C34   S    
C14   C28   A    
O14   C34   A    
C31   O35   S    
C22   C24   A    
C19   O37   S    
O23   H3    S    
C24   C32   A    
O13   V3    S    
C1    C14   S    
C1    O8    A    
O11   C35   A    
C25   C27   A    
C37   N1    T    
O9    V2    S    
O12   C36   A    
O10   V1    S    
C30   O32   S    
O33   H13   S    
O16   C36   A    
