data_mof_unit_7810.cif
_audit_creation_date              2012-12-11T14:28:33-0500
_audit_creation_method            fapswitch 2.2
_symmetry_space_group_name_H-M    P1
_symmetry_Int_Tables_number       1
_space_group_crystal_system       triclinic
_cell_length_a                    11.050594
_cell_length_b                    19.288822
_cell_length_c                    18.439114
_cell_angle_alpha                 90.470295
_cell_angle_beta                  90.181703
_cell_angle_gamma                 89.607112
_cell_volume                      3930.10749918

loop_
_atom_site_label
_atom_site_type_symbol
_atom_type_description
_atom_site_fract_x
_atom_site_fract_y
_atom_site_fract_z
_atom_type_partial_charge
C1    C     C_R   0.318398 0.969195 0.646351 0.515663
C2    C     C_3   0.160663 0.752454 0.041536 0.017030
C3    C     C_3   0.100427 0.188717 0.968373 -0.131883
C4    C     C_3   0.522196 0.297173 0.482739 -0.109083
C5    C     C_3   0.476644 0.284310 0.014308 -0.102966
C6    C     C_3   0.618623 0.680173 0.539932 -0.111987
C7    C     C_3   0.600428 0.688717 0.968373 -0.131889
C8    C     C_3   0.151003 0.820909 0.505652 -0.096532
C9    C     C_3   0.104936 0.805864 0.989962 -0.088848
C10   C     C_3   0.230336 0.213148 0.503258 -0.156519
C11   C     C_3   0.194608 0.229114 0.013908 -0.129863
C12   C     C_3   0.650990 0.320917 0.505654 -0.096575
C13   C     C_3   0.200104 0.283169 0.540166 0.004435
C14   C     C_3   0.604936 0.305863 0.989962 -0.088851
C15   C     C_3   0.730396 0.713261 0.503234 -0.156473
C16   C     C_3   0.694609 0.729114 0.013908 -0.129867
C17   C     C_3   0.153390 0.762683 0.560941 0.033010
C18   C     C_3   0.098346 0.749519 0.931243 0.035799
C19   C     C_3   0.148448 0.235086 0.439822 0.038777
C20   C     C_3   0.095188 0.247288 0.069239 0.047657
C21   C     C_3   0.653394 0.262684 0.560937 0.033009
C22   C     C_3   0.598345 0.249519 0.931243 0.035796
C23   C     C_3   0.648392 0.735088 0.439814 0.038742
C24   C     C_3   0.162441 0.296592 0.974268 0.009196
C25   C     C_3   0.595188 0.747288 0.069239 0.047656
C26   C     C_3   0.026961 0.739086 0.539378 -0.101805
C27   C     C_3   0.972006 0.728129 0.953979 -0.120389
C28   C     C_3   0.037846 0.201508 0.474927 -0.093900
C29   C     C_3   0.002186 0.206343 0.025193 -0.113152
C30   C     C_3   0.526981 0.239068 0.539362 -0.101958
C31   C     C_3   0.472005 0.228129 0.953978 -0.120379
C32   C     C_3   0.537922 0.701411 0.474965 -0.093882
C33   C     C_3   0.502187 0.706343 0.025193 -0.113152
C34   C     C_3   0.084373 0.689474 0.483911 -0.129830
C35   C     C_3   0.707553 0.270329 0.449965 -0.014273
C36   C     C_3   0.030451 0.674965 0.005537 -0.156836
C37   C     C_3   0.010008 0.271861 0.512104 -0.113660
C38   C     C_3   0.971101 0.274031 0.984672 -0.109810
C39   C     C_3   0.584428 0.189474 0.483894 -0.129769
C40   C     C_3   0.530450 0.174965 0.005537 -0.156840
C41   C     C_3   0.509902 0.771755 0.512116 -0.113678
C42   C     C_3   0.471101 0.774031 0.984671 -0.109801
C43   C     C_3   0.212541 0.712412 0.506390 -0.136475
C44   C     C_3   0.158680 0.696596 0.982326 -0.116556
C45   C     C_3   0.120336 0.305281 0.476218 -0.114740
C46   C     C_3   0.660662 0.252453 0.041536 0.017032
C47   C     C_3   0.064541 0.314472 0.030116 -0.124682
C48   C     C_3   0.712581 0.212430 0.506384 -0.136491
C49   C     C_3   0.658679 0.196596 0.982326 -0.116562
C50   C     C_3   0.620092 0.805269 0.476177 -0.114749
C51   C     C_3   0.564540 0.814472 0.030116 -0.124680
C52   C     C_2   0.301663 0.784424 0.393768 0.207531
C53   C     C_2   0.257338 0.764914 0.097284 0.223562
C54   C     C_2   0.282173 0.332406 0.579005 0.239715
C55   C     C_2   0.244704 0.350721 0.945477 0.243170
C56   C     C_2   0.801674 0.284464 0.393766 0.207491
C57   C     C_3   0.699983 0.783271 0.540112 0.004568
C58   C     C_2   0.757338 0.264912 0.097283 0.223557
C59   C     C_2   0.781929 0.832638 0.578861 0.239701
C60   C     C_2   0.744704 0.850722 0.945478 0.243172
C61   C     C_2   0.772792 0.043963 0.434460 0.198087
C62   C     C_2   0.768977 0.025773 0.080554 0.183824
C63   C     C_2   0.746738 0.056469 0.603661 0.205413
C64   C     C_2   0.756107 0.046833 0.913188 0.217445
C65   C     C_2   0.272787 0.543963 0.434468 0.198066
C66   C     C_2   0.268977 0.525771 0.080553 0.183826
C67   C     C_2   0.246744 0.556440 0.603672 0.205356
C68   C     C_3   0.662442 0.796592 0.974268 0.009200
C69   C     C_2   0.256106 0.546834 0.913188 0.217442
C70   C     C_3   0.081452 0.747655 0.427932 0.023679
C71   C     C_3   0.034801 0.730677 0.064258 0.025581
C72   C     C_3   0.090570 0.250152 0.575724 0.056415
C73   C     C_R   0.318710 0.967888 0.855031 0.518724
C74   C     C_3   0.070617 0.256445 0.929369 0.052611
C75   C     C_3   0.581484 0.247661 0.427922 0.023758
C76   C     C_3   0.534800 0.230677 0.064258 0.025582
C77   C     C_3   0.590582 0.750158 0.575725 0.056397
C78   C     C_3   0.570618 0.756445 0.929369 0.052616
C79   C     C_R   0.336202 0.994907 0.422752 0.037068
C80   C     C_R   0.335835 0.987487 0.081458 0.021793
C81   C     C_R   0.320003 0.002180 0.574224 -0.033187
C82   C     C_R   0.321462 0.995383 0.930042 -0.038385
C83   C     C_R   0.836195 0.494916 0.422759 0.037112
C84   C     C_R   0.322325 0.030416 0.352869 0.531589
C85   C     C_R   0.835835 0.487487 0.081458 0.021792
C86   C     C_R   0.820000 0.502190 0.574230 -0.033232
C87   C     C_R   0.821462 0.495383 0.930041 -0.038388
C88   C     C_R   0.559707 0.005288 0.434470 -0.080058
C89   C     C_R   0.556888 0.996070 0.073459 -0.138512
C90   C     C_R   0.534726 0.030171 0.582028 -0.122049
C91   C     C_R   0.538918 0.020660 0.925778 -0.073328
C92   C     C_R   0.059699 0.505296 0.434475 -0.079983
C93   C     C_R   0.056888 0.496070 0.073458 -0.138510
C94   C     C_R   0.034723 0.530174 0.582035 -0.122025
C95   C     C_R   0.321885 0.028679 0.148491 0.529294
C96   C     C_R   0.038917 0.520660 0.925778 -0.073333
C97   C     C_R   0.661911 0.025926 0.475206 -0.001966
C98   C     C_R   0.659873 0.015890 0.035569 -0.032168
C99   C     C_R   0.649117 0.037175 0.551322 -0.032058
C100  C     C_R   0.651826 0.027444 0.959582 0.019096
C101  C     C_R   0.161904 0.525931 0.475212 -0.001933
C102  C     C_R   0.159873 0.515889 0.035568 -0.032168
C103  C     C_R   0.149114 0.537173 0.551330 -0.031991
C104  C     C_R   0.151826 0.527445 0.959582 0.019095
C105  C     C_R   0.432745 0.011664 0.540745 -0.021029
C106  C     C_R   0.818397 0.469197 0.646353 0.515648
C107  C     C_R   0.434637 0.002181 0.964690 -0.043725
C108  C     C_R   0.443136 0.003446 0.465227 -0.025538
C109  C     C_R   0.442714 0.993943 0.040224 -0.022891
C110  C     C_R   0.932741 0.511673 0.540751 -0.021043
C111  C     C_R   0.934637 0.502182 0.964690 -0.043725
C112  C     C_R   0.943129 0.503454 0.465233 -0.025507
C113  C     C_R   0.942714 0.493943 0.040223 -0.022892
C114  C     C_R   0.213586 0.997176 0.530359 -0.030796
C115  C     C_R   0.215061 0.988200 0.973352 -0.015487
C116  C     C_R   0.226811 0.980631 0.456815 0.029778
C117  C     C_R   0.818710 0.467888 0.855031 0.518716
C118  C     C_R   0.228026 0.971255 0.046643 0.037307
C119  C     C_R   0.713581 0.497192 0.530367 -0.030798
C120  C     C_R   0.715061 0.488200 0.973352 -0.015484
C121  C     C_R   0.726803 0.480645 0.456824 0.029795
C122  C     C_R   0.728025 0.471255 0.046643 0.037307
C123  C     C_R   0.094173 0.999831 0.558227 -0.066618
C124  C     C_R   0.095599 0.993185 0.945888 -0.085155
C125  C     C_R   0.127457 0.953915 0.416988 -0.042984
C126  C     C_R   0.128788 0.945850 0.086253 -0.029963
C127  C     C_R   0.594169 0.499856 0.558236 -0.066615
C128  C     C_R   0.822323 0.530418 0.352871 0.531599
C129  C     C_R   0.595599 0.493185 0.945888 -0.085155
C130  C     C_R   0.627445 0.453927 0.417001 -0.042972
C131  C     C_R   0.628788 0.445850 0.086253 -0.029964
C132  C     C_R   0.997035 0.975514 0.517582 -0.112716
C133  C     C_R   0.999069 0.966929 0.984889 -0.082661
C134  C     C_R   0.013098 0.953358 0.446732 -0.138696
C135  C     C_R   0.015031 0.943827 0.055309 -0.092019
C136  C     C_R   0.497029 0.475532 0.517597 -0.112853
C137  C     C_R   0.499068 0.466929 0.984889 -0.082663
C138  C     C_R   0.513090 0.453367 0.446750 -0.138721
C139  C     C_R   0.821886 0.528679 0.148491 0.529297
C140  C     C_R   0.515031 0.443827 0.055309 -0.092020
C141  C     C_R   0.185935 0.771212 0.636709 0.551943
C142  C     C_R   0.137336 0.758632 0.857344 0.563469
C143  C     C_R   0.182968 0.228919 0.363751 0.562550
C144  C     C_R   0.131726 0.242341 0.144529 0.562833
C145  C     C_R   0.685933 0.271211 0.636708 0.551975
C146  C     C_R   0.637335 0.258632 0.857343 0.563512
C147  C     C_R   0.682945 0.728923 0.363751 0.562531
C148  C     C_R   0.631726 0.742341 0.144529 0.562834
C149  C     C_R   0.546711 0.768049 0.647330 0.557933
C150  C     C_3   0.207532 0.770305 0.449965 -0.014309
C151  C     C_R   0.543161 0.769507 0.854423 0.560901
C152  C     C_R   0.541508 0.230111 0.355432 0.542548
C153  C     C_R   0.500438 0.213862 0.137174 0.548480
C154  C     C_R   0.046706 0.268049 0.647328 0.558085
C155  C     C_R   0.043161 0.269507 0.854424 0.560950
C156  C     C_R   0.041492 0.730106 0.355439 0.542561
C157  C     C_R   0.000439 0.713862 0.137174 0.548479
C158  C     C_3   0.022194 0.797184 0.482746 -0.108902
C159  C     C_3   0.976644 0.784310 0.014308 -0.102965
C160  C     C_3   0.118427 0.180157 0.539904 -0.111985
Cr1   Cr    Cr6+3 0.488160 0.884660 0.750000 1.069656
Cr2   Cr    Cr6+3 0.333410 0.272740 0.250000 1.015112
Cr3   Cr    Cr6+3 0.833410 0.227260 0.750000 1.064196
Cr4   Cr    Cr6+3 0.833410 0.772740 0.250000 1.015115
Cr5   Cr    Cr6+3 0.488160 0.115340 0.250000 1.032618
Cr6   Cr    Cr6+3 0.988160 0.384660 0.750000 1.069654
Cr7   Cr    Cr6+3 0.988160 0.615340 0.250000 1.032632
Cr8   Cr    Cr6+3 0.173480 0.883120 0.750000 1.071818
Cr9   Cr    Cr6+3 0.173480 0.116880 0.250000 1.052516
Cr10  Cr    Cr6+3 0.673480 0.383120 0.750000 1.071752
Cr11  Cr    Cr6+3 0.673480 0.616880 0.250000 1.052511
Cr12  Cr    Cr6+3 0.333410 0.727260 0.750000 1.064212
H1    H     H_    0.188972 0.869307 0.525892 0.143642
H2    H     H_    0.912564 0.962693 0.959564 0.141027
H3    H     H_    0.937629 0.933986 0.415265 0.149553
H4    H     H_    0.939971 0.923783 0.085899 0.105252
H5    H     H_    0.409136 0.472654 0.541498 0.150012
H6    H     H_    0.412564 0.462693 0.959564 0.141019
H7    H     H_    0.437619 0.433990 0.415287 0.149547
H8    H     H_    0.439971 0.423783 0.085899 0.105249
H9    H     H_    0.939979 0.827306 0.469317 0.114560
H10   H     H_    0.904136 0.817771 0.036223 0.120173
H11   H     H_    0.117814 0.131906 0.571258 0.138381
H12   H     H_    0.145993 0.855382 0.975006 0.151482
H13   H     H_    0.116563 0.138222 0.940934 0.120185
H14   H     H_    0.439979 0.327288 0.469295 0.114401
H15   H     H_    0.404136 0.317771 0.036222 0.120174
H16   H     H_    0.618230 0.631931 0.571311 0.138203
H17   H     H_    0.616565 0.638222 0.940934 0.120179
H18   H     H_    0.959050 0.722760 0.579695 0.174014
H19   H     H_    0.897539 0.716895 0.915209 0.158190
H20   H     H_    0.973091 0.167977 0.445301 0.126822
H21   H     H_    0.935463 0.172272 0.049747 0.187074
H22   H     H_    0.459080 0.222704 0.579666 0.173982
H23   H     H_    0.317586 0.185873 0.494881 0.095837
H24   H     H_    0.397538 0.216895 0.915209 0.158217
H25   H     H_    0.473236 0.667811 0.445372 0.126897
H26   H     H_    0.435464 0.672271 0.049747 0.187076
H27   H     H_    0.043988 0.638864 0.471809 0.144767
H28   H     H_    0.991447 0.624529 0.018202 0.136441
H29   H     H_    0.921774 0.298048 0.520930 0.131874
H30   H     H_    0.880066 0.293236 0.968660 0.136499
H31   H     H_    0.544061 0.138862 0.471782 0.144798
H32   H     H_    0.491445 0.124529 0.018202 0.136441
H33   H     H_    0.421615 0.797871 0.520967 0.131755
H34   H     H_    0.281244 0.206204 0.031903 0.103291
H35   H     H_    0.380067 0.793235 0.968660 0.136499
H36   H     H_    0.294073 0.681101 0.516280 0.170434
H37   H     H_    0.240762 0.666441 0.969731 0.141038
H38   H     H_    0.120858 0.356666 0.449555 0.152318
H39   H     H_    0.047954 0.363742 0.059034 0.145668
H40   H     H_    0.794118 0.181128 0.516294 0.170421
H41   H     H_    0.740760 0.166440 0.969730 0.141035
H42   H     H_    0.620423 0.856639 0.449479 0.152432
H43   H     H_    0.547952 0.863742 0.059033 0.145668
H44   H     H_    0.571375 0.992181 0.377798 0.195670
H45   H     H_    0.688920 0.369322 0.525905 0.143649
H46   H     H_    0.566125 0.982614 0.130166 0.137749
H47   H     H_    0.523967 0.043273 0.638936 0.129655
H48   H     H_    0.531112 0.035446 0.869473 0.175823
H49   H     H_    0.071368 0.492187 0.377804 0.195681
H50   H     H_    0.066126 0.482614 0.130166 0.137751
H51   H     H_    0.023969 0.543273 0.638944 0.129653
H52   H     H_    0.031111 0.535447 0.869473 0.175818
H53   H     H_    0.138571 0.933783 0.362332 0.163065
H54   H     H_    0.139561 0.928164 0.141567 0.163554
H55   H     H_    0.074119 0.020289 0.611654 0.175906
H56   H     H_    0.645993 0.355382 0.975006 0.151481
H57   H     H_    0.075042 0.016216 0.893998 0.153267
H58   H     H_    0.638555 0.433791 0.362346 0.163066
H59   H     H_    0.639562 0.428164 0.141566 0.163554
H60   H     H_    0.574125 0.520320 0.611663 0.175893
H61   H     H_    0.575042 0.516216 0.893998 0.153261
H62   H     H_    0.330938 0.743018 0.357605 0.141127
H63   H     H_    0.289394 0.722417 0.130483 0.154426
H64   H     H_    0.292374 0.384065 0.558203 0.080108
H65   H     H_    0.253274 0.398508 0.975422 0.078085
H66   H     H_    0.830939 0.243068 0.357587 0.141096
H67   H     H_    0.817691 0.686052 0.494816 0.095799
H68   H     H_    0.789396 0.222413 0.130481 0.154417
H69   H     H_    0.791647 0.884355 0.558105 0.080159
H70   H     H_    0.753278 0.898507 0.975426 0.078091
H71   H     H_    0.846623 0.070901 0.459960 0.162927
H72   H     H_    0.777246 0.999286 0.132101 0.121882
H73   H     H_    0.732379 0.048182 0.661180 0.157479
H74   H     H_    0.838090 0.068089 0.935956 0.148781
H75   H     H_    0.346625 0.570886 0.459976 0.162881
H76   H     H_    0.277250 0.499280 0.132098 0.121877
H77   H     H_    0.232421 0.548086 0.661183 0.157422
H78   H     H_    0.781244 0.706204 0.031903 0.103292
H79   H     H_    0.338091 0.568088 0.935956 0.148781
H80   H     H_    0.909146 0.972632 0.541484 0.150119
O1    O     O_R   0.575450 0.828820 0.667950 -0.484183
O2    O     O_R   0.416860 0.942890 0.825320 -0.500544
O3    O     O_R   0.416860 0.057110 0.325320 -0.516526
O4    O     O_R   0.416860 0.057110 0.174680 -0.523224
O5    O     O_R   0.916860 0.442890 0.674680 -0.506561
O6    O     O_R   0.916860 0.442890 0.825320 -0.500550
O7    O     O_R   0.916860 0.557110 0.325320 -0.516531
O8    O     O_R   0.916860 0.557110 0.174680 -0.523223
O9    O     O_R   0.213790 0.953680 0.668330 -0.538170
O10   O     O_R   0.213790 0.953680 0.831670 -0.526424
O11   O     O_R   0.213790 0.046320 0.331670 -0.522131
O12   O     O_R   0.575450 0.828820 0.832050 -0.455396
O13   O     O_R   0.213790 0.046320 0.168330 -0.509090
O14   O     O_R   0.713790 0.453680 0.668330 -0.538201
O15   O     O_R   0.713790 0.453680 0.831670 -0.526431
O16   O     O_R   0.713790 0.546320 0.331670 -0.522143
O17   O     O_R   0.713790 0.546320 0.168330 -0.509089
O18   O     O_R   0.121360 0.817890 0.672660 -0.460864
O19   O     O_R   0.121360 0.817890 0.827340 -0.474112
O20   O     O_R   0.121360 0.182110 0.327340 -0.495064
O21   O     O_R   0.121360 0.182110 0.172660 -0.486334
O22   O     O_R   0.621360 0.317890 0.672660 -0.460923
O23   O     O_R   0.575450 0.171180 0.332050 -0.499860
O24   O     O_R   0.621360 0.317890 0.827340 -0.474086
O25   O     O_R   0.621360 0.682110 0.327340 -0.495074
O26   O     O_R   0.621360 0.682110 0.172660 -0.486332
O27   O     O_R   0.206850 0.711370 0.665820 -0.492792
O28   O     O_R   0.206850 0.711370 0.834180 -0.507551
O29   O     O_R   0.206850 0.288630 0.334180 -0.510231
O30   O     O_R   0.206850 0.288630 0.165820 -0.537566
O31   O     O_R   0.706850 0.211370 0.665820 -0.492826
O32   O     O_R   0.706850 0.211370 0.834180 -0.507556
O33   O     O_R   0.706850 0.788630 0.334180 -0.510246
O34   O     O_R   0.575450 0.171180 0.167950 -0.511770
O35   O     O_R   0.706850 0.788630 0.165820 -0.537567
O36   O     O_R   0.457710 0.733190 0.672630 -0.511932
O37   O     O_R   0.457710 0.733190 0.827370 -0.521931
O38   O     O_R   0.457710 0.266810 0.327370 -0.522694
O39   O     O_R   0.457710 0.266810 0.172630 -0.510338
O40   O     O_R   0.957710 0.233190 0.672630 -0.511987
O41   O     O_R   0.957710 0.233190 0.827370 -0.521930
O42   O     O_R   0.957710 0.766810 0.327370 -0.522693
O43   O     O_R   0.957710 0.766810 0.172630 -0.510333
O44   O     O_3   0.331690 0.831680 0.750000 -0.314174
O45   O     O_R   0.075450 0.328820 0.667950 -0.484118
O46   O     O_3   0.331690 0.168320 0.250000 -0.308344
O47   O     O_3   0.831690 0.331680 0.750000 -0.314171
O48   O     O_3   0.831690 0.668320 0.250000 -0.308339
O49   O     O_2   0.345631 0.841888 0.388202 -0.535372
O50   O     O_2   0.299316 0.822585 0.106502 -0.553642
O51   O     O_2   0.333080 0.315796 0.635100 -0.475296
O52   O     O_2   0.304099 0.340728 0.890659 -0.474948
O53   O     O_2   0.845640 0.341929 0.388214 -0.535353
O54   O     O_2   0.799316 0.322585 0.106502 -0.553639
O55   O     O_2   0.833193 0.816083 0.634862 -0.475418
O56   O     O_R   0.075450 0.328820 0.832050 -0.455376
O57   O     O_2   0.804095 0.840732 0.890659 -0.474984
O58   O     O_2   0.781788 0.030843 0.369756 -0.537122
O59   O     O_2   0.847483 0.066168 0.063850 -0.581574
O60   O     O_2   0.841097 0.083423 0.585706 -0.582715
O61   O     O_2   0.751404 0.039783 0.847334 -0.513578
O62   O     O_2   0.281777 0.530855 0.369762 -0.537113
O63   O     O_2   0.347481 0.566170 0.063852 -0.581570
O64   O     O_2   0.341075 0.583438 0.585728 -0.582608
O65   O     O_2   0.251402 0.539788 0.847334 -0.513593
O66   O     O_R   0.075450 0.671180 0.332050 -0.499839
O67   O     O_R   0.075450 0.671180 0.167950 -0.511765
O68   O     O_R   0.416860 0.942890 0.674680 -0.506553

loop_
_geom_bond_atom_site_label_1
_geom_bond_atom_site_label_2
_ccdc_geom_bond_type
C6    C32   S    
Cr7   O67   S    
C20   C144  S    
C70   C150  S    
C83   C128  S    
C52   H62   S    
Cr6   O47   S    
C66   H76   S    
C66   O63   D    
C139  O17   A    
C124  C133  A    
Cr1   O68   S    
C56   H66   S    
C86   C110  A    
C53   O50   D    
C146  O24   A    
C88   C108  A    
C57   C59   S    
C123  H55   S    
C6    H16   S    
C76   C153  S    
C69   O65   D    
C3    C74   S    
C131  C140  A    
C48   H40   S    
C154  O45   A    
C86   C119  A    
C11   H34   S    
C91   C100  A    
C4    C12   S    
C88   C97   A    
Cr2   O46   S    
C36   C71   S    
C21   C48   S    
C43   H36   S    
C101  C103  A    
C7    C33   S    
C126  H54   S    
Cr7   O7    S    
C147  O25   A    
C71   C157  S    
C137  C140  A    
C11   C20   S    
C72   C154  S    
Cr6   O5    S    
C91   C107  A    
C127  C136  A    
C141  O27   A    
Cr2   O39   S    
C40   C76   S    
C8    C150  S    
C17   C43   S    
C32   H25   S    
C18   C44   S    
Cr3   O47   S    
C115  C118  A    
C139  O8    A    
C42   H35   S    
C111  C113  A    
C141  O18   A    
C55   H65   S    
C151  O12   A    
C22   C49   S    
Cr4   O33   S    
C96   C104  A    
C36   C44   S    
C37   C45   S    
C2    C71   S    
C130  C138  A    
C10   C160  S    
Cr6   O45   S    
C13   C54   S    
C16   C25   S    
Cr4   O35   S    
Cr10  O15   S    
C8    H1    S    
C50   C57   S    
C52   O49   D    
C152  O38   A    
C90   C105  A    
C2    C53   S    
Cr11  O48   S    
C13   C72   S    
C8    C17   S    
Cr5   O4    S    
C5    C76   S    
C9    H12   S    
C13   C45   S    
C29   H21   S    
C140  H8    S    
C79   C108  A    
C26   C158  S    
C20   C47   S    
C3    C11   S    
C69   H79   S    
C73   O2    A    
C129  C137  A    
C67   O64   D    
C132  C134  A    
C38   H30   S    
C133  C135  A    
C83   C112  A    
Cr8   O10   S    
Cr4   O43   S    
C61   H71   S    
C47   H39   S    
C123  C132  A    
C64   O61   D    
C54   H64   S    
C121  C130  A    
C59   O55   D    
C67   C103  S    
C85   C122  A    
C33   C42   S    
C82   C115  A    
C56   O53   D    
C79   C84   S    
Cr12  O36   S    
C55   O52   D    
C149  O1    A    
C40   C49   S    
Cr9   O11   S    
C44   H37   S    
C3    C29   S    
C63   C99   S    
C40   H32   S    
C2    C44   S    
C156  O66   A    
C29   C38   S    
C32   C41   S    
C157  O67   A    
C39   C75   S    
Cr3   O40   S    
C46   C58   S    
C86   C106  S    
C138  H7    S    
C3    H13   S    
C15   H67   S    
Cr1   O2    S    
C78   C151  S    
C119  C121  A    
C63   H73   S    
C96   C111  A    
C81   C105  A    
C143  O29   A    
C120  C129  A    
Cr8   O19   S    
C142  O28   A    
C136  H5    S    
C80   C95   S    
C14   H56   S    
C38   C47   S    
C64   H74   S    
C12   C35   S    
C19   C28   S    
C43   C150  S    
C114  C123  A    
C116  C125  A    
Cr1   O44   S    
C145  O31   A    
C122  C131  A    
C146  O32   A    
C38   C74   S    
Cr2   O29   S    
C131  H59   S    
C37   H29   S    
C35   C56   S    
C34   C43   S    
Cr11  O25   S    
C54   O51   D    
C114  C116  A    
C19   C45   S    
C60   H70   S    
C89   C98   A    
C135  H4    S    
C14   C22   S    
C85   C113  A    
C145  O22   A    
C117  O6    A    
C61   O58   D    
C33   H26   S    
C127  H60   S    
C148  O26   A    
C30   C39   S    
C158  H9    S    
C110  C112  A    
Cr12  O27   S    
C147  O33   A    
C9    C18   S    
Cr3   O32   S    
Cr9   O20   S    
C52   C150  S    
C63   O60   D    
C2    C9    S    
C95   O4    A    
C25   C33   S    
C119  C127  A    
C125  C134  A    
Cr7   O48   S    
C39   H31   S    
C90   C99   A    
C8    C158  S    
Cr4   O42   S    
C14   C46   S    
C46   C49   S    
Cr6   O6    S    
C92   H49   S    
C87   C117  S    
C95   O13   A    
C87   C111  A    
C130  H58   S    
C1    C81   S    
C31   C40   S    
C17   C141  S    
C91   H48   S    
C142  O19   A    
C4    C75   S    
C89   H46   S    
C137  H6    S    
C80   C109  A    
C106  O5    A    
C93   H50   S    
C65   C101  S    
Cr9   O46   S    
C34   C70   S    
C160  H11   S    
C124  H57   S    
C107  C109  A    
C125  H53   S    
C35   C48   S    
C46   C76   S    
Cr3   O41   S    
C68   C78   S    
C80   C118  A    
C106  O14   A    
Cr6   O56   S    
C134  H3    S    
C128  O7    A    
C57   C77   S    
Cr9   O21   S    
C77   C149  S    
C60   O57   D    
C92   C112  A    
C23   C50   S    
C23   C147  S    
C94   C110  A    
C144  O21   A    
Cr5   O3    S    
C21   C145  S    
C41   C50   S    
Cr8   O18   S    
C10   C19   S    
C84   O3    A    
C128  O16   A    
Cr11  O16   S    
C93   C113  A    
C5    C14   S    
C117  O15   A    
Cr11  O26   S    
C92   C101  A    
C7    C16   S    
C94   C103  A    
C98   C100  A    
C144  O30   A    
C149  O36   A    
Cr7   O8    S    
C5    H15   S    
C12   H45   S    
Cr12  O44   S    
C51   H43   S    
C115  C124  A    
Cr9   O13   S    
C61   C97   S    
C36   H28   S    
Cr2   O38   S    
C152  O23   A    
C93   C102  A    
C62   H72   S    
C27   C36   S    
C21   C30   S    
C156  O42   A    
C23   C32   S    
C157  O43   A    
C30   H22   S    
C153  O39   A    
C154  O40   A    
C74   C155  S    
C25   C148  S    
C159  H10   S    
Cr10  O47   S    
C64   C100  S    
C155  O56   A    
C60   C68   S    
C37   C72   S    
C153  O34   A    
Cr7   O66   S    
C9    C159  S    
C7    H17   S    
C70   C158  S    
C27   C159  S    
C39   C48   S    
Cr10  O14   S    
C66   C102  S    
C28   C160  S    
Cr10  O24   S    
Cr1   O1    S    
C26   H18   S    
C24   C55   S    
C35   C75   S    
C155  O41   A    
C70   C156  S    
C17   C26   S    
C28   C37   S    
C41   C77   S    
C31   H24   S    
Cr12  O37   S    
C50   H42   S    
C1    O68   A    
C89   C109  A    
C11   C24   S    
C6    C15   S    
C62   C98   S    
C34   H27   S    
C26   C34   S    
C96   H52   S    
C148  O35   A    
C84   O11   A    
C16   C68   S    
C133  H2    S    
C85   C139  S    
C42   C51   S    
C15   C23   S    
C65   H75   S    
C79   C116  A    
C15   C57   S    
C27   H19   S    
C58   H68   S    
C28   H20   S    
C97   C99   A    
C120  C122  A    
C20   C29   S    
Cr2   O30   S    
C105  C108  A    
Cr8   O44   S    
C22   C31   S    
C143  O20   A    
C22   C146  S    
C18   C142  S    
C136  C138  A    
Cr5   O46   S    
C16   H78   S    
C65   O62   D    
C6    C77   S    
C62   O59   D    
C12   C21   S    
Cr5   O23   S    
C129  H61   S    
C151  O37   A    
Cr5   O34   S    
C81   C114  A    
C25   C51   S    
C49   H41   S    
C75   C152  S    
C73   C82   S    
C82   C107  A    
C83   C121  A    
C102  C104  A    
C90   H47   S    
Cr12  O28   S    
C7    C78   S    
C1    O9    A    
Cr3   O31   S    
C42   C78   S    
C94   H51   S    
Cr11  O17   S    
Cr10  O22   S    
C67   H77   S    
C73   O10   A    
C132  H80   S    
Cr8   O9    S    
C69   C104  S    
C53   H63   S    
C19   C143  S    
C88   H44   S    
C24   C47   S    
C18   C27   S    
C10   C13   S    
C126  C135  A    
C71   C159  S    
C45   H38   S    
C72   C160  S    
C59   H69   S    
C87   C120  A    
C58   O54   D    
C10   H23   S    
C4    H14   S    
Cr1   O12   S    
C24   C74   S    
C51   C68   S    
C41   H33   S    
Cr4   O48   S    
C118  C126  A    
C4    C30   S    
C5    C31   S    
