data_mof_unit_24898.cif
_audit_creation_date              2013-03-05T16:14:05-0500
_audit_creation_method            fapswitch 2.2
_symmetry_space_group_name_H-M    P1
_symmetry_Int_Tables_number       1
_space_group_crystal_system       triclinic
_cell_length_a                    9.828079
_cell_length_b                    10.664179
_cell_length_c                    16.884313
_cell_angle_alpha                 89.486716
_cell_angle_beta                  94.541046
_cell_angle_gamma                 90.32394
_cell_volume                      1763.97017739

loop_
_atom_site_label
_atom_site_type_symbol
_atom_site_description
_atom_site_fract_x
_atom_site_fract_y
_atom_site_fract_z
_atom_type_partial_charge
O1    O     O_R   0.614620 0.316750 0.500010 -0.593605
O2    O     O_R   0.385380 0.683250 0.499990 -0.594426
O3    O     O_R   0.385290 0.316780 0.500000 -0.623899
O4    O     O_R   0.614710 0.683220 0.500000 -0.626127
C1    C     C_R   0.499191 0.260183 0.497520 0.953529
C2    C     C_R   0.500799 0.739822 0.502453 0.950837
O5    O     O_R   0.627460 0.498830 0.616130 -0.632841
O6    O     O_R   0.372540 0.501170 0.383870 -0.632952
O7    O     O_R   0.398130 0.498850 0.616130 -0.610232
O8    O     O_R   0.601870 0.501150 0.383870 -0.605742
C3    C     C_R   0.517786 0.498244 0.653345 0.938474
C4    C     C_R   0.482224 0.505415 0.346759 0.951151
Zn1   Zn    Zn3+2 0.653130 0.499980 0.500000 1.007160
Zn2   Zn    Zn3+2 0.346870 0.500020 0.500000 1.007605
C5    C     C_R   0.528166 0.502843 0.739442 -0.085866
C6    C     C_R   0.471708 0.525835 0.261446 -0.105257
C7    C     C_R   0.408599 0.503626 0.779060 -0.157115
C8    C     C_R   0.590021 0.552678 0.223528 -0.175997
C9    C     C_R   0.416082 0.514898 0.860463 -0.158730
C10   C     C_R   0.581644 0.574688 0.142764 -0.166669
C11   C     C_R   0.543918 0.526121 0.903861 0.214151
C12   C     C_R   0.454533 0.567864 0.098212 0.202096
C13   C     C_R   0.664601 0.521414 0.864649 0.391030
C14   C     C_R   0.334419 0.548843 0.136669 0.416591
C15   C     C_R   0.656064 0.510572 0.782259 -0.298926
C16   C     C_R   0.343808 0.526734 0.218333 -0.267597
N1    N     N_2   0.553883 0.535568 0.987205 -0.118678
N2    N     N_2   0.446126 0.569178 0.014619 -0.115863
H1    H     H_    0.689490 0.556323 0.256063 0.189396
H2    H     H_    0.308735 0.496525 0.747249 0.192556
H3    H     H_    0.675167 0.593388 0.114733 0.206635
H4    H     H_    0.321512 0.514202 0.889339 0.227250
H5    H     H_    0.748617 0.509357 0.751532 0.199278
H6    H     H_    0.251909 0.508780 0.248046 0.219370
C17   C     C_R   0.414037 0.066162 0.546554 -0.277579
C18   C     C_R   0.585845 0.933833 0.453307 -0.276612
H7    H     H_    0.351438 0.118987 0.584414 0.194068
H8    H     H_    0.648407 0.880985 0.415436 0.194259
C19   C     C_R   0.416906 0.937315 0.552660 0.329127
C20   C     C_R   0.582969 0.062696 0.447194 0.327734
C21   C     C_R   0.502566 0.872230 0.504568 -0.196856
C22   C     C_R   0.497375 0.127774 0.495334 -0.198665
C23   C     C_R   0.065433 0.575302 0.448573 -0.019895
C24   C     C_R   0.934568 0.424708 0.551429 -0.027767
H9    H     H_    0.114856 0.635438 0.407485 0.140854
H10   H     H_    0.885148 0.364570 0.592515 0.134122
C25   C     C_R   0.921448 0.575289 0.448602 -0.024569
C26   C     C_R   0.078550 0.424723 0.551401 -0.031719
H11   H     H_    0.861547 0.635463 0.407550 0.132487
H12   H     H_    0.138448 0.364551 0.592453 0.132136
N3    N     N_R   0.857210 0.499970 0.500020 -0.089780
N4    N     N_R   0.142790 0.500030 0.499980 -0.090525
S1    S     S_3+6 0.826261 0.530948 0.918209 0.085123
O9    O     O_2   0.836900 0.653104 0.961982 -0.218987
O10   O     O_2   0.840254 0.425182 0.977703 -0.264951
O11   O     O_3   0.953234 0.523386 0.857193 -0.497612
H13   H     H_    0.959114 0.433621 0.843322 0.356160
S2    S     S_3+6 0.172889 0.544823 0.082729 0.097957
O12   O     O_2   0.158897 0.657081 0.028268 -0.215361
O13   O     O_2   0.161832 0.427468 0.033979 -0.228990
O14   O     O_3   0.047711 0.545974 0.145175 -0.549601
H14   H     H_    0.961926 0.552246 0.110460 0.418123
N5    N     N_R   0.337909 0.875061 0.609693 0.220896
O15   O     O_R   0.390770 0.783977 0.653524 -0.380940
O16   O     O_R   0.221064 0.920896 0.626120 -0.357925
N6    N     N_R   0.661895 0.124970 0.390126 0.221146
O17   O     O_R   0.609236 0.216482 0.346584 -0.375751
O18   O     O_R   0.778476 0.078887 0.373425 -0.356694

loop_
_geom_bond_atom_site_label_1
_geom_bond_atom_site_label_2
_geom_bond_distance
_ccdc_geom_bond_type
N6    O18   1.301461 A    
O7    Zn2   1.985400 S    
N5    O16   1.301450 A    
Zn2   N4    2.005688 S    
O7    C3    1.288730 A    
C17   C19   1.377270 A    
O5    Zn1   1.996573 S    
O6    C4    1.289421 A    
O3    C1    1.278547 A    
S2    O14   1.682612 S    
C18   H8    1.084969 S    
N6    O17   1.301268 A    
C11   N1    1.407323 S    
O8    Zn1   1.985400 S    
C25   H11   1.081887 S    
C8    H1    1.083457 S    
C12   N2    1.407218 S    
S1    O9    1.502545 D    
O5    C3    1.289879 A    
C7    H2    1.083480 S    
C23   H9    1.081829 S    
C18   C21   1.395163 A    
O2    C2    1.279721 A    
O3    Zn2   1.992348 S    
O8    C4    1.288734 A    
O6    Zn2   1.996573 S    
O1    C1    1.279761 A    
C9    H4    1.083166 S    
C24   N3    1.365856 A    
C26   H12   1.081853 S    
C7    C9    1.376866 A    
C14   C16   1.392681 A    
C13   S1    1.767696 S    
C8    C10   1.377719 A    
S1    O10   1.503239 D    
C11   C13   1.404723 A    
C6    C16   1.401848 A    
O14   H14   0.990230 S    
O2    Zn2   1.988213 S    
C12   C14   1.404508 A    
C23   N4    1.365888 A    
C5    C15   1.401946 A    
O4    C2    1.278602 A    
O1    Zn1   1.988215 S    
S2    O13   1.502770 D    
N5    O15   1.301168 A    
C14   S2    1.767072 S    
C4    C6    1.450537 S    
C3    C5    1.450440 S    
C26   N4    1.365987 A    
C13   C15   1.392785 A    
C19   N5    1.439414 S    
O11   H13   0.990628 S    
C1    C22   1.412815 S    
C19   C21   1.405277 A    
C15   H5    1.082444 S    
S1    O11   1.682638 S    
C2    C21   1.412776 S    
N1    N2    1.244660 D    
C5    C7    1.397536 A    
C17   C22   1.395112 A    
C18   C20   1.377449 A    
C20   N6    1.439532 S    
C24   H10   1.081805 S    
C17   H7    1.084954 S    
S2    O12   1.503239 D    
Zn1   N3    2.005688 S    
C23   C25   1.415136 A    
C16   H6    1.082680 S    
C6    C8    1.398112 A    
C25   N3    1.366018 A    
C24   C26   1.415105 A    
O4    Zn1   1.992345 S    
C10   C12   1.408172 A    
C20   C22   1.405329 A    
C9    C11   1.408489 A    
C10   H3    1.083391 S    
