data_mof_unit_29449.cif
_audit_creation_date              2012-10-26T19:05:04-0400
_audit_creation_method            fapswitch 2.2
_symmetry_space_group_name_H-M    P1
_symmetry_Int_Tables_number       1
_space_group_crystal_system       triclinic
_cell_length_a                    15.871052
_cell_length_b                    10.774262
_cell_length_c                    9.633327
_cell_angle_alpha                 90.463465
_cell_angle_beta                  91.390197
_cell_angle_gamma                 92.817447
_cell_volume                      1644.74149406

loop_
_atom_site_label
_atom_site_type_symbol
_atom_type_description
_atom_site_fract_x
_atom_site_fract_y
_atom_site_fract_z
_atom_type_partial_charge
C1    C     C_R   0.494947 0.262681 0.499336 0.539618
C2    C     C_R   0.328773 0.060148 0.774365 -0.125751
C3    C     C_R   0.333187 0.931657 0.785936 0.009033
C4    C     C_R   0.340408 0.496218 0.498190 0.536995
C5    C     C_R   0.382374 0.867229 0.693092 -0.099602
C6    C     C_R   0.433810 0.931711 0.596158 0.011281
C7    C     C_R   0.432077 0.062839 0.590835 0.023512
C8    C     C_R   0.485326 0.128384 0.497661 0.000821
C9    C     C_R   0.532289 0.065089 0.402185 -0.160578
C10   C     C_R   0.531424 0.937470 0.403265 -0.160584
C11   C     C_R   0.485766 0.870247 0.501831 0.000061
C12   C     C_3   0.950621 0.379931 0.612329 -0.074467
C13   C     C_R   0.612358 0.667970 0.147897 -0.080974
C14   C     C_R   0.666964 0.750432 0.077196 -0.029938
C15   C     C_R   0.664955 0.748351 0.933396 -0.161874
C16   C     C_R   0.494279 0.736709 0.500676 0.529250
C17   C     C_R   0.611349 0.664850 0.860741 -0.099178
C18   C     C_R   0.554990 0.581276 0.927829 0.146145
C19   C     C_R   0.555159 0.581957 0.077104 0.141299
C20   C     C_R   0.447790 0.422166 0.071023 -0.006533
C21   C     C_R   0.447953 0.422096 0.923454 -0.001294
C22   C     C_R   0.659562 0.499683 0.501580 0.535192
C23   C     C_3   0.915385 0.470632 0.497785 0.080743
C24   C     C_3   0.045837 0.360710 0.583859 -0.073182
C25   C     C_3   0.042835 0.444010 0.337485 -0.089781
C26   C     C_3   0.942539 0.429055 0.346064 -0.083374
C27   C     C_1   0.748776 0.491913 0.505150 -0.067201
C28   C     C_3   0.082594 0.466460 0.487721 0.066879
C29   C     C_3   0.898278 0.253351 0.625830 -0.275533
C30   C     C_3   0.873458 0.223922 0.775382 -0.313801
C31   C     C_3   0.829361 0.094756 0.783009 -0.458106
C32   C     C_3   0.101107 0.323729 0.711222 -0.271687
C33   C     C_3   0.130014 0.427911 0.813702 -0.290399
C34   C     C_3   0.958238 0.604442 0.521775 -0.108183
C35   C     C_3   0.195777 0.382224 0.916261 -0.465224
C36   C     C_3   0.286652 0.863968 0.899331 -0.251946
C37   C     C_3   0.204819 0.798545 0.843697 -0.299984
C38   C     C_3   0.154075 0.742790 0.962560 -0.463800
C39   C     C_3   0.724380 0.846426 0.152962 -0.257250
C40   C     C_3   0.786300 0.789201 0.256068 -0.295645
C41   C     C_3   0.848848 0.889391 0.315673 -0.471373
C42   C     C_3   0.089706 0.353753 0.239748 -0.259406
C43   C     C_3   0.105154 0.221759 0.293008 -0.291271
C44   C     C_3   0.146581 0.141839 0.185250 -0.466124
C45   C     C_3   0.054532 0.595332 0.539859 -0.230291
C46   C     C_3   0.901611 0.303622 0.288044 -0.261490
C47   C     C_3   0.805381 0.305222 0.260026 -0.296167
C48   C     C_3   0.774958 0.210276 0.149680 -0.469056
C49   C     C_3   0.920997 0.694853 0.629204 -0.262344
C50   C     C_3   0.915902 0.650426 0.779965 -0.290094
C51   C     C_3   0.902071 0.758456 0.878814 -0.460724
C52   C     C_1   0.823733 0.482014 0.504061 -0.074975
C53   C     C_1   0.175202 0.473711 0.487589 -0.076434
C54   C     C_1   0.250777 0.484172 0.492484 -0.056398
C55   C     C_R   0.375738 0.124528 0.675910 -0.126674
Cu1   Cu    Cu3+1 0.499990 0.499990 0.640660 0.903173
Cu2   Cu    Cu3+1 0.500010 0.500010 0.359340 0.911182
H1    H     H_    0.948670 0.426814 0.713895 0.141473
H2    H     H_    0.814490 0.072038 0.892023 0.133737
H3    H     H_    0.930161 0.227071 0.845304 0.149165
H4    H     H_    0.830097 0.294564 0.811881 0.160632
H5    H     H_    0.838987 0.253030 0.563200 0.159477
H6    H     H_    0.933415 0.174259 0.586358 0.127003
H7    H     H_    0.170496 0.298110 0.968253 0.149495
H8    H     H_    0.253609 0.359137 0.861013 0.146297
H9    H     H_    0.212831 0.455340 0.995085 0.137761
H10   H     H_    0.161456 0.506674 0.759913 0.175608
H11   H     H_    0.075207 0.459883 0.871087 0.137354
H12   H     H_    0.366363 0.222729 0.666699 0.126761
H13   H     H_    0.066994 0.248863 0.768918 0.131966
H14   H     H_    0.158265 0.281074 0.670861 0.140975
H15   H     H_    0.949231 0.654942 0.422531 0.104197
H16   H     H_    0.571856 0.114769 0.328754 0.128151
H17   H     H_    0.288377 0.110889 0.841287 0.094271
H18   H     H_    0.192183 0.677090 0.022510 0.155043
H19   H     H_    0.134391 0.817423 0.033269 0.146425
H20   H     H_    0.096762 0.691914 0.920312 0.132808
H21   H     H_    0.165791 0.866058 0.787832 0.159074
H22   H     H_    0.219806 0.723509 0.769769 0.155266
H23   H     H_    0.379169 0.767211 0.698918 0.152839
H24   H     H_    0.328114 0.794954 0.947207 0.149241
H25   H     H_    0.271569 0.930741 0.982850 0.140427
H26   H     H_    0.404872 0.358240 0.123541 0.111475
H27   H     H_    0.885990 0.933413 0.231334 0.145194
H28   H     H_    0.814857 0.961664 0.371470 0.149959
H29   H     H_    0.893464 0.848106 0.389925 0.126824
H30   H     H_    0.751480 0.745329 0.343056 0.152125
H31   H     H_    0.821616 0.716588 0.203403 0.156766
H32   H     H_    0.761451 0.902024 0.076710 0.139412
H33   H     H_    0.685686 0.912777 0.208346 0.130994
H34   H     H_    0.569022 0.890606 0.329330 0.119639
H35   H     H_    0.704169 0.813538 0.875669 0.103550
H36   H     H_    0.616497 0.670798 0.751519 0.187551
H37   H     H_    0.405513 0.357741 0.866514 0.103541
H38   H     H_    0.105990 0.131732 0.089871 0.140973
H39   H     H_    0.209791 0.183116 0.159965 0.147674
H40   H     H_    0.155070 0.047715 0.228002 0.137847
H41   H     H_    0.148309 0.227576 0.385547 0.161096
H42   H     H_    0.045316 0.172196 0.320265 0.144482
H43   H     H_    0.056938 0.348378 0.136647 0.129149
H44   H     H_    0.152752 0.398337 0.219046 0.147154
H45   H     H_    0.045044 0.275269 0.521544 0.121334
H46   H     H_    0.800136 0.238420 0.047950 0.151846
H47   H     H_    0.796221 0.116852 0.176500 0.147112
H48   H     H_    0.704952 0.206309 0.141785 0.154030
H49   H     H_    0.771145 0.281821 0.355900 0.165098
H50   H     H_    0.787377 0.398356 0.224280 0.174087
H51   H     H_    0.929931 0.283506 0.186965 0.149771
H52   H     H_    0.915009 0.225087 0.356410 0.133310
H53   H     H_    0.918215 0.498922 0.272288 0.099230
H54   H     H_    0.073710 0.613021 0.649152 0.124808
H55   H     H_    0.086493 0.671608 0.480293 0.093906
H56   H     H_    0.616822 0.675629 0.257599 0.179731
H57   H     H_    0.957922 0.824842 0.880919 0.144855
H58   H     H_    0.845815 0.808252 0.845342 0.147681
H59   H     H_    0.892744 0.722708 0.985251 0.141373
H60   H     H_    0.862591 0.580356 0.788994 0.165214
H61   H     H_    0.975016 0.608695 0.813876 0.140431
H62   H     H_    0.960260 0.783326 0.627328 0.133775
H63   H     H_    0.856644 0.718567 0.593532 0.141962
H64   H     H_    0.054392 0.534291 0.283334 0.097726
H65   H     H_    0.769636 0.091253 0.720180 0.158174
H66   H     H_    0.871019 0.023217 0.743429 0.143740
N1    N     N_R   0.500800 0.501210 0.147910 -0.240918
N2    N     N_R   0.500820 0.501290 0.852040 -0.241126
O1    O     O_R   0.499990 0.319640 0.618810 -0.498552
O2    O     O_R   0.500000 0.319660 0.381240 -0.500438
O3    O     O_R   0.379430 0.499990 0.618840 -0.512108
O4    O     O_R   0.379440 0.500020 0.381260 -0.492692
O5    O     O_R   0.500000 0.680340 0.618760 -0.532341
O6    O     O_R   0.500010 0.680360 0.381190 -0.517459
O7    O     O_R   0.620560 0.499980 0.618740 -0.505404
O8    O     O_R   0.620570 0.500010 0.381160 -0.515505

loop_
_geom_bond_atom_site_label_1
_geom_bond_atom_site_label_2
_ccdc_geom_bond_type
C29   H6    S    
C12   C29   S    
C1    C8    S    
C43   H41   S    
C7    C55   A    
C45   H55   S    
C7    C8    A    
C38   H19   S    
C53   C54   T    
C25   C28   S    
C41   H29   S    
C37   H22   S    
C12   C23   S    
C37   C38   S    
C40   H30   S    
Cu2   O4    S    
C36   C37   S    
C43   H42   S    
C2    C55   A    
C18   N2    A    
C30   C31   S    
C49   H63   S    
C21   H37   S    
C35   H8    S    
C50   H60   S    
Cu1   Cu2   S    
C18   C19   A    
C44   H40   S    
C23   C26   S    
C31   H2    S    
C16   O6    A    
C14   C39   S    
C46   C47   S    
C4    C54   S    
C47   C48   S    
C36   H25   S    
C8    C9    A    
C30   H3    S    
C35   H7    S    
Cu1   O1    S    
C16   O5    A    
C9    C10   A    
C26   H53   S    
C39   H33   S    
C2    H17   S    
C12   H1    S    
C47   H49   S    
C15   H35   S    
C13   C14   A    
Cu2   O8    S    
C20   H26   S    
C9    H16   S    
C50   C51   S    
C32   H14   S    
C38   H18   S    
C19   N1    A    
C28   C45   S    
C51   H57   S    
C4    O3    A    
C22   O8    A    
C1    O2    A    
C1    O1    A    
C6    C11   A    
C13   C19   A    
C32   H13   S    
C35   H9    S    
C25   C26   S    
C41   H27   S    
C51   H58   S    
C46   H51   S    
C43   C44   S    
C24   C32   S    
C29   C30   S    
C44   H39   S    
C42   H43   S    
C11   C16   S    
C48   H48   S    
C36   H24   S    
C23   C34   S    
C17   C18   A    
C4    O4    A    
C34   C45   S    
Cu1   O7    S    
Cu1   N2    S    
C5    H23   S    
C55   H12   S    
C40   C41   S    
C10   H34   S    
C47   H50   S    
C22   C27   S    
C46   H52   S    
C17   H36   S    
C42   C43   S    
C21   N2    A    
C42   H44   S    
C34   H15   S    
C39   C40   S    
C27   C52   T    
C33   H10   S    
C15   C17   A    
C29   H5    S    
C34   C49   S    
C22   O7    A    
C50   H61   S    
Cu2   O6    S    
C24   C28   S    
C31   H65   S    
C3    C5    A    
C25   C42   S    
Cu2   O2    S    
C28   C53   S    
C45   H54   S    
C6    C7    A    
C38   H20   S    
C41   H28   S    
C37   H21   S    
C12   C24   S    
C49   H62   S    
C51   H59   S    
C32   C33   S    
C40   H31   S    
C2    C3    A    
C31   H66   S    
C44   H38   S    
Cu2   N1    S    
C48   H46   S    
C23   C52   S    
C5    C6    A    
C3    C36   S    
C33   C35   S    
C24   H45   S    
Cu1   O3    S    
C13   H56   S    
C20   N1    A    
C10   C11   A    
C26   C46   S    
C20   C21   A    
C49   C50   S    
C30   H4    S    
C14   C15   A    
C25   H64   S    
C39   H32   S    
Cu1   O5    S    
C33   H11   S    
C48   H47   S    
