data_mof_unit_46353.cif
_audit_creation_date              2012-10-26T21:14:55-0400
_audit_creation_method            fapswitch 2.2
_symmetry_space_group_name_H-M    P1
_symmetry_Int_Tables_number       1
_space_group_crystal_system       triclinic
_cell_length_a                    15.06692
_cell_length_b                    10.850717
_cell_length_c                    13.674344
_cell_angle_alpha                 90.717334
_cell_angle_beta                  89.833787
_cell_angle_gamma                 90.100834
_cell_volume                      2235.38797081

loop_
_atom_site_label
_atom_site_type_symbol
_atom_type_description
_atom_site_fract_x
_atom_site_fract_y
_atom_site_fract_z
_atom_type_partial_charge
C1    C     C_R   0.497556 0.262075 0.499165 0.544671
C2    C     C_R   0.561474 0.886429 0.678287 0.013390
C3    C     C_R   0.483109 0.088970 0.233147 -0.111470
C4    C     C_R   0.516890 0.911032 0.766854 -0.111471
C5    C     C_R   0.451055 0.136108 0.145464 -0.145811
C6    C     C_R   0.548944 0.863894 0.854537 -0.145810
C7    C     C_R   0.374578 0.208604 0.145361 -0.049593
C8    C     C_R   0.625421 0.791395 0.854639 -0.049592
C9    C     C_R   0.476164 0.931343 0.417438 -0.138219
C10   C     C_R   0.523834 0.068657 0.582563 -0.138218
C11   C     C_R   0.503954 0.871777 0.502225 -0.004249
C12   C     C_R   0.502444 0.737925 0.500835 0.544669
C13   C     C_R   0.496044 0.128222 0.497775 -0.004249
C14   C     C_R   0.528726 0.941189 0.586149 -0.027959
C15   C     C_R   0.471272 0.058811 0.413852 -0.027960
C16   C     C_R   0.328482 0.500575 0.500159 0.550811
C17   C     C_R   0.671519 0.499425 0.499841 0.550817
C18   C     C_R   0.553421 0.419501 0.791938 0.072319
C19   C     C_R   0.446579 0.580499 0.208062 0.072320
C20   C     C_R   0.446500 0.579865 0.794191 0.043727
C21   C     C_R   0.553499 0.420135 0.205809 0.043726
C22   C     C_R   0.445483 0.581800 0.897178 -0.037994
C23   C     C_R   0.045639 0.436513 0.670357 -0.115106
C24   C     C_R   0.554517 0.418200 0.102822 -0.037994
C25   C     C_R   0.500122 0.499549 0.948121 0.022025
C26   C     C_R   0.499877 0.500451 0.051879 0.022025
C27   C     C_R   0.554804 0.416400 0.895292 0.006560
C28   C     C_R   0.445195 0.583600 0.104708 0.006560
C29   C     C_R   0.391636 0.664692 0.949841 -0.120028
C30   C     C_R   0.608363 0.335307 0.050159 -0.120029
C31   C     C_R   0.391404 0.666740 0.052575 0.073232
C32   C     C_R   0.608596 0.333259 0.947425 0.073231
C33   C     C_R   0.814830 0.529971 0.414450 -0.131841
C34   C     C_R   0.954361 0.563482 0.329618 -0.115118
C35   C     C_R   0.185170 0.470004 0.585528 -0.131846
C36   C     C_R   0.768271 0.498318 0.499482 -0.009132
C37   C     C_R   0.231731 0.501676 0.500513 -0.009140
C38   C     C_R   0.814257 0.465789 0.584277 -0.086638
C39   C     C_R   0.185743 0.534217 0.415731 -0.086620
C40   C     C_R   0.906702 0.466519 0.585185 0.028853
C41   C     C_R   0.093298 0.533467 0.414808 0.028869
C42   C     C_R   0.953483 0.499362 0.499809 0.061587
C43   C     C_R   0.046517 0.500596 0.500170 0.061592
C44   C     C_R   0.907315 0.530960 0.414065 0.012864
C45   C     C_R   0.329236 0.232774 0.232883 0.272131
C46   C     C_R   0.092686 0.469008 0.585909 0.012860
C47   C     C_R   0.953100 0.435230 0.669991 -0.087927
C48   C     C_R   0.046902 0.564781 0.330003 -0.087922
C49   C     C_R   0.670762 0.767223 0.767116 0.272132
C50   C     C_R   0.360601 0.184665 0.320827 -0.012648
C51   C     C_R   0.639397 0.815334 0.679173 -0.012645
C52   C     C_R   0.438524 0.113571 0.321714 0.013390
Cl1   Cl    Cl    0.232426 0.322041 0.231864 -0.617328
Cl2   Cl    Cl    0.767570 0.677954 0.768135 -0.617360
Cu1   Cu    Cu3+1 0.500010 0.499980 0.597420 0.955727
Cu2   Cu    Cu3+1 0.499990 0.500020 0.402580 0.955729
H1    H     H_    0.779162 0.555127 0.348904 0.133084
H2    H     H_    0.649921 0.270957 0.088963 0.137664
H3    H     H_    0.778125 0.439512 0.649504 0.172947
H4    H     H_    0.221882 0.560536 0.350519 0.172911
H5    H     H_    0.917813 0.409957 0.735965 0.159920
H6    H     H_    0.082191 0.590087 0.264041 0.159914
H7    H     H_    0.080417 0.412042 0.736582 0.130295
H8    H     H_    0.919592 0.587955 0.263394 0.130302
H9    H     H_    0.350525 0.245639 0.077253 0.151987
H10   H     H_    0.649474 0.754359 0.922747 0.151988
H11   H     H_    0.324609 0.202635 0.388199 0.131527
H12   H     H_    0.220843 0.444849 0.651073 0.133084
H13   H     H_    0.675388 0.797362 0.611800 0.131527
H14   H     H_    0.542681 0.033239 0.232099 0.125997
H15   H     H_    0.457318 0.966765 0.767903 0.125996
H16   H     H_    0.485719 0.116767 0.077559 0.136077
H17   H     H_    0.514282 0.883236 0.922443 0.136078
H18   H     H_    0.455523 0.878148 0.353717 0.151707
H19   H     H_    0.544476 0.121852 0.646283 0.151708
H20   H     H_    0.594689 0.358191 0.748875 0.158027
H21   H     H_    0.405311 0.641810 0.251125 0.158026
H22   H     H_    0.405002 0.642716 0.753924 0.130244
H23   H     H_    0.594998 0.357283 0.246076 0.130244
H24   H     H_    0.350078 0.729043 0.911037 0.137664
I1    I     I_    0.309198 0.800314 0.122671 -0.416439
I2    I     I_    0.690801 0.199686 0.877328 -0.416433
N1    N     N_R   0.499960 0.499900 0.743810 -0.245094
N2    N     N_R   0.500040 0.500100 0.256190 -0.245094
O1    O     O_R   0.500000 0.319630 0.582270 -0.516095
O2    O     O_R   0.500000 0.680370 0.417730 -0.516095
O3    O     O_R   0.499990 0.319660 0.417730 -0.501323
O4    O     O_R   0.500010 0.680340 0.582270 -0.501324
O5    O     O_R   0.370260 0.499960 0.582280 -0.510932
O6    O     O_R   0.629740 0.500040 0.417720 -0.510929
O7    O     O_R   0.370250 0.499990 0.417740 -0.491527
O8    O     O_R   0.629750 0.500010 0.582260 -0.491528

loop_
_geom_bond_atom_site_label_1
_geom_bond_atom_site_label_2
_ccdc_geom_bond_type
C1    O3    A    
C40   C47   A    
C38   C40   A    
Cu1   Cu2   S    
C8    H10   S    
C22   C29   A    
C39   C41   A    
C7    C45   A    
C35   C37   A    
C24   C26   A    
C5    H16   S    
C11   C14   A    
C49   Cl2   S    
C33   C36   A    
Cu1   O4    S    
C19   H21   S    
C48   H6    S    
Cu2   O7    S    
C49   C51   A    
C22   C25   A    
C50   C52   A    
C17   C36   S    
C50   H11   S    
C16   C37   S    
C23   H7    S    
C45   Cl1   S    
C16   O5    A    
C23   C46   A    
C17   O6    A    
C41   C43   A    
C17   O8    A    
C42   C44   A    
C33   H1    S    
Cu2   N2    S    
C1    O1    A    
C37   C39   A    
C23   C47   A    
C12   O4    A    
C3    H14   S    
C34   C44   A    
Cu2   O6    S    
C4    C6    A    
C10   C14   A    
C5    C7    A    
Cu2   O3    S    
C6    C8    A    
C25   C26   A    
Cu1   O1    S    
C2    C4    A    
Cu1   O8    S    
C7    H9    S    
C10   H19   S    
Cu2   O2    S    
C21   N2    A    
C11   C12   S    
C21   H23   S    
C34   H8    S    
C18   N1    A    
C15   C52   S    
C19   C28   A    
C9    C11   A    
C20   C22   A    
C13   C15   A    
C21   C24   A    
C1    C13   S    
C9    H18   S    
Cu1   N1    S    
C19   N2    A    
C6    H17   S    
C18   H20   S    
C27   C32   A    
C33   C44   A    
C28   C31   A    
C18   C27   A    
C3    C5    A    
C10   C13   A    
C47   H5    S    
C3    C52   A    
C20   H22   S    
C25   C27   A    
C32   I2    S    
C26   C28   A    
C31   I1    S    
C12   O2    A    
C36   C38   A    
C9    C15   A    
C29   C31   A    
C30   C32   A    
C29   H24   S    
C35   H12   S    
C39   H4    S    
C30   H2    S    
C40   C42   A    
C41   C48   A    
C2    C14   S    
C43   C46   A    
C24   C30   A    
C2    C51   A    
C38   H3    S    
C34   C48   A    
C16   O7    A    
Cu1   O5    S    
C42   C43   A    
C20   N1    A    
C45   C50   A    
C51   H13   S    
C35   C46   A    
C8    C49   A    
C4    H15   S    
