data_mof_unit_47177.cif
_audit_creation_date              2012-12-11T15:50:45-0500
_audit_creation_method            fapswitch 2.2
_symmetry_space_group_name_H-M    P1
_symmetry_Int_Tables_number       1
_space_group_crystal_system       triclinic
_cell_length_a                    18.899942
_cell_length_b                    11.036204
_cell_length_c                    18.736322
_cell_angle_alpha                 89.980678
_cell_angle_beta                  90.796311
_cell_angle_gamma                 90.134581
_cell_volume                      3907.70138292

loop_
_atom_site_label
_atom_site_type_symbol
_atom_type_description
_atom_site_fract_x
_atom_site_fract_y
_atom_site_fract_z
_atom_type_partial_charge
C1    C     C_R   0.287829 0.003375 0.861654 0.551444
C2    C     C_R   0.712172 0.003306 0.138382 0.548887
C3    C     C_R   0.787824 0.503386 0.861655 0.551436
C4    C     C_R   0.212174 0.503309 0.138382 0.548882
C5    C     C_3   0.529555 0.727288 0.971083 -0.123580
C6    C     C_3   0.471468 0.725968 0.028381 -0.125362
C7    C     C_3   0.029560 0.227290 0.971081 -0.123608
C8    C     C_3   0.971471 0.225961 0.028378 -0.125379
C9    C     C_R   0.226071 0.531572 0.063354 -0.004100
C10   C     C_R   0.773807 0.532416 0.936454 0.000599
C11   C     C_R   0.726068 0.031564 0.063353 -0.004103
C12   C     C_R   0.273817 0.032397 0.936455 0.000593
C13   C     C_R   0.287922 0.494307 0.028804 -0.052985
C14   C     C_R   0.711326 0.496773 0.970302 -0.044993
C15   C     C_R   0.787914 0.994284 0.028799 -0.052988
C16   C     C_R   0.211337 0.996754 0.970304 -0.044977
C17   C     C_R   0.295409 0.511730 0.954701 0.034831
C18   C     C_R   0.702938 0.513995 0.044205 0.002040
C19   C     C_R   0.795399 0.011708 0.954696 0.034800
C20   C     C_R   0.202948 0.014000 0.044203 0.002046
C21   C     C_R   0.177857 0.594464 0.948733 -0.187001
C22   C     C_R   0.821814 0.592868 0.051597 -0.183457
C23   C     C_R   0.677855 0.094474 0.948735 -0.186999
C24   C     C_R   0.321819 0.092886 0.051594 -0.183457
C25   C     C_R   0.170677 0.579579 0.021833 -0.159658
C26   C     C_R   0.829361 0.578865 0.978464 -0.159921
C27   C     C_R   0.670675 0.079582 0.021834 -0.159632
C28   C     C_R   0.329368 0.078868 0.978461 -0.159942
C29   C     C_3   0.311763 0.366478 0.025584 -0.233253
C30   C     C_3   0.686004 0.369884 0.972414 -0.211419
C31   C     C_3   0.811739 0.866447 0.025576 -0.233229
C32   C     C_3   0.186018 0.869862 0.972436 -0.211470
C33   C     C_3   0.313822 0.380796 0.945186 0.165576
C34   C     C_3   0.681183 0.382866 0.052189 0.156416
C35   C     C_3   0.813789 0.880764 0.945178 0.165581
C36   C     C_3   0.181185 0.882886 0.052208 0.156458
C37   C     C_R   0.242135 0.568930 0.915579 -0.013233
C38   C     C_R   0.757064 0.568274 0.084284 -0.015582
C39   C     C_R   0.742131 0.068930 0.915578 -0.013235
C40   C     C_R   0.257069 0.068288 0.084281 -0.015584
C41   C     C_R   0.495634 0.827200 0.421206 0.004066
C42   C     C_R   0.479797 0.830523 0.569334 0.050692
C43   C     C_R   0.995634 0.327200 0.421206 0.004065
C44   C     C_R   0.979797 0.330523 0.569334 0.050693
C45   C     C_R   0.469646 0.821301 0.855715 0.547064
C46   C     C_R   0.530493 0.821118 0.144191 0.537186
C47   C     C_R   0.969647 0.321300 0.855715 0.547066
C48   C     C_R   0.030493 0.321118 0.144190 0.537164
C49   C     C_R   0.490926 0.719175 0.460240 0.042793
C50   C     C_R   0.482828 0.721616 0.532528 0.008283
C51   C     C_R   0.990926 0.219175 0.460240 0.042793
C52   C     C_R   0.982828 0.221616 0.532528 0.008283
C53   C     C_R   0.473991 0.938963 0.530144 -0.164128
C54   C     C_R   0.481038 0.937190 0.455718 -0.171524
C55   C     C_R   0.973992 0.438963 0.530144 -0.164129
C56   C     C_R   0.981038 0.437190 0.455718 -0.171523
C57   C     C_3   0.541363 0.614161 0.466242 0.120405
C58   C     C_3   0.530328 0.616364 0.546100 0.104555
C59   C     C_3   0.041363 0.114161 0.466242 0.120405
C60   C     C_3   0.030328 0.116364 0.546100 0.104554
C61   C     C_R   0.250319 0.600981 0.419651 0.017872
C62   C     C_R   0.768504 0.545279 0.565826 0.062384
C63   C     C_R   0.750319 0.100981 0.419651 0.017872
C64   C     C_R   0.268504 0.045279 0.565826 0.062384
C65   C     C_R   0.200297 0.668614 0.456897 0.020258
C66   C     C_R   0.823337 0.600572 0.529762 0.007312
C67   C     C_R   0.700297 0.168614 0.456897 0.020257
C68   C     C_R   0.323337 0.100572 0.529762 0.007312
C69   C     C_R   0.203436 0.672898 0.529299 0.022508
C70   C     C_R   0.820441 0.612857 0.457573 0.015773
C71   C     C_R   0.703436 0.172898 0.529299 0.022507
C72   C     C_R   0.320441 0.112856 0.457573 0.015773
C73   C     C_R   0.314618 0.566976 0.530087 -0.159024
C74   C     C_R   0.713419 0.492505 0.452467 -0.160674
C75   C     C_R   0.814618 0.066976 0.530087 -0.159024
C76   C     C_R   0.213419 0.992505 0.452467 -0.160674
C77   C     C_R   0.311566 0.561101 0.455684 -0.160235
C78   C     C_R   0.717587 0.478856 0.526464 -0.108196
C79   C     C_R   0.811566 0.061101 0.455684 -0.160235
C80   C     C_R   0.217587 0.978856 0.526464 -0.108196
C81   C     C_3   0.120668 0.661952 0.458246 -0.260496
C82   C     C_3   0.857254 0.720770 0.542560 -0.265303
C83   C     C_3   0.620668 0.161952 0.458246 -0.260497
C84   C     C_3   0.357254 0.220770 0.542560 -0.265302
C85   C     C_3   0.125396 0.667419 0.538540 -0.276208
C86   C     C_3   0.854494 0.736339 0.462701 -0.241211
C87   C     C_3   0.625396 0.167419 0.538540 -0.276206
C88   C     C_3   0.354494 0.236339 0.462701 -0.241211
C89   C     C_R   0.259007 0.632111 0.849513 0.542899
C90   C     C_R   0.740812 0.631934 0.150411 0.532926
C91   C     C_R   0.759006 0.132111 0.849513 0.542899
C92   C     C_R   0.240813 0.131936 0.150410 0.532923
C93   C     C_R   0.256645 0.614115 0.567413 0.026694
C94   C     C_R   0.760670 0.571809 0.419257 0.017298
C95   C     C_R   0.756645 0.114115 0.567413 0.026694
C96   C     C_R   0.260670 0.071809 0.419257 0.017298
C97   C     C_R   0.275702 0.034421 0.641753 0.605053
C98   C     C_R   0.729116 0.047791 0.352832 0.557603
C99   C     C_R   0.775702 0.534421 0.641753 0.605054
C100  C     C_R   0.229116 0.547791 0.352832 0.557602
C101  C     C_R   0.465485 0.823439 0.644742 0.592452
C102  C     C_R   0.529361 0.822893 0.352332 0.544750
C103  C     C_R   0.965486 0.323439 0.644742 0.592453
C104  C     C_R   0.029361 0.322893 0.352332 0.544743
C105  C     C_R   0.261094 0.640526 0.642157 0.549664
C106  C     C_R   0.741723 0.633606 0.354305 0.546549
C107  C     C_R   0.761094 0.140526 0.642157 0.549667
C108  C     C_R   0.241723 0.133605 0.354305 0.546544
C109  C     C_3   0.470968 0.925282 0.029012 -0.128403
C110  C     C_3   0.528489 0.926562 0.971195 -0.127459
C111  C     C_3   0.970965 0.425274 0.029012 -0.128400
C112  C     C_3   0.028486 0.426564 0.971196 -0.127447
C113  C     C_3   0.430202 0.825309 0.987670 -0.106927
C114  C     C_3   0.570024 0.827386 0.012188 -0.110878
C115  C     C_3   0.930203 0.325299 0.987668 -0.106918
C116  C     C_3   0.070024 0.327391 0.012189 -0.110891
C117  C     C_3   0.488727 0.826642 0.931286 0.058537
C118  C     C_3   0.511501 0.826188 0.068571 0.056736
C119  C     C_3   0.988728 0.326641 0.931285 0.058547
C120  C     C_3   0.011501 0.326184 0.068571 0.056725
Cr1   Cr    Cr6+3 0.229640 0.835880 0.747370 1.035161
Cr2   Cr    Cr6+3 0.770360 0.835880 0.252630 1.030408
Cr3   Cr    Cr6+3 0.729640 0.335880 0.747370 1.035164
Cr4   Cr    Cr6+3 0.270360 0.335880 0.252630 1.030388
Cr5   Cr    Cr6+3 0.387390 0.989720 0.750850 1.032988
Cr6   Cr    Cr6+3 0.612610 0.989720 0.249150 1.034808
Cr7   Cr    Cr6+3 0.887390 0.489720 0.750850 1.032992
Cr8   Cr    Cr6+3 0.112610 0.489720 0.249150 1.034821
Cr9   Cr    Cr6+3 0.385770 0.677220 0.749340 1.052347
Cr10  Cr    Cr6+3 0.614230 0.677220 0.250660 1.053224
Cr11  Cr    Cr6+3 0.885770 0.177220 0.749340 1.052325
Cr12  Cr    Cr6+3 0.114230 0.177220 0.250660 1.053333
H1    H     H_    0.372495 0.823380 0.975786 0.100726
H2    H     H_    0.627720 0.826689 0.024077 0.100787
H3    H     H_    0.872496 0.323367 0.975783 0.100723
H4    H     H_    0.127720 0.326698 0.024078 0.100790
H5    H     H_    0.466734 0.024462 0.557026 0.134489
H6    H     H_    0.480607 0.021762 0.426443 0.132493
H7    H     H_    0.966734 0.524462 0.557026 0.134489
H8    H     H_    0.980607 0.521762 0.426443 0.132494
H9    H     H_    0.095868 0.138199 0.449965 0.180193
H10   H     H_    0.001642 0.036610 0.567693 0.165716
H11   H     H_    0.595868 0.638199 0.449965 0.180196
H12   H     H_    0.501642 0.536609 0.567693 0.165718
H13   H     H_    0.360693 0.531672 0.558013 0.144945
H14   H     H_    0.669279 0.453004 0.423231 0.169685
H15   H     H_    0.860693 0.031672 0.558013 0.144945
H16   H     H_    0.169279 0.953004 0.423231 0.169687
H17   H     H_    0.353200 0.515168 0.427459 0.187813
H18   H     H_    0.678054 0.425014 0.553020 0.171548
H19   H     H_    0.853200 0.015168 0.427459 0.187813
H20   H     H_    0.178054 0.925014 0.553020 0.171548
H21   H     H_    0.099691 0.573654 0.439375 0.172040
H22   H     H_    0.912009 0.713775 0.564394 0.143180
H23   H     H_    0.599691 0.073654 0.439375 0.172041
H24   H     H_    0.412009 0.213775 0.564394 0.143181
H25   H     H_    0.095266 0.743081 0.433947 0.186454
H26   H     H_    0.822299 0.784745 0.571328 0.161777
H27   H     H_    0.595266 0.243081 0.433947 0.186451
H28   H     H_    0.322300 0.284744 0.571328 0.161776
H29   H     H_    0.103305 0.752265 0.560913 0.157558
H30   H     H_    0.818417 0.810846 0.446521 0.175722
H31   H     H_    0.603306 0.252265 0.560913 0.157559
H32   H     H_    0.318417 0.310846 0.446521 0.175723
H33   H     H_    0.107929 0.582531 0.565101 0.154632
H34   H     H_    0.907703 0.738697 0.438149 0.176033
H35   H     H_    0.607929 0.082531 0.565101 0.154633
H36   H     H_    0.407703 0.238696 0.438149 0.176032
H37   H     H_    0.452127 0.006413 0.057119 0.113007
H38   H     H_    0.546784 0.008785 0.943570 0.113453
H39   H     H_    0.952122 0.506403 0.057121 0.112999
H40   H     H_    0.046778 0.508791 0.943573 0.113442
H41   H     H_    0.554215 0.648670 0.944328 0.115464
H42   H     H_    0.447546 0.645671 0.054380 0.106933
H43   H     H_    0.054225 0.148675 0.944328 0.115468
H44   H     H_    0.947551 0.145653 0.054369 0.106928
H45   H     H_    0.135208 0.637828 0.919359 0.141676
H46   H     H_    0.864651 0.635109 0.081423 0.139127
H47   H     H_    0.635208 0.137849 0.919364 0.141691
H48   H     H_    0.364654 0.135135 0.081418 0.139130
H49   H     H_    0.120867 0.604369 0.045664 0.181677
H50   H     H_    0.879515 0.603070 0.954985 0.169882
H51   H     H_    0.620867 0.104376 0.045667 0.181721
H52   H     H_    0.379520 0.103078 0.954981 0.169878
H53   H     H_    0.768340 0.805838 0.042438 0.120863
H54   H     H_    0.228982 0.807990 0.956534 0.115942
H55   H     H_    0.268368 0.305858 0.042441 0.120876
H56   H     H_    0.728963 0.308013 0.956494 0.115962
H57   H     H_    0.362843 0.353599 0.054339 0.134754
H58   H     H_    0.634499 0.358276 0.943873 0.148531
H59   H     H_    0.862821 0.853552 0.054322 0.134775
H60   H     H_    0.134520 0.858230 0.943887 0.148507
H61   H     H_    0.269655 0.330260 0.918664 0.145918
H62   H     H_    0.722589 0.329024 0.080652 0.146991
H63   H     H_    0.769609 0.830250 0.918663 0.145913
H64   H     H_    0.222583 0.829050 0.080687 0.146987
O1    O     O_R   0.214300 0.709080 0.827500 -0.541472
O2    O     O_R   0.785700 0.709080 0.172500 -0.535265
O3    O     O_R   0.714300 0.209080 0.827500 -0.541476
O4    O     O_R   0.285700 0.209080 0.172500 -0.535285
O5    O     O_R   0.445900 0.919370 0.676500 -0.521495
O6    O     O_R   0.554100 0.919370 0.323500 -0.514142
O7    O     O_R   0.945900 0.419370 0.676500 -0.521496
O8    O     O_R   0.054100 0.419370 0.323500 -0.514145
O9    O     O_R   0.456660 0.717710 0.669820 -0.489018
O10   O     O_R   0.543340 0.717710 0.330180 -0.474090
O11   O     O_R   0.956660 0.217710 0.669820 -0.489019
O12   O     O_R   0.043340 0.217710 0.330180 -0.474083
O13   O     O_R   0.320590 0.625770 0.672930 -0.512856
O14   O     O_R   0.679410 0.625770 0.327070 -0.495205
O15   O     O_R   0.820590 0.125770 0.672930 -0.512855
O16   O     O_R   0.179410 0.125770 0.327070 -0.495198
O17   O     O_3   0.334270 0.834280 0.749190 -0.296200
O18   O     O_3   0.665730 0.834280 0.250810 -0.278478
O19   O     O_3   0.834270 0.334280 0.749190 -0.296192
O20   O     O_3   0.165730 0.334280 0.250810 -0.278490
O21   O     O_R   0.236190 0.958390 0.823150 -0.487444
O22   O     O_R   0.763810 0.958390 0.176850 -0.494109
O23   O     O_R   0.736190 0.458390 0.823150 -0.487454
O24   O     O_R   0.263810 0.458390 0.176850 -0.494119
O25   O     O_R   0.332090 0.075280 0.831290 -0.483995
O26   O     O_R   0.667910 0.075280 0.168710 -0.492202
O27   O     O_R   0.832090 0.575280 0.831290 -0.483963
O28   O     O_R   0.167910 0.575280 0.168710 -0.492203
O29   O     O_R   0.446280 0.918040 0.826620 -0.519928
O30   O     O_R   0.553720 0.918040 0.173380 -0.516425
O31   O     O_R   0.946280 0.418040 0.826620 -0.519926
O32   O     O_R   0.053720 0.418040 0.173380 -0.516424
O33   O     O_R   0.457080 0.716270 0.831760 -0.507068
O34   O     O_R   0.542920 0.716270 0.168240 -0.537605
O35   O     O_R   0.957080 0.216270 0.831760 -0.507085
O36   O     O_R   0.042920 0.216270 0.168240 -0.537566
O37   O     O_R   0.320980 0.624440 0.823040 -0.474181
O38   O     O_R   0.679020 0.624440 0.176960 -0.503997
O39   O     O_R   0.820980 0.124440 0.823040 -0.474193
O40   O     O_R   0.179020 0.124440 0.176960 -0.503900
O41   O     O_R   0.213880 0.710510 0.665560 -0.521566
O42   O     O_R   0.786120 0.710510 0.334440 -0.521685
O43   O     O_R   0.713880 0.210510 0.665560 -0.521563
O44   O     O_R   0.286120 0.210510 0.334440 -0.521690
O45   O     O_R   0.235800 0.959720 0.673040 -0.480358
O46   O     O_R   0.764200 0.959720 0.326960 -0.500942
O47   O     O_R   0.735800 0.459720 0.673040 -0.480357
O48   O     O_R   0.264200 0.459720 0.326960 -0.500946
O49   O     O_R   0.331670 0.076720 0.669350 -0.520263
O50   O     O_R   0.668330 0.076720 0.330650 -0.515356
O51   O     O_R   0.831670 0.576720 0.669350 -0.520262
O52   O     O_R   0.168330 0.576720 0.330650 -0.515350
Cl1   Cl    Cl    0.506623 0.480456 0.425042 -0.714617
Cl2   Cl    Cl    0.607570 0.658907 0.596408 -0.659763
Cl3   Cl    Cl    0.006623 0.980456 0.425043 -0.714602
Cl4   Cl    Cl    0.107570 0.158907 0.596408 -0.659765
O53   O     O_3   0.377922 0.358797 0.908264 -0.538669
C121  C     C_3   0.439429 0.401758 0.943260 -0.100494
H65   H     H_    0.431964 0.491267 0.968813 0.113354
H66   H     H_    0.481500 0.412946 0.903081 0.144324
H67   H     H_    0.458364 0.333157 0.982326 0.111122
O54   O     O_3   0.613018 0.354523 0.079342 -0.562014
C122  C     C_3   0.563889 0.449739 0.072944 -0.103337
H68   H     H_    0.578893 0.525756 0.108306 0.193962
H69   H     H_    0.511486 0.416609 0.090438 0.120767
H70   H     H_    0.558706 0.480768 0.016989 0.084804
O55   O     O_3   0.877880 0.858728 0.908250 -0.538668
C123  C     C_3   0.939394 0.901706 0.943222 -0.100507
H71   H     H_    0.931941 0.991238 0.968752 0.113375
H72   H     H_    0.981457 0.912853 0.903031 0.144318
H73   H     H_    0.958333 0.833133 0.982301 0.111080
O56   O     O_3   0.113016 0.854597 0.079373 -0.561907
C124  C     C_3   0.063874 0.949779 0.072852 -0.103320
H74   H     H_    0.078875 0.025958 0.108099 0.193863
H75   H     H_    0.011479 0.916705 0.090404 0.120834
H76   H     H_    0.058680 0.980583 0.016853 0.084691

loop_
_geom_bond_atom_site_label_1
_geom_bond_atom_site_label_2
_ccdc_geom_bond_type
C73   C77   A    
C83   C87   S    
C55   C56   A    
Cr4   O24   S    
C67   C83   S    
Cr3   O19   S    
C5    C114  S    
Cr6   O50   S    
C85   H29   S    
C14   C18   A    
C87   H31   S    
C111  C112  S    
C86   H34   S    
C36   O56   S    
C73   C93   A    
C22   H46   S    
C122  H70   S    
Cr11  O11   S    
Cr8   O28   S    
C27   H51   S    
Cr3   O47   S    
C84   H28   S    
C75   C95   A    
C7    C8    S    
Cr2   O46   S    
C63   C79   A    
C53   C54   A    
Cr6   O6    S    
Cr1   O45   S    
Cr12  O16   S    
C90   O38   A    
C34   H62   S    
C55   H7    S    
C17   C33   S    
C12   C28   A    
C53   H5    S    
C104  O8    A    
C13   C29   S    
C16   C20   A    
C70   C94   A    
C103  O11   A    
C98   O50   A    
C63   C98   S    
C69   C93   A    
C42   C53   A    
C97   O49   A    
O53   C121  S    
C48   O32   A    
C72   C96   A    
Cr1   O41   S    
C83   H23   S    
Cr10  O34   S    
C115  H3    S    
C89   O37   A    
C22   C38   A    
C58   H12   S    
Cr9   O33   S    
Cr6   O26   S    
C2    O26   A    
C49   C57   S    
C41   C102  S    
C46   C118  S    
C1    O25   A    
Cr8   O8    S    
C35   O55   S    
C19   C35   S    
C9    C13   A    
C43   C104  S    
C121  H66   S    
C83   H27   S    
C52   C60   S    
C8    C115  S    
C93   C105  S    
C11   C15   A    
C41   C49   A    
C99   O47   A    
C87   H35   S    
C12   C16   A    
C29   C33   S    
C61   C77   A    
C123  H71   S    
C4    O24   A    
C7    H43   S    
C73   H13   S    
C24   H48   S    
C31   H59   S    
Cr5   O17   S    
C76   C80   A    
Cr2   O18   S    
C111  H39   S    
C86   H30   S    
C91   O39   A    
C23   C27   A    
Cr4   O48   S    
C34   O54   S    
Cr6   O18   S    
C4    C9    S    
C110  C114  S    
C23   H47   S    
C100  O48   A    
Cr7   O27   S    
C91   O3    A    
C10   C26   A    
C21   H45   S    
C96   C108  S    
C33   H61   S    
C59   C60   S    
Cr4   O20   S    
C124  H74   S    
C95   C107  S    
Cr9   O17   S    
C32   H60   S    
C64   C80   A    
Cr7   O7    S    
Cr6   O30   S    
C1    C12   S    
C45   O33   A    
C107  O15   A    
C14   C30   S    
Cr5   O29   S    
C2    C11   S    
Cr12  O36   S    
C110  C117  S    
C39   C91   S    
C108  O16   A    
C44   C103  S    
C109  H37   S    
C109  C118  S    
C51   C59   S    
Cr3   O43   S    
C18   C34   S    
C114  H2    S    
C62   C78   A    
Cr11  O15   S    
C63   C67   A    
C81   H25   S    
C30   C34   S    
C9    C25   A    
C51   C52   A    
C68   C84   S    
C108  O44   A    
O55   C123  S    
C22   C26   A    
C48   C120  S    
C10   C14   A    
C77   H17   S    
C62   C66   A    
C20   C36   S    
C45   O29   A    
C6    H42   S    
C121  H67   S    
C88   H36   S    
C4    O28   A    
C107  O43   A    
Cr3   O23   S    
C92   O40   A    
C40   C92   S    
C116  C120  S    
Cr9   O37   S    
C68   C72   A    
Cr1   O17   S    
C7    C116  S    
C60   H10   S    
C47   O35   A    
C15   C19   A    
C36   H64   S    
C6    C113  S    
C94   C106  S    
C121  H65   S    
Cr10  O10   S    
Cr9   O13   S    
C7    C119  S    
C66   C82   S    
C47   O31   A    
Cr9   O9    S    
C38   C90   S    
C102  O6    A    
C65   C81   S    
C61   C65   A    
C56   H8    S    
C11   C27   A    
C88   H32   S    
Cr8   O32   S    
Cr5   O5    S    
C31   H53   S    
C8    H44   S    
C46   O30   A    
C50   C58   S    
C21   C37   A    
C82   H26   S    
C17   C37   A    
C30   H56   S    
Cr2   O2    S    
C15   C31   S    
C109  C113  S    
C102  O10   A    
Cr1   O1    S    
C114  C118  S    
Cr8   O52   S    
C19   C39   A    
Cr8   O20   S    
Cr4   O44   S    
C71   C87   S    
Cr7   O19   S    
C110  H38   S    
C48   O36   A    
C123  H72   S    
C100  O52   A    
C42   C50   A    
C54   H6    S    
C115  C119  S    
C124  H75   S    
C59   Cl3   S    
C31   C35   S    
C58   Cl2   S    
C61   C100  S    
Cr7   O51   S    
C5    H41   S    
C105  O13   A    
C57   Cl1   S    
C122  H68   S    
C70   C86   S    
C42   C101  S    
C64   C68   A    
C112  C116  S    
C69   C85   S    
C81   H21   S    
C78   H18   S    
C79   H19   S    
Cr2   O42   S    
C113  C117  S    
Cr11  O35   S    
Cr11  O19   S    
C8    C120  S    
C21   C25   A    
C64   C97   S    
C3    O27   A    
Cr2   O22   S    
C46   O34   A    
C20   C40   A    
C74   H14   S    
C60   Cl4   S    
C24   C28   A    
C122  H69   S    
C98   O46   A    
C111  C115  S    
C44   C52   A    
Cr3   O3    S    
C112  C119  S    
C101  O9    A    
C32   C36   S    
Cr12  O12   S    
C116  H4    S    
C35   H63   S    
C29   H57   S    
C16   C32   S    
Cr1   O21   S    
C89   O1    A    
C90   O2    A    
Cr4   O4    S    
C32   H54   S    
C37   C89   S    
C72   C88   S    
C75   H15   S    
C33   O53   S    
O54   C122  S    
C28   H52   S    
C85   H33   S    
Cr11  O39   S    
C25   H49   S    
C3    C10   S    
C101  O5    A    
C109  C110  S    
C76   C96   A    
Cr5   O25   S    
C82   C86   S    
C62   C99   S    
C84   H24   S    
C44   C55   A    
C43   C51   A    
C57   C58   S    
C5    C6    S    
C84   C88   S    
C75   C79   A    
Cr7   O31   S    
C123  H73   S    
C65   C69   A    
C47   C119  S    
C26   H50   S    
Cr12  O40   S    
Cr10  O38   S    
Cr10  O18   S    
C67   C71   A    
C30   H58   S    
C41   C54   A    
C18   C38   A    
C59   H9    S    
C103  O7    A    
C45   C117  S    
C24   C40   A    
Cr10  O14   S    
C97   O45   A    
C13   C17   A    
C82   H22   S    
C113  H1    S    
C29   H55   S    
C43   C56   A    
Cr12  O20   S    
C71   C95   A    
C66   C70   A    
C76   H16   S    
C104  O12   A    
C3    O23   A    
C49   C50   A    
C106  O42   A    
C124  H76   S    
C5    C117  S    
C74   C94   A    
C2    O22   A    
C105  O41   A    
C111  C120  S    
C1    O21   A    
C74   C78   A    
Cr5   O49   S    
C80   H20   S    
C92   O4    A    
C99   O51   A    
C23   C39   A    
C81   C85   S    
C57   H11   S    
C6    C118  S    
O56   C124  S    
C112  H40   S    
C106  O14   A    
