data_mof_unit_29767.cif
_audit_creation_date              2012-12-10T18:20:42-0500
_audit_creation_method            fapswitch 2.2
_symmetry_space_group_name_H-M    P1
_symmetry_Int_Tables_number       1
_space_group_crystal_system       triclinic
_cell_length_a                    15.823842
_cell_length_b                    10.606149
_cell_length_c                    9.509318
_cell_angle_alpha                 88.880011
_cell_angle_beta                  91.925509
_cell_angle_gamma                 90.301526
_cell_volume                      1594.72627483

loop_
_atom_site_label
_atom_site_type_symbol
_atom_type_description
_atom_site_fract_x
_atom_site_fract_y
_atom_site_fract_z
_atom_type_partial_charge
C1    C     C_R   0.500499 0.259688 0.501088 0.770011
C2    C     C_R   0.499503 0.740311 0.498911 0.769442
C3    C     C_3   0.575348 0.956445 0.547772 -0.163861
C4    C     C_3   0.424658 0.043553 0.452222 -0.163808
C5    C     C_3   0.499283 0.877463 0.497447 0.029649
C6    C     C_3   0.500723 0.122536 0.502548 0.029453
C7    C     C_3   0.438849 0.955892 0.582627 -0.173914
C8    C     C_3   0.561157 0.044107 0.417369 -0.174459
C9    C     C_3   0.524304 0.606120 0.048333 0.259664
C10   C     C_3   0.475709 0.393879 0.951663 0.234220
C11   C     C_3   0.449598 0.586394 0.943305 -0.260611
C12   C     C_3   0.550401 0.413610 0.056694 -0.210600
C13   C     C_3   0.574778 0.521869 0.956003 0.498122
C14   C     C_3   0.425221 0.478114 0.043985 0.437663
C15   C     C_R   0.340176 0.499942 0.498064 0.817318
C16   C     C_R   0.659823 0.500071 0.501951 0.819786
C17   C     C_3   0.970663 0.381452 0.477628 -0.204294
C18   C     C_3   0.029340 0.618639 0.522783 -0.205979
C19   C     C_3   0.023136 0.462862 0.376585 0.320777
C20   C     C_3   0.976861 0.537224 0.623827 0.327025
C21   C     C_1   0.250432 0.500077 0.494330 -0.089353
C22   C     C_1   0.749568 0.499968 0.505774 -0.068799
C23   C     C_3   0.031583 0.420169 0.601733 -0.241336
C24   C     C_3   0.968421 0.579919 0.398673 -0.241195
C25   C     C_3   0.083243 0.500587 0.497616 0.075786
C26   C     C_3   0.916761 0.499502 0.502785 0.075311
C27   C     C_1   0.174830 0.500290 0.494326 -0.010553
C28   C     C_1   0.825172 0.499781 0.505934 -0.007923
C29   C     C_3   0.514986 0.037141 0.632932 -0.135370
C30   C     C_3   0.485021 0.962857 0.367062 -0.136507
Cu1   Cu    Cu3+1 0.500020 0.499990 0.643150 1.007079
Cu2   Cu    Cu3+1 0.499980 0.500010 0.356850 1.021284
H1    H     H_    0.945812 0.285186 0.457494 0.150410
H2    H     H_    0.054192 0.714903 0.542928 0.149425
H3    H     H_    0.941800 0.643106 0.314092 0.154436
H4    H     H_    0.058203 0.356970 0.686299 0.163946
H5    H     H_    0.636962 0.917470 0.586741 0.155616
H6    H     H_    0.363043 0.082528 0.413254 0.156328
H7    H     H_    0.528462 0.069741 0.741478 0.170384
H8    H     H_    0.471558 0.930256 0.258510 0.170501
H9    H     H_    0.388795 0.916748 0.650183 0.134682
H10   H     H_    0.611212 0.083250 0.349813 0.136365
H11   H     H_    0.407132 0.657890 0.892091 0.159434
H12   H     H_    0.592890 0.342141 0.107909 0.168400
N1    N     N_3   0.500060 0.499970 0.858290 -0.252611
N2    N     N_3   0.499940 0.500030 0.141710 -0.249017
O1    O     O_R   0.500040 0.316850 0.620870 -0.566283
O2    O     O_R   0.499960 0.683150 0.379130 -0.567915
O3    O     O_R   0.500000 0.316860 0.379090 -0.578408
O4    O     O_R   0.500000 0.683140 0.620910 -0.576037
O5    O     O_R   0.379090 0.499980 0.620870 -0.610621
O6    O     O_R   0.620910 0.500020 0.379130 -0.585013
O7    O     O_R   0.379060 0.499990 0.379090 -0.484942
O8    O     O_R   0.620940 0.500010 0.620910 -0.488637
N3    N     N_2   0.051472 0.423073 0.241379 -0.396706
H13   H     H_    0.093034 0.486131 0.196744 0.290355
C31   C     C_3   0.984890 0.382956 0.144266 -0.645100
H14   H     H_    0.012994 0.349903 0.046193 0.240563
H15   H     H_    0.941542 0.462574 0.117488 0.214576
H16   H     H_    0.948516 0.303602 0.190796 0.235569
N4    N     N_2   0.948497 0.576976 0.759034 -0.409897
H17   H     H_    0.906927 0.513903 0.803628 0.277086
C32   C     C_3   0.015054 0.617092 0.856198 -0.672717
H18   H     H_    0.986921 0.650029 0.954297 0.228223
H19   H     H_    0.051379 0.696533 0.809748 0.237804
H20   H     H_    0.058464 0.537516 0.882900 0.237546
N5    N     N_2   0.552956 0.724820 0.105951 -0.379151
H21   H     H_    0.609420 0.717851 0.162726 0.297573
C33   C     C_3   0.548604 0.832211 0.009967 -0.689117
H22   H     H_    0.574449 0.916911 0.063398 0.213547
H23   H     H_    0.481864 0.851319 0.976980 0.219136
H24   H     H_    0.585998 0.815299 0.915691 0.272560
N6    N     N_2   0.447088 0.275178 0.894009 -0.378554
H25   H     H_    0.390627 0.282114 0.837224 0.292973
C34   C     C_3   0.451517 0.167735 0.989913 -0.678794
H26   H     H_    0.425662 0.083052 0.936461 0.213147
H27   H     H_    0.414174 0.184563 0.084262 0.271987
H28   H     H_    0.518277 0.148650 0.022785 0.216338
S1    S     S_3+6 0.682537 0.549592 0.912530 -0.006801
O9    O     O_2   0.718187 0.433016 0.850009 -0.313191
O10   O     O_2   0.689047 0.659315 0.811035 -0.311563
O11   O     O_3   0.738409 0.582242 0.061012 -0.570507
H29   H     H_    0.797539 0.592498 0.031477 0.363900
S2    S     S_3+6 0.317461 0.449772 0.087472 0.009332
O12   O     O_2   0.311441 0.340455 0.189551 -0.274851
O13   O     O_2   0.280862 0.565683 0.149948 -0.310942
O14   O     O_3   0.261058 0.415122 0.940120 -0.543796
H30   H     H_    0.266410 0.490523 0.877854 0.335002

loop_
_geom_bond_atom_site_label_1
_geom_bond_atom_site_label_2
_ccdc_geom_bond_type
O14   H30   S    
C32   H19   S    
C7    C29   S    
N6    C34   S    
N6    H25   S    
S2    O14   S    
C14   S2    S    
N3    H13   S    
C13   S1    S    
C14   N2    S    
C17   C23   S    
C18   C24   S    
C17   C26   S    
C15   O7    A    
C24   C26   S    
C10   N6    S    
C31   H15   S    
C33   H23   S    
C20   N4    S    
C3    C29   S    
C9    C13   S    
Cu2   O6    S    
C2    O4    A    
C17   C19   S    
C11   H11   S    
C15   O5    A    
C23   C25   S    
C21   C27   T    
C32   H20   S    
C9    N2    S    
Cu1   O1    S    
Cu2   O2    S    
N4    H17   S    
C18   C25   S    
C17   H1    S    
C4    C7    S    
C24   H3    S    
N5    H21   S    
S2    O12   D    
C12   N2    S    
C3    C8    S    
C10   C14   S    
Cu1   O5    S    
S1    O10   D    
C1    O1    A    
C31   H16   S    
C6    C8    S    
C2    O2    A    
C1    C6    S    
N5    C33   S    
C33   H24   S    
C34   H26   S    
C9    N5    S    
C18   H2    S    
Cu1   Cu2   S    
C20   C23   S    
C29   H7    S    
C10   N1    S    
N4    C32   S    
C30   H8    S    
C9    C11   S    
C10   C12   S    
C4    C6    S    
C4    H6    S    
O11   H29   S    
N3    C31   S    
C11   N1    S    
C2    C5    S    
Cu1   O4    S    
Cu2   O7    S    
C5    C7    S    
C5    C30   S    
C19   N3    S    
C16   C22   S    
Cu2   N2    S    
C16   O6    A    
C8    H10   S    
C32   H18   S    
C3    C5    S    
S1    O11   S    
C25   C27   S    
C26   C28   S    
C8    C30   S    
C19   C24   S    
C12   H12   S    
C13   N1    S    
C31   H14   S    
C20   C26   S    
C11   C14   S    
C18   C20   S    
C7    H9    S    
Cu1   O8    S    
C33   H22   S    
C19   C25   S    
C34   H28   S    
C16   O8    A    
Cu2   O3    S    
S1    O9    D    
C15   C21   S    
C6    C29   S    
C12   C13   S    
C3    H5    S    
C23   H4    S    
Cu1   N1    S    
C34   H27   S    
S2    O13   D    
C22   C28   T    
C1    O3    A    
C4    C30   S    
