data_mof_unit_67980.cif
_audit_creation_date              2013-03-05T16:49:25-0500
_audit_creation_method            fapswitch 2.2
_symmetry_space_group_name_H-M    P1
_symmetry_Int_Tables_number       1
_space_group_crystal_system       triclinic
_cell_length_a                    10.961044
_cell_length_b                    9.010984
_cell_length_c                    8.321647
_cell_angle_alpha                 89.682142
_cell_angle_beta                  93.189924
_cell_angle_gamma                 90.496202
_cell_volume                      820.612483675

loop_
_atom_site_label
_atom_site_type_symbol
_atom_site_description
_atom_site_fract_x
_atom_site_fract_y
_atom_site_fract_z
_atom_type_partial_charge
O1    O     O_R   0.499990 0.285340 0.636850 -0.591761
O2    O     O_R   0.500010 0.714660 0.363150 -0.591762
O3    O     O_R   0.500010 0.285350 0.363100 -0.596031
O4    O     O_R   0.499990 0.714650 0.636900 -0.596027
C1    C     C_R   0.499862 0.218734 0.500243 0.931106
C2    C     C_R   0.500138 0.781266 0.499757 0.931096
O5    O     O_R   0.316750 0.500000 0.636870 -0.646454
O6    O     O_R   0.683250 0.500000 0.363130 -0.646457
O7    O     O_R   0.316770 0.500020 0.363120 -0.617867
O8    O     O_R   0.683230 0.499980 0.636880 -0.617867
C3    C     C_R   0.259777 0.501917 0.496200 0.879218
C4    C     C_R   0.740223 0.498086 0.503800 0.879208
Zn1   Zn    Zn3+2 0.499990 0.499990 0.682780 1.033108
Zn2   Zn    Zn3+2 0.500010 0.500010 0.317220 1.033105
H1    H     H_    0.307486 0.372192 0.862515 0.233848
H2    H     H_    0.692510 0.627805 0.137482 0.233840
C5    C     C_R   0.213809 0.532196 0.003655 0.145016
C6    C     C_R   0.786191 0.467803 0.996342 0.145016
C7    C     C_R   0.132868 0.545645 0.122958 -0.176219
C8    C     C_R   0.867132 0.454357 0.877039 -0.176220
H3    H     H_    0.110135 0.655378 0.164536 0.194306
H4    H     H_    0.889865 0.344626 0.835457 0.194299
C9    C     C_R   0.099573 0.420303 0.209187 -0.042265
C10   C     C_R   0.900428 0.579702 0.790813 -0.042259
C11   C     C_R   0.129090 0.277016 0.160332 0.141793
C12   C     C_R   0.870911 0.722987 0.839674 0.141778
C13   C     C_R   0.195758 0.262090 0.022575 0.270567
C14   C     C_R   0.804234 0.737908 0.977421 0.270581
C15   C     C_R   0.243700 0.389408 0.951910 -0.281852
C16   C     C_R   0.756296 0.610590 0.048086 -0.281846
C17   C     C_R   0.927971 0.440104 0.375115 -0.179580
C18   C     C_R   0.072029 0.559905 0.624884 -0.179577
H5    H     H_    0.874286 0.392965 0.277770 0.192373
H6    H     H_    0.125714 0.607044 0.722228 0.192373
C19   C     C_R   0.873355 0.494740 0.508330 -0.088400
C20   C     C_R   0.126646 0.505267 0.491670 -0.088397
C21   C     C_R   0.947578 0.552246 0.635814 0.061125
C22   C     C_R   0.052422 0.447763 0.364185 0.061125
C23   C     C_1   0.499950 0.065219 0.500370 -0.075664
C24   C     C_1   0.500050 0.934781 0.499630 -0.075666
N1    N     N_1   0.500020 0.500030 0.073640 -0.031660
N2    N     N_1   0.499980 0.499970 0.926360 -0.031659
I1    I     I_    0.296208 0.734310 0.930687 -0.130080
I2    I     I_    0.703795 0.265688 0.069311 -0.130100
I3    I     I_    0.095820 0.090455 0.311465 -0.174644
I4    I     I_    0.904199 0.909562 0.688571 -0.174648
N3    N     N_R   0.218588 0.119369 0.956344 0.227993
O9    O     O_R   0.315820 0.098111 0.876756 -0.363425
O10   O     O_R   0.130892 0.021310 0.946175 -0.314520
N4    N     N_R   0.781387 0.880629 0.043640 0.227966
O11   O     O_R   0.684111 0.901895 0.123149 -0.363414
O12   O     O_R   0.869108 0.978670 0.053893 -0.314521

loop_
_geom_bond_atom_site_label_1
_geom_bond_atom_site_label_2
_geom_bond_distance
_ccdc_geom_bond_type
C7    C9    1.391684 A    
O7    Zn2   2.065275 S    
C17   H5    1.062704 S    
C7    H3    1.084983 S    
C6    C16   1.406201 A    
C6    I2    2.126413 S    
C11   C13   1.401033 A    
C9    C22   1.439430 S    
C5    C15   1.406206 A    
N1    N2    1.225590 T    
C12   C14   1.401021 A    
N3    O9    1.301803 A    
C17   C22   1.373296 A    
O6    C4    1.295842 A    
C14   C16   1.398060 A    
N4    O11   1.301865 A    
N3    O10   1.299606 A    
C18   C21   1.373298 A    
C4    C19   1.458215 S    
O5    C3    1.295841 A    
O7    C3    1.301680 A    
O2    C2    1.288376 A    
O3    Zn2   1.969538 S    
O8    C4    1.301680 A    
Zn2   N1    2.026992 S    
O1    C1    1.288377 A    
C18   C20   1.383733 A    
C20   C22   1.399503 A    
Zn1   N2    2.026992 S    
C5    C7    1.374288 A    
C10   C12   1.401688 A    
H1    C15   1.061769 S    
C6    C8    1.374290 A    
C9    C11   1.401687 A    
O2    Zn2   1.973690 S    
C17   C19   1.383733 A    
N4    O12   1.299715 A    
O1    Zn1   1.973688 S    
C12   I4    2.134888 S    
H2    C16   1.061769 S    
C11   I3    2.134902 S    
O5    Zn1   2.023522 S    
C2    C24   1.383318 S    
C13   C15   1.398068 A    
C5    I1    2.126424 S    
O4    C2    1.286617 A    
C13   N3    1.431475 S    
C23   C24   1.175443 T    
C1    C23   1.383318 S    
C3    C20   1.458213 S    
O6    Zn2   2.023522 S    
C10   C21   1.439431 S    
C19   C21   1.399506 A    
C14   N4    1.431465 S    
C8    C10   1.391686 A    
O4    Zn1   1.969539 S    
C8    H4    1.084983 S    
O3    C1    1.286616 A    
O8    Zn1   2.065275 S    
C18   H6    1.062704 S    
