data_mof_unit_22261.cif
_audit_creation_date              2013-03-05T16:48:40-0500
_audit_creation_method            fapswitch 2.2
_symmetry_space_group_name_H-M    P1
_symmetry_Int_Tables_number       1
_space_group_crystal_system       triclinic
_cell_length_a                    27.732068
_cell_length_b                    8.912712
_cell_length_c                    8.098364
_cell_angle_alpha                 90.11058
_cell_angle_beta                  90.002967
_cell_angle_gamma                 89.999508
_cell_volume                      2001.65217809

loop_
_atom_site_label
_atom_site_type_symbol
_atom_site_description
_atom_site_fract_x
_atom_site_fract_y
_atom_site_fract_z
_atom_type_partial_charge
O1    O     O_R   0.500000 0.285350 0.636850 -0.612278
O2    O     O_R   0.500000 0.714650 0.363150 -0.612232
O3    O     O_R   0.500000 0.714650 0.636850 -0.617061
O4    O     O_R   0.500000 0.285350 0.363150 -0.617183
C1    C     C_R   0.500000 0.218001 0.499899 0.941908
C2    C     C_R   0.500000 0.781999 0.500101 0.942124
O5    O     O_R   0.428760 0.500000 0.636860 -0.619123
O6    O     O_R   0.571240 0.500000 0.363140 -0.618945
O7    O     O_R   0.571240 0.500000 0.636860 -0.618896
O8    O     O_R   0.428760 0.500000 0.363140 -0.619191
C3    C     C_R   0.405841 0.499917 0.499985 0.900771
C4    C     C_R   0.594152 0.499915 0.499995 0.900143
Zn1   Zn    Zn3+2 0.500000 0.500000 0.682780 1.008527
Zn2   Zn    Zn3+2 0.500000 0.500000 0.317220 1.008438
C5    C     C_R   0.177790 0.372836 0.552401 0.566926
C6    C     C_R   0.822106 0.615553 0.429582 0.566803
C7    C     C_R   0.177775 0.622047 0.444925 0.566774
C8    C     C_R   0.822121 0.379416 0.568179 0.566945
O9    O     O_2   0.202888 0.252543 0.605838 -0.510096
O10   O     O_2   0.796986 0.729855 0.362236 -0.512146
O11   O     O_2   0.202862 0.742488 0.391842 -0.510175
O12   O     O_2   0.797015 0.265311 0.635983 -0.512089
N1    N     N_R   0.201660 0.497558 0.498960 -0.349037
N2    N     N_R   0.798260 0.497608 0.499163 -0.348891
C9    C     C_R   0.277999 0.564008 0.631708 0.208941
C10   C     C_R   0.721715 0.430896 0.368508 0.206930
C11   C     C_R   0.278272 0.432275 0.367494 0.208775
C12   C     C_R   0.721972 0.565467 0.630947 0.207164
C13   C     C_R   0.328116 0.562964 0.632251 -0.228789
C14   C     C_R   0.671609 0.433266 0.368292 -0.228829
C15   C     C_R   0.328377 0.434746 0.367353 -0.228984
C16   C     C_R   0.671854 0.564484 0.631461 -0.228712
C17   C     C_R   0.253013 0.497820 0.499471 0.193979
C18   C     C_R   0.746932 0.497867 0.499625 0.195224
C19   C     C_R   0.101775 0.497189 0.498013 -0.048734
C20   C     C_R   0.898124 0.497188 0.498157 -0.049140
C21   C     C_R   0.127388 0.369730 0.551527 -0.028087
C22   C     C_R   0.872511 0.617965 0.428422 -0.029860
C23   C     C_R   0.127371 0.624786 0.444847 -0.027997
C24   C     C_R   0.872528 0.376571 0.568304 -0.029926
C25   C     C_R   0.102349 0.241957 0.601474 -0.120643
C26   C     C_R   0.897554 0.737651 0.358406 -0.118138
C27   C     C_R   0.102318 0.752364 0.394364 -0.120672
C28   C     C_R   0.897590 0.256643 0.637730 -0.118186
C29   C     C_R   0.353392 0.499255 0.499872 -0.110185
C30   C     C_R   0.646591 0.499264 0.499922 -0.109777
C31   C     C_R   0.974440 0.371766 0.563066 0.043897
C32   C     C_R   0.025458 0.625363 0.439894 0.046322
C33   C     C_R   0.974426 0.622265 0.432285 0.043884
C34   C     C_R   0.025470 0.368693 0.555376 0.046312
C35   C     C_R   0.949207 0.497059 0.497808 0.076669
C36   C     C_R   0.050691 0.497072 0.497730 0.077556
C37   C     C_R   0.947555 0.254070 0.635567 -0.216424
C38   C     C_R   0.052347 0.753303 0.392780 -0.219523
C39   C     C_R   0.947522 0.739956 0.359859 -0.216476
C40   C     C_R   0.052378 0.240789 0.602492 -0.219561
C41   C     C_1   0.500000 0.065229 0.499856 -0.174084
C42   C     C_1   0.500000 0.934771 0.500143 -0.174121
N3    N     N_1   0.500000 0.500000 0.073640 -0.027664
N4    N     N_1   0.500000 0.500000 0.926360 -0.027640
H1    H     H_    0.347730 0.384137 0.265246 0.184255
H2    H     H_    0.652696 0.616866 0.732916 0.183976
H3    H     H_    0.347265 0.614112 0.734491 0.184247
H4    H     H_    0.652258 0.381415 0.266931 0.183968
I1    I     I_    0.242207 0.327699 0.167149 -0.216492
I2    I     I_    0.758617 0.671572 0.829021 -0.214444
I3    I     I_    0.241494 0.667732 0.831632 -0.216562
I4    I     I_    0.757949 0.323945 0.170101 -0.214362
H5    H     H_    0.121303 0.141476 0.639567 0.198938
H6    H     H_    0.878602 0.830639 0.301837 0.200082
H7    H     H_    0.121259 0.852912 0.356402 0.198907
H8    H     H_    0.878658 0.163711 0.694472 0.200040
H9    H     H_    0.963943 0.159156 0.695437 0.146867
H10   H     H_    0.035968 0.857792 0.356884 0.144089
H11   H     H_    0.963893 0.834715 0.299636 0.146887
H12   H     H_    0.036011 0.136205 0.638095 0.144087

loop_
_geom_bond_atom_site_label_1
_geom_bond_atom_site_label_2
_geom_bond_distance
_ccdc_geom_bond_type
O5    Zn1   2.010309 S    
C13   H3    1.083452 S    
C5    O9    1.350165 S    
C40   H12   1.076591 S    
C14   H4    1.083442 S    
C15   H1    1.083461 S    
C19   C23   1.408726 A    
C9    I3    2.120199 S    
O3    C2    1.260679 A    
Zn1   N4    1.972600 S    
C11   C17   1.404259 A    
C32   C38   1.415496 A    
Zn2   N3    1.972600 S    
C7    N1    1.364961 A    
O1    C1    1.260083 A    
C19   C21   1.408798 A    
C22   C26   1.394316 A    
C26   H6    1.083700 S    
O7    Zn1   2.010344 S    
C7    C23   1.398015 A    
C2    C42   1.361612 S    
C5    C21   1.398054 A    
C20   C24   1.408775 A    
C8    C24   1.398126 A    
C38   H10   1.076630 S    
C28   C37   1.385933 A    
C10   C18   1.403666 A    
N1    C17   1.424127 S    
N2    C18   1.423455 S    
C34   C36   1.420717 A    
O3    Zn1   1.949641 S    
O6    C4    1.277507 A    
C31   C37   1.415420 A    
C39   H11   1.076514 S    
C5    N1    1.364942 A    
C12   C18   1.403833 A    
N3    N4    1.192726 T    
C6    N2    1.364626 A    
C21   C25   1.394435 A    
O2    C2    1.260082 A    
O5    C3    1.277723 A    
C31   C34   1.416813 A    
C9    C13   1.389886 A    
C11   C15   1.389685 A    
C12   C16   1.389904 A    
C27   H7    1.083783 S    
C4    C30   1.454242 S    
O8    Zn2   2.010346 S    
C31   C35   1.420633 A    
C33   C35   1.420671 A    
C33   C39   1.415378 A    
C7    O11   1.350170 S    
C13   C29   1.400263 A    
C12   I2    2.119931 S    
C25   C40   1.385888 A    
C11   I1    2.120236 S    
C26   C39   1.385912 A    
C27   C38   1.385891 A    
C32   C36   1.420738 A    
C6    O10   1.350080 S    
C20   C35   1.416668 A    
C32   C33   1.416811 A    
C10   C14   1.389727 A    
C8    N2    1.364598 A    
C3    C29   1.454556 S    
O1    Zn1   1.948233 S    
C25   H5    1.083747 S    
O6    Zn2   2.010306 S    
C8    O12   1.350081 S    
C16   C30   1.400364 A    
C14   C30   1.400470 A    
C37   H9    1.076482 S    
O4    C1    1.260678 A    
C23   C27   1.394466 A    
C1    C41   1.361610 S    
C10   I4    2.119964 S    
C20   C22   1.408713 A    
C16   H2    1.083442 S    
C41   C42   1.162739 T    
C28   H8    1.083676 S    
O4    Zn2   1.949642 S    
O2    Zn2   1.948232 S    
O7    C4    1.277624 A    
C34   C40   1.415476 A    
O8    C3    1.277573 A    
C24   C28   1.394260 A    
C15   C29   1.400390 A    
C6    C22   1.398033 A    
C19   C36   1.416656 A    
C9    C17   1.404456 A    
