data_mof_unit_52679.cif
_audit_creation_date              2012-10-26T20:31:19-0400
_audit_creation_method            fapswitch 2.2
_symmetry_space_group_name_H-M    P1
_symmetry_Int_Tables_number       1
_space_group_crystal_system       triclinic
_cell_length_a                    11.662777
_cell_length_b                    11.063255
_cell_length_c                    9.560318
_cell_angle_alpha                 90.614011
_cell_angle_beta                  89.778944
_cell_angle_gamma                 91.27881
_cell_volume                      1233.16521551

loop_
_atom_site_label
_atom_site_type_symbol
_atom_type_description
_atom_site_fract_x
_atom_site_fract_y
_atom_site_fract_z
_atom_type_partial_charge
C1    C     C_R   0.500215 0.261909 0.499108 0.533079
C2    C     C_R   0.402131 0.477188 0.074217 -0.035093
C3    C     C_R   0.402128 0.477442 0.925973 -0.023468
C4    C     C_R   0.284135 0.502027 0.500089 0.519196
C5    C     C_R   0.601581 0.506118 0.926858 0.162950
C6    C     C_3   0.696365 0.602865 0.924131 0.494781
C7    C     C_3   0.682330 0.616713 0.081998 -0.180103
C8    C     C_R   0.491247 0.736464 0.500395 0.551768
C9    C     C_R   0.715943 0.501333 0.499707 0.533892
C10   C     C_1   0.162552 0.505202 0.499872 -0.047988
C11   C     C_1   0.060026 0.506877 0.498987 -0.068627
C12   C     C_R   0.500400 0.127770 0.495989 -0.064626
C13   C     C_1   0.940244 0.506241 0.498592 -0.068751
C14   C     C_1   0.837658 0.504218 0.498876 -0.048103
C15   C     C_R   0.496358 0.060177 0.620219 -0.016190
C16   C     C_3   0.524650 0.113570 0.225076 -0.217464
C17   C     C_3   0.419283 0.165524 0.154407 -0.353053
C18   C     C_3   0.748132 0.765558 0.774386 0.083323
C19   C     C_3   0.834556 0.835231 0.868025 -0.263407
C20   C     C_3   0.940832 0.875014 0.785035 -0.500464
C21   C     C_3   0.323542 0.879624 0.233755 0.002189
C22   C     C_3   0.261783 0.760987 0.270898 -0.239727
C23   C     C_R   0.497825 0.058929 0.367317 -0.031620
C24   C     C_3   0.134368 0.764451 0.235290 -0.502526
C25   C     C_3   0.333490 0.875358 0.810880 -0.300754
C26   C     C_3   0.333485 0.746019 0.862432 -0.425660
C27   C     C_3   0.275477 0.125113 0.746432 -0.015913
C28   C     C_3   0.216414 0.244958 0.731996 -0.255107
C29   C     C_3   0.094603 0.227222 0.676030 -0.503607
C30   C     C_3   0.651913 0.171515 0.827343 0.007725
C31   C     C_3   0.746239 0.117073 0.734198 -0.291156
C32   C     C_3   0.790813 0.201845 0.620626 -0.465524
C33   C     C_3   0.837420 0.444094 0.896703 -0.011876
C34   C     C_R   0.477156 0.931597 0.370914 0.248848
C35   C     C_3   0.879339 0.409519 0.042720 -0.285805
C36   C     C_3   0.948440 0.293974 0.038559 -0.487139
C37   C     C_R   0.480570 0.868229 0.498476 -0.020010
C38   C     C_R   0.479067 0.937563 0.619529 -0.128360
C39   C     C_3   0.453691 0.926047 0.771794 -0.043953
C40   C     C_3   0.473739 0.066283 0.777623 0.542073
C41   C     C_R   0.599625 0.512793 0.073883 0.069709
Cu1   Cu    Cu3+1 0.499990 0.499980 0.640670 0.940900
Cu2   Cu    Cu3+1 0.500010 0.500020 0.359330 0.914912
H1    H     H_    0.760025 0.597883 0.143675 0.107584
H2    H     H_    0.560962 0.044119 0.153718 0.201107
H3    H     H_    0.707086 0.830329 0.703945 0.112322
H4    H     H_    0.791156 0.700900 0.702647 0.183459
H5    H     H_    0.792220 0.914773 0.915145 0.155798
H6    H     H_    0.863164 0.778939 0.956083 0.195550
H7    H     H_    0.989750 0.794656 0.751355 0.165637
H8    H     H_    0.997146 0.933553 0.851795 0.131405
H9    H     H_    0.916484 0.926204 0.690837 0.136351
H10   H     H_    0.306781 0.897057 0.122776 0.141381
H11   H     H_    0.284451 0.955856 0.293633 0.105246
H12   H     H_    0.639696 0.701583 0.114513 0.159767
H13   H     H_    0.301145 0.685786 0.211398 0.201379
H14   H     H_    0.270419 0.744654 0.384622 0.160509
H15   H     H_    0.092098 0.836317 0.297495 0.141819
H16   H     H_    0.092594 0.676106 0.260107 0.158017
H17   H     H_    0.122453 0.781951 0.122138 0.139933
H18   H     H_    0.338896 0.682968 0.773085 0.214783
H19   H     H_    0.404789 0.732646 0.936987 0.191646
H20   H     H_    0.251349 0.725115 0.917109 0.109594
H21   H     H_    0.302225 0.928221 0.900880 0.149950
H22   H     H_    0.272559 0.880540 0.722113 0.128850
H23   H     H_    0.522802 0.876993 0.824870 0.208928
H24   H     H_    0.214939 0.069693 0.809389 0.125213
H25   H     H_    0.284363 0.083791 0.640699 0.115827
H26   H     H_    0.212402 0.290801 0.835665 0.155905
H27   H     H_    0.266778 0.300448 0.658361 0.206254
H28   H     H_    0.096518 0.190556 0.567446 0.145013
H29   H     H_    0.051155 0.315129 0.676415 0.154392
H30   H     H_    0.043856 0.164576 0.743434 0.142250
H31   H     H_    0.693293 0.204374 0.925255 0.117270
H32   H     H_    0.613363 0.252078 0.784800 0.195665
H33   H     H_    0.819918 0.094152 0.800913 0.137741
H34   H     H_    0.322195 0.460003 0.128555 0.116309
H35   H     H_    0.714763 0.032928 0.682547 0.171013
H36   H     H_    0.833122 0.282814 0.667091 0.140430
H37   H     H_    0.855088 0.154379 0.555464 0.135965
H38   H     H_    0.720792 0.229853 0.551510 0.163741
H39   H     H_    0.908833 0.429999 0.821673 0.163746
H40   H     H_    0.766802 0.384449 0.860503 0.108173
H41   H     H_    0.934567 0.483806 0.086469 0.177388
H42   H     H_    0.804844 0.394555 0.113477 0.150290
H43   H     H_    0.896283 0.217766 0.994523 0.138460
H44   H     H_    0.974513 0.270537 0.146343 0.147450
H45   H     H_    0.321959 0.463673 0.871968 0.116490
H46   H     H_    0.027015 0.307285 0.974184 0.146679
H47   H     H_    0.361256 0.209985 0.230383 0.148005
H48   H     H_    0.447936 0.232302 0.075273 0.190752
H49   H     H_    0.369811 0.093457 0.099008 0.161542
H50   H     H_    0.594943 0.182485 0.233883 0.146684
N1    N     N_R   0.500710 0.500930 0.147930 -0.236069
N2    N     N_R   0.500710 0.500890 0.852020 -0.234780
O1    O     O_R   0.500000 0.319640 0.618810 -0.498047
O2    O     O_3   0.444223 0.870840 0.249709 -0.554153
O3    O     O_3   0.380631 0.141211 0.820757 -0.557840
O4    O     O_3   0.569844 0.083432 0.868278 -0.588599
O5    O     O_3   0.811396 0.568000 0.889185 -0.600762
O6    O     O_R   0.500010 0.319680 0.381230 -0.505383
O7    O     O_R   0.337190 0.499990 0.618790 -0.536812
O8    O     O_R   0.337200 0.500030 0.381210 -0.518074
O9    O     O_R   0.499990 0.680320 0.618770 -0.486417
O10   O     O_R   0.500000 0.680360 0.381190 -0.455456
O11   O     O_R   0.662800 0.499970 0.618790 -0.483430
O12   O     O_R   0.662810 0.500010 0.381210 -0.506958
O13   O     O_3   0.660195 0.708440 0.854337 -0.566149

loop_
_geom_bond_atom_site_label_1
_geom_bond_atom_site_label_2
_ccdc_geom_bond_type
C36   H46   S    
C27   O3    S    
C34   C37   A    
C11   C13   S    
C28   H26   S    
C17   H48   S    
C7    H12   S    
C26   H20   S    
C18   H4    S    
Cu2   N1    S    
C40   O4    S    
C32   H38   S    
C17   H49   S    
C12   C23   A    
C16   H50   S    
Cu1   O1    S    
C28   C29   S    
C26   H18   S    
C20   H8    S    
C1    O1    A    
C40   O3    S    
C30   C31   S    
C30   H31   S    
C29   H30   S    
C4    O8    A    
Cu1   O7    S    
C34   O2    S    
C21   O2    S    
C18   C19   S    
Cu2   O10   S    
C20   H7    S    
C27   H25   S    
C31   C32   S    
C16   C17   S    
C4    O7    A    
C33   H39   S    
C29   H29   S    
C13   C14   T    
C8    O10   A    
C1    C12   S    
C22   H14   S    
C18   H3    S    
C5    N2    A    
C18   O13   S    
C36   H44   S    
C38   C39   S    
Cu1   N2    S    
C2    N1    A    
C25   H22   S    
C39   C40   S    
C19   H5    S    
C22   H13   S    
C36   H43   S    
C9    O11   A    
C30   O4    S    
C35   C36   S    
C6    O5    S    
C9    C14   S    
Cu2   O6    S    
C15   C38   A    
C37   C38   A    
C32   H37   S    
C8    O9    A    
C19   H6    S    
C41   N1    A    
C12   C15   A    
C24   H17   S    
C23   C34   A    
Cu2   O12   S    
C7    H1    S    
C33   H40   S    
C16   C23   S    
C39   H23   S    
C22   C24   S    
C8    C37   S    
C4    C10   S    
C1    O6    A    
C31   H35   S    
C5    C41   A    
C3    H45   S    
C28   H27   S    
C17   H47   S    
Cu1   O9    S    
C16   H2    S    
C35   H41   S    
C6    C7    S    
C9    O12   A    
C21   H11   S    
C33   O5    S    
C19   C20   S    
C2    C3    A    
C25   C26   S    
C20   H9    S    
C2    H34   S    
C25   C39   S    
C32   H36   S    
C21   H10   S    
C30   H32   S    
C35   H42   S    
C31   H33   S    
C5    C6    S    
C24   H16   S    
C33   C35   S    
C7    C41   S    
C26   H19   S    
Cu2   O8    S    
C15   C40   S    
C27   H24   S    
C10   C11   T    
Cu1   O11   S    
C24   H15   S    
Cu1   Cu2   S    
C27   C28   S    
C6    O13   S    
C3    N2    A    
C21   C22   S    
C25   H21   S    
C29   H28   S    
