data_mof_unit_27161.cif
_audit_creation_date              2012-12-11T14:12:19-0500
_audit_creation_method            fapswitch 2.2
_symmetry_space_group_name_H-M    P1
_symmetry_Int_Tables_number       1
_space_group_crystal_system       triclinic
_cell_length_a                    14.713487
_cell_length_b                    16.299279
_cell_length_c                    6.931608
_cell_angle_alpha                 89.897845
_cell_angle_beta                  99.030525
_cell_angle_gamma                 90.003766
_cell_volume                      1641.72539094

loop_
_atom_site_label
_atom_site_type_symbol
_atom_type_description
_atom_site_fract_x
_atom_site_fract_y
_atom_site_fract_z
_atom_type_partial_charge
O1    O     O_R   0.584460 0.414130 0.534110 -0.557850
O2    O     O_R   0.584460 0.585870 0.534110 -0.555444
O3    O     O_R   0.595580 0.585780 0.208030 -0.537511
O4    O     O_R   0.595580 0.414220 0.208030 -0.541270
O5    O     O_R   0.415540 0.585790 0.977250 -0.539962
O6    O     O_R   0.415540 0.414210 0.977250 -0.540374
C1    C     C_R   0.621053 0.610325 0.386972 0.668310
C2    C     C_R   0.613194 0.383360 0.383762 0.669919
O7    O     O_3   0.440930 0.500000 0.319360 -0.354921
V1    V     V_3+5 0.510960 0.500000 0.068030 1.449841
O8    O     O_R   0.404420 0.414140 0.643900 -0.533597
O9    O     O_R   0.404420 0.585860 0.643900 -0.531765
C3    C     C_R   0.383204 0.385470 0.806644 0.771176
C4    C     C_R   0.383027 0.614458 0.806468 0.771957
V2    V     V_3+5 0.489040 0.500000 0.560660 1.470685
O10   O     O_3   0.559070 0.500000 0.859200 -0.387511
C5    C     C_2   0.315714 0.682863 0.797064 -0.331597
C6    C     C_2   0.315973 0.317113 0.797291 -0.331068
C7    C     C_2   0.291957 0.716850 0.959441 -0.074858
C8    C     C_2   0.293054 0.282257 0.959559 -0.068696
C9    C     C_2   0.186862 0.810883 0.110037 -0.166334
C10   C     C_2   0.187834 0.188365 0.109981 -0.165922
C11   C     C_2   0.224524 0.785712 0.952510 -0.121920
C12   C     C_2   0.225141 0.213827 0.952200 -0.134720
C13   C     C_2   0.806883 0.771421 0.332417 0.031228
C14   C     C_2   0.773125 0.201223 0.317337 0.040415
C15   C     C_2   0.820744 0.822038 0.490366 -0.291522
C16   C     C_2   0.824945 0.181215 0.491760 -0.238731
C17   C     C_2   0.724919 0.717129 0.300207 -0.128664
C18   C     C_2   0.720608 0.279339 0.294876 -0.241501
C19   C     C_2   0.703542 0.662689 0.433064 -0.225278
C20   C     C_2   0.664021 0.304930 0.418333 -0.139209
O11   O     O_R   0.925070 0.912130 0.373190 -0.550935
O12   O     O_R   0.925070 0.087870 0.373190 -0.528080
O13   O     O_R   0.914170 0.083600 0.699490 -0.541077
O14   O     O_R   0.914170 0.916400 0.699490 -0.522738
O15   O     O_R   0.094290 0.084740 0.929940 -0.540443
O16   O     O_R   0.094290 0.915260 0.929940 -0.535407
C21   C     C_R   0.890256 0.111954 0.522674 0.773633
C22   C     C_R   0.893121 0.885590 0.524448 0.749449
O17   O     O_3   0.068710 0.000000 0.587750 -0.390521
V3    V     V_3+5 0.998820 1.000000 0.839270 1.492613
O18   O     O_R   0.105520 0.913050 0.263180 -0.561266
O19   O     O_R   0.105520 0.086950 0.263180 -0.557013
C23   C     C_R   0.125974 0.884631 0.099912 0.662320
C24   C     C_R   0.126235 0.115150 0.099811 0.660431
V4    V     V_3+5 0.020980 1.000000 0.346670 1.451079
O20   O     O_3   0.950820 0.000000 0.048230 -0.345874
H1    H     H_    0.208270 0.819008 0.815487 0.126917
H2    H     H_    0.208048 0.181256 0.814648 0.127901
H3    H     H_    0.324803 0.694544 0.100778 0.184700
H4    H     H_    0.326708 0.303661 0.100926 0.186066
C25   C     C_2   0.197956 0.763221 0.295307 0.362876
H5    H     H_    0.196673 0.794834 0.432398 0.033704
O21   O     O_2   0.201955 0.688384 0.295646 -0.512281
C26   C     C_2   0.200417 0.235192 0.296062 0.360381
H6    H     H_    0.200636 0.202934 0.433120 0.035533
O22   O     O_2   0.204078 0.310045 0.297227 -0.519313
H7    H     H_    0.285453 0.705793 0.655206 0.163052
H8    H     H_    0.284900 0.295025 0.655446 0.165437
C27   C     C_2   0.871621 0.765421 0.188481 0.477682
H9    H     H_    0.943249 0.782860 0.226815 0.049244
O23   O     O_2   0.845849 0.737933 0.025449 -0.528138
C28   C     C_2   0.764261 0.149037 0.139984 0.455590
H10   H     H_    0.752118 0.177588 0.996625 0.026228
O24   O     O_2   0.763722 0.074278 0.151251 -0.507668
H11   H     H_    0.773317 0.819220 0.595666 0.155969
H12   H     H_    0.823877 0.221249 0.616534 0.107066
H13   H     H_    0.681794 0.720699 0.157950 0.142191
H14   H     H_    0.726757 0.316108 0.166585 0.120894
C29   C     C_2   0.764541 0.646447 0.622352 0.461981
H15   H     H_    0.735532 0.622410 0.745523 0.070503
O25   O     O_2   0.847873 0.655047 0.639797 -0.492009
C30   C     C_2   0.641832 0.253067 0.582754 0.370580
H16   H     H_    0.624263 0.281776 0.713173 0.037971
O26   O     O_2   0.637885 0.178386 0.570201 -0.512538

loop_
_geom_bond_atom_site_label_1
_geom_bond_atom_site_label_2
_ccdc_geom_bond_type
C9    C25   S    
O1    C2    A    
O17   V3    S    
O14   V3    S    
O2    C1    A    
O4    C2    A    
C25   H5    S    
C30   O26   D    
C3    C6    S    
C16   H12   S    
O16   V3    S    
O3    C1    A    
C20   C30   S    
O13   C21   A    
C11   H1    S    
V2    O10   S    
C26   H6    S    
O15   V3    S    
C27   O23   D    
O13   V3    S    
C14   C28   S    
O16   C23   A    
O8    V2    S    
C8    C12   S    
O1    V2    S    
O7    V1    S    
C17   H13   S    
O19   V4    S    
C19   C29   S    
C13   C17   S    
C4    C5    S    
C18   H14   S    
O19   C24   A    
C9    C23   S    
C25   O21   D    
C12   H2    S    
O11   C22   A    
C1    C19   S    
C30   H16   S    
O12   C21   A    
C2    C20   S    
O14   C22   A    
C29   O25   D    
V3    O20   S    
C16   C21   S    
C28   O24   D    
C7    C11   S    
V4    O20   S    
O9    V2    S    
C15   C22   S    
O17   V4    S    
C13   C27   S    
O2    V2    S    
O18   C23   A    
O5    C4    A    
C5    H7    S    
C6    H8    S    
C10   C24   S    
O9    C4    A    
C14   C18   S    
C9    C11   D    
O11   V4    S    
C10   C12   D    
O4    V1    S    
O6    V1    S    
C10   C26   S    
C13   C15   D    
C14   C16   D    
C28   H10   S    
O7    V2    S    
O5    V1    S    
C17   C19   D    
O3    V1    S    
V1    O10   S    
O6    C3    A    
C18   C20   D    
O8    C3    A    
C5    C7    D    
C26   O22   D    
C6    C8    D    
C27   H9    S    
C15   H11   S    
C7    H3    S    
C29   H15   S    
C8    H4    S    
O12   V4    S    
O15   C24   A    
O18   V4    S    
