data_mof_unit_61310.cif
_audit_creation_date              2012-12-11T15:02:45-0500
_audit_creation_method            fapswitch 2.2
_symmetry_space_group_name_H-M    P1
_symmetry_Int_Tables_number       1
_space_group_crystal_system       triclinic
_cell_length_a                    13.267244
_cell_length_b                    13.272859
_cell_length_c                    26.782031
_cell_angle_alpha                 96.632081
_cell_angle_beta                  96.846924
_cell_angle_gamma                 61.208896
_cell_volume                      4094.52933555

loop_
_atom_site_label
_atom_site_type_symbol
_atom_type_description
_atom_site_fract_x
_atom_site_fract_y
_atom_site_fract_z
_atom_type_partial_charge
C1    C     C_R   0.378959 0.723126 0.434908 0.545944
C2    C     C_3   0.846651 0.312014 0.197816 0.054513
C3    C     C_3   0.849770 0.408356 0.268504 -0.121097
C4    C     C_R   0.394699 0.373224 0.417902 0.543112
C5    C     C_3   0.823325 0.327651 0.294743 0.000271
C6    C     C_3   0.755696 0.418497 0.226117 -0.154259
C7    C     C_3   0.728501 0.338149 0.253199 -0.077761
C8    C     C_1   0.865828 0.302958 0.144925 -0.009987
C9    C     C_1   0.803513 0.343146 0.347837 -0.046422
C10   C     C_3   0.370439 0.907040 0.271655 -0.099722
C11   C     C_3   0.446187 0.811870 0.232913 -0.100112
C12   C     C_1   0.330914 0.340146 0.268232 -0.006594
C13   C     C_1   0.306356 0.887512 0.101220 -0.002785
C14   C     C_1   0.362181 0.772358 0.388297 -0.008130
C15   C     C_3   0.262367 0.936520 0.234730 -0.095584
C16   C     C_R   0.724792 0.399052 0.437154 0.545515
C17   C     C_3   0.338284 0.840897 0.196928 0.049468
C18   C     C_3   0.240203 0.847626 0.257436 -0.093086
C19   C     C_3   0.347970 0.818542 0.293503 0.045135
C20   C     C_3   0.315846 0.752490 0.218863 -0.095038
C21   C     C_3   0.423957 0.722893 0.255742 -0.103462
C22   C     C_1   0.326013 0.859983 0.143758 -0.046413
C23   C     C_1   0.344511 0.347587 0.321160 -0.044495
C24   C     C_1   0.353811 0.799621 0.346315 -0.052831
C25   C     C_3   0.344472 0.240062 0.721570 -0.074489
C26   C     C_3   0.420921 0.262433 0.765077 -0.150141
C27   C     C_1   0.296299 0.309555 0.887571 0.011395
C28   C     C_R   0.381418 0.724618 0.575465 0.543559
C29   C     C_1   0.361554 0.359474 0.603556 -0.002684
C30   C     C_3   0.237336 0.318397 0.750830 0.425613
C31   C     C_3   0.312930 0.340269 0.793721 0.048255
C32   C     C_3   0.218444 0.425519 0.725714 -0.073616
C33   C     C_3   0.326839 0.347276 0.697345 -0.002138
C34   C     C_1   0.362703 0.356459 0.366056 -0.005299
C35   C     C_3   0.295310 0.447362 0.769404 -0.149972
C36   C     C_3   0.403750 0.369632 0.740035 -0.123894
C37   C     C_1   0.304850 0.328833 0.846147 -0.009265
C38   C     C_1   0.341360 0.351842 0.644933 -0.043439
C39   C     C_1   0.889121 0.294460 0.864746 0.007314
C40   C     C_R   0.395467 0.375858 0.558115 0.544039
C41   C     C_1   0.861683 0.306138 0.820394 -0.016564
C42   C     C_1   0.838870 0.320002 0.768083 0.033119
C43   C     C_1   0.821803 0.333406 0.723523 0.028182
C44   C     C_1   0.799053 0.352398 0.671638 -0.026240
C45   C     C_3   0.914583 0.220791 0.266686 -0.081684
C46   C     C_1   0.771738 0.372853 0.627931 -0.000818
C47   C     C_1   0.293380 0.893853 0.863141 0.001220
C48   C     C_1   0.313051 0.866316 0.819468 -0.030790
C49   C     C_1   0.330630 0.842888 0.767557 0.009558
C50   C     C_1   0.342717 0.825017 0.722961 0.006756
C51   C     C_1   0.355222 0.801152 0.670672 -0.036075
C52   C     C_R   0.724224 0.403583 0.577626 0.543634
C53   C     C_1   0.366225 0.772911 0.626429 -0.003134
C54   C     C_R   0.941693 0.278314 0.056485 0.542272
C55   C     C_R   0.288036 0.271376 0.073258 0.543328
C56   C     C_3   0.820524 0.232574 0.224456 0.429075
C57   C     C_R   0.270865 0.937177 0.053859 0.543706
C58   C     C_R   0.936835 0.279408 0.915939 0.546481
C59   C     C_R   0.281663 0.274248 0.933044 0.548035
C60   C     C_R   0.262742 0.941046 0.913318 0.545398
C61   C     C_1   0.305129 0.302843 0.125114 0.003015
C62   C     C_1   0.314565 0.320350 0.170016 -0.035419
C63   C     C_1   0.322900 0.332980 0.222947 -0.002980
C64   C     C_1   0.893016 0.293651 0.102946 0.005028
C65   C     C_1   0.775201 0.364222 0.390159 -0.004194
C66   C     C_3   0.941182 0.301509 0.239504 -0.154403
Cr1   Cr    Cr6+3 0.585520 0.589730 0.508860 1.039462
Cr2   Cr    Cr6+3 0.329140 0.580910 0.495080 1.039501
Cr3   Cr    Cr6+3 0.585350 0.329380 0.496090 1.040839
Cr4   Cr    Cr6+3 0.077110 0.074680 0.982320 1.050609
Cr5   Cr    Cr6+3 0.079190 0.334150 0.996330 1.046874
Cr6   Cr    Cr6+3 0.334370 0.081620 0.994860 1.049444
F1    F     F_    0.804946 0.142381 0.200726 -0.619475
F2    F     F_    0.151002 0.292090 0.757411 -0.625260
H1    H     H_    0.293971 0.688917 0.196509 0.119178
H2    H     H_    0.641324 0.352108 0.259481 0.122862
H3    H     H_    0.690739 0.499222 0.208917 0.115207
H4    H     H_    0.862374 0.480734 0.287560 0.130595
H5    H     H_    0.028543 0.286828 0.233073 0.117199
H6    H     H_    0.530772 0.796602 0.221958 0.117623
H7    H     H_    0.392263 0.970584 0.294065 0.118323
H8    H     H_    0.490673 0.634825 0.265281 0.109379
H9    H     H_    0.155511 0.862952 0.268296 0.126492
H10   H     H_    0.195551 0.024604 0.225252 0.114115
H11   H     H_    0.504128 0.196356 0.781970 0.124825
H12   H     H_    0.363060 0.155677 0.701429 0.126823
H13   H     H_    0.473102 0.390658 0.734679 0.129108
H14   H     H_    0.276017 0.531764 0.789699 0.124403
H15   H     H_    0.134947 0.491062 0.708804 0.128256
H16   H     H_    0.979231 0.139711 0.283712 0.115226
O1    O     O_R   0.700650 0.499560 0.456090 -0.505207
O2    O     O_R   0.362310 0.174000 0.055490 -0.496883
O3    O     O_R   0.326800 0.983030 0.039600 -0.494937
O4    O     O_R   0.479220 0.682850 0.457510 -0.493978
O5    O     O_R   0.165220 0.960770 0.926060 -0.503826
O6    O     O_R   0.978660 0.179890 0.932950 -0.494223
O7    O     O_R   0.960490 0.356500 0.937600 -0.498002
O8    O     O_R   0.182720 0.328380 0.950570 -0.489047
O9    O     O_R   0.356860 0.175610 0.946640 -0.504623
O10   O     O_R   0.321740 0.984530 0.938700 -0.491882
O11   O     O_3   0.163560 0.163490 0.991170 -0.258972
O12   O     O_R   0.338920 0.475010 0.540740 -0.494464
O13   O     O_R   0.304230 0.696360 0.445090 -0.504051
O14   O     O_R   0.337790 0.472640 0.439840 -0.494244
O15   O     O_R   0.493310 0.300190 0.435520 -0.502918
O16   O     O_R   0.681220 0.340950 0.451270 -0.492584
O17   O     O_R   0.701870 0.502110 0.564940 -0.502301
O18   O     O_R   0.480360 0.685220 0.558410 -0.494278
O19   O     O_R   0.305450 0.698920 0.553940 -0.502744
O20   O     O_R   0.494530 0.302750 0.544370 -0.505190
O21   O     O_R   0.682350 0.343320 0.552170 -0.494329
O22   O     O_3   0.500010 0.500010 0.500010 -0.256994
O23   O     O_R   0.170670 0.959150 0.034900 -0.499769
O24   O     O_R   0.983710 0.178390 0.033850 -0.487355
O25   O     O_R   0.965940 0.354890 0.046440 -0.508938
O26   O     O_R   0.187770 0.326880 0.051460 -0.497792

loop_
_geom_bond_atom_site_label_1
_geom_bond_atom_site_label_2
_ccdc_geom_bond_type
C15   C18   S    
C59   O9    A    
C41   C42   S    
C35   C36   S    
Cr2   O13   S    
C3    C6    S    
C33   C36   S    
Cr4   O11   S    
C39   C41   T    
Cr4   O24   S    
C66   H5    S    
Cr5   O7    S    
C12   C23   S    
C62   C63   S    
C19   C21   S    
Cr2   O12   S    
C15   H10   S    
C10   C15   S    
C30   C31   S    
Cr6   O2    S    
Cr3   O22   S    
Cr1   O18   S    
C13   C57   S    
C55   O26   A    
C46   C52   S    
C17   C20   S    
C18   C19   S    
Cr2   O22   S    
C14   C24   T    
C58   O6    A    
C47   C60   S    
C47   C48   T    
C52   O17   A    
C1    O4    A    
C29   C38   T    
Cr5   O26   S    
Cr1   O4    S    
C1    O13   A    
C16   O16   A    
Cr5   O11   S    
C26   C31   S    
Cr4   O23   S    
C57   O3    A    
C2    C6    S    
C58   O7    A    
C7    C56   S    
C44   C46   T    
C18   H9    S    
C36   H13   S    
Cr5   O8    S    
C4    C34   S    
C32   C35   S    
C45   C56   S    
C11   H6    S    
C5    C7    S    
C12   C63   T    
Cr3   O15   S    
C6    H3    S    
C57   O23   A    
C52   O21   A    
C2    C66   S    
C25   C26   S    
C39   C58   S    
C5    C45   S    
C11   C21   S    
C31   C37   S    
C20   H1    S    
C51   C53   T    
Cr4   O6    S    
C43   C44   S    
C5    C9    S    
C55   O2    A    
C35   H14   S    
C32   H15   S    
C10   C19   S    
Cr3   O16   S    
C23   C34   T    
C54   O25   A    
Cr1   O1    S    
C50   C51   S    
Cr5   O25   S    
C21   H8    S    
C45   H16   S    
C6    C7    S    
C8    C64   T    
Cr6   O3    S    
C26   C36   S    
C48   C49   S    
Cr3   O20   S    
C31   C35   S    
C3    C66   S    
C42   C43   T    
C3    C5    S    
Cr6   O10   S    
C25   C30   S    
C15   C17   S    
C11   C17   S    
C56   F1    S    
C2    C8    S    
Cr2   O14   S    
C60   O10   A    
C54   O24   A    
C40   O20   A    
C28   C53   S    
C4    O14   A    
C7    H2    S    
C16   C65   S    
C28   O19   A    
C4    O15   A    
C10   H7    S    
C17   C22   S    
C32   C33   S    
C19   C24   S    
C2    C56   S    
C30   C32   S    
Cr3   O21   S    
Cr1   O17   S    
C54   C64   S    
C28   O18   A    
C26   H11   S    
C30   F2    S    
C55   C61   S    
C29   C40   S    
C25   H12   S    
C13   C22   T    
Cr4   O5    S    
C18   C20   S    
Cr2   O19   S    
C61   C62   T    
C9    C65   T    
C10   C11   S    
C40   O12   A    
C60   O5    A    
Cr1   O22   S    
C20   C21   S    
C16   O1    A    
C49   C50   T    
Cr6   O11   S    
C45   C66   S    
C59   O8    A    
C33   C38   S    
C27   C59   S    
C1    C14   S    
C3    H4    S    
C27   C37   T    
C25   C33   S    
Cr6   O9    S    
