data_mof_unit_66816.cif
_audit_creation_date              2012-12-11T14:27:22-0500
_audit_creation_method            fapswitch 2.2
_symmetry_space_group_name_H-M    P1
_symmetry_Int_Tables_number       1
_space_group_crystal_system       triclinic
_cell_length_a                    8.264027
_cell_length_b                    14.941043
_cell_length_c                    15.112325
_cell_angle_alpha                 97.318396
_cell_angle_beta                  99.181076
_cell_angle_gamma                 97.619323
_cell_volume                      1804.63762593

loop_
_atom_site_label
_atom_site_type_symbol
_atom_type_description
_atom_site_fract_x
_atom_site_fract_y
_atom_site_fract_z
_atom_type_partial_charge
Ba1   Ba    Ba6+2 0.154720 0.543770 0.458160 1.643410
Ba2   Ba    Ba6+2 0.655440 0.456220 0.541760 1.631215
C1    C     C_3   0.300438 0.740522 0.121108 -0.376209
C2    C     C_R   0.891654 0.792620 0.523591 0.029474
C3    C     C_R   0.074558 0.232783 0.519557 -0.310088
C4    C     C_3   0.913661 0.784478 0.257918 0.437737
C5    C     C_R   0.180610 0.170757 0.540374 -0.018668
C6    C     C_R   0.123889 0.076216 0.519835 0.092867
C7    C     C_R   0.951035 0.043816 0.492901 0.024549
C8    C     C_R   0.848999 0.107510 0.460134 -0.052896
C9    C     C_R   0.877919 0.949955 0.491641 -0.053092
C10   C     C_R   0.710747 0.919614 0.445526 -0.060475
C11   C     C_R   0.619841 0.982398 0.407303 -0.065972
C12   C     C_3   0.366403 0.727430 0.217535 0.338902
C13   C     C_R   0.686923 0.073824 0.414384 -0.054377
C14   C     C_R   0.959516 0.885934 0.538973 0.367048
C15   C     C_R   0.732770 0.764047 0.473082 -0.358263
C16   C     C_3   0.910616 0.876556 0.221887 0.802578
C17   C     C_R   0.914067 0.202937 0.472358 0.052580
C18   C     C_R   0.233125 0.477349 0.767484 -0.354614
C19   C     C_R   0.135524 0.442989 0.825869 0.058570
C20   C     C_R   0.203513 0.448929 0.918130 -0.168011
C21   C     C_R   0.365806 0.497418 0.955044 -0.052845
C22   C     C_R   0.452727 0.543340 0.894476 0.345248
C23   C     C_3   0.588409 0.736988 0.671141 0.295455
C24   C     C_R   0.389794 0.527409 0.801123 0.018430
C25   C     C_R   0.610469 0.532734 0.088044 -0.124854
C26   C     C_R   0.672753 0.551765 0.180820 -0.008400
C27   C     C_R   0.412233 0.483500 0.211543 0.078919
C28   C     C_3   0.730506 0.339236 0.261513 0.385135
C29   C     C_R   0.342704 0.473365 0.118912 -0.116785
C30   C     C_R   0.439574 0.501555 0.054721 0.006877
C31   C     C_R   0.572671 0.529331 0.242538 -0.297997
C32   C     C_3   0.677149 0.309314 0.158731 0.424525
C33   C     C_3   0.084926 0.662287 0.738797 0.301922
C34   C     C_3   0.604557 0.840573 0.689964 -0.386919
C35   C     C_3   0.097573 0.686604 0.840857 -0.388785
C36   C     C_3   0.218625 0.267365 0.335490 0.323311
C37   C     C_3   0.163724 0.165810 0.303041 -0.432753
C38   C     C_3   0.909462 0.286297 0.093548 0.250824
C39   C     C_3   0.011972 0.214752 0.062212 -0.346047
C40   C     C_3   0.739049 0.981601 0.182785 0.287422
C41   C     C_3   0.560653 0.997142 0.161205 -0.350340
C42   C     C_3   0.063516 0.952546 0.684953 0.280041
C43   C     C_3   0.213716 0.962433 0.760200 -0.319000
C44   C     C_3   0.568457 0.689238 0.959050 0.239142
C45   C     C_3   0.819019 0.213082 0.725815 0.396032
C46   C     C_3   0.721425 0.760241 0.965479 -0.263057
C47   C     C_3   0.107218 0.945277 0.144841 0.214088
C48   C     C_3   0.137023 0.953390 0.049142 -0.363622
C49   C     C_3   0.774023 0.114906 0.745780 -0.113585
C50   C     C_3   0.384028 0.247629 0.770562 0.456578
C51   C     C_3   0.426700 0.221028 0.864794 -0.104664
C52   C     C_R   0.637490 0.826817 0.438891 0.007581
H1    H     H_    0.290427 0.664787 0.229782 0.089852
H2    H     H_    0.292649 0.675892 0.074395 0.061517
H3    H     H_    0.045495 0.155019 0.253832 0.130343
H4    H     H_    0.142571 0.128945 0.359688 0.061583
H5    H     H_    0.260946 0.136798 0.270793 0.107295
H6    H     H_    0.498525 0.717685 0.222777 -0.005698
H7    H     H_    0.382947 0.795511 0.100206 0.108956
H8    H     H_    0.709349 0.718079 0.659829 0.009882
H9    H     H_    0.493195 0.712605 0.609032 0.068317
H10   H     H_    0.693845 0.867687 0.753794 0.119494
H11   H     H_    0.648713 0.871223 0.633389 0.043406
H12   H     H_    0.688598 0.371059 0.124848 -0.068638
H13   H     H_    0.482008 0.860568 0.696648 0.140164
H14   H     H_    0.173822 0.757917 0.115708 0.191671
H15   H     H_    0.707028 0.235783 0.693293 0.113660
H16   H     H_    0.902580 0.212218 0.675536 -0.040154
H17   H     H_    0.647108 0.103741 0.761135 0.156589
H18   H     H_    0.772735 0.065685 0.683981 0.053129
H19   H     H_    0.452530 0.317438 0.772249 0.066876
H20   H     H_    0.370533 0.263756 0.913876 0.059139
H21   H     H_    0.027315 0.790213 0.310003 0.010003
H22   H     H_    0.373841 0.148344 0.863311 0.099559
H23   H     H_    0.206407 0.648909 0.723811 -0.000233
H24   H     H_    0.678714 0.692865 0.465426 0.089357
H25   H     H_    0.493696 0.961809 0.371764 0.089527
H26   H     H_    0.122492 0.305128 0.533445 0.076541
H27   H     H_    0.608631 0.117382 0.382741 0.102468
H28   H     H_    0.699522 0.541773 0.044066 0.150459
H29   H     H_    0.127326 0.414569 0.958941 0.079946
H30   H     H_    0.214710 0.442310 0.099150 0.070115
H31   H     H_    0.803454 0.769478 0.290438 -0.108281
H32   H     H_    0.623983 0.541214 0.314293 0.075203
H33   H     H_    0.183563 0.468788 0.695643 0.077037
H34   H     H_    0.989767 0.600511 0.714702 0.062540
H35   H     H_    0.982505 0.929944 0.278403 -0.194358
H36   H     H_    0.631753 0.370686 0.289335 -0.059515
H37   H     H_    0.845168 0.389979 0.274646 0.000731
H38   H     H_    0.485555 0.210902 0.170305 0.195628
H39   H     H_    0.468156 0.247041 0.068900 0.164376
H40   H     H_    0.990048 0.338389 0.146503 0.078243
H41   H     H_    0.865899 0.320069 0.034779 0.041200
H42   H     H_    0.930246 0.149319 0.032625 0.121879
H43   H     H_    0.082818 0.239135 0.010991 0.081518
H44   H     H_    0.101708 0.201569 0.119741 0.138336
H45   H     H_    0.185815 0.750859 0.866563 0.105249
H46   H     H_    0.793948 0.992148 0.121670 0.070401
H47   H     H_    0.804431 0.033223 0.241607 0.040652
H48   H     H_    0.557348 0.066857 0.144085 0.096533
H49   H     H_    0.493426 0.947259 0.101929 0.109765
H50   H     H_    0.499624 0.990001 0.220500 0.112482
H51   H     H_    0.863140 0.127837 0.881237 0.218792
H52   H     H_    0.009778 0.116651 0.817445 0.189536
H53   H     H_    0.180929 0.290982 0.703929 0.120929
H54   H     H_    0.149759 0.182075 0.723360 0.154376
H55   H     H_    0.629678 0.201567 0.951169 0.197057
H56   H     H_    0.141175 0.631403 0.876197 0.055552
H57   H     H_    0.646493 0.303897 0.915103 0.199725
H58   H     H_    0.958209 0.910264 0.705208 0.039742
H59   H     H_    0.032745 0.021504 0.677902 0.026980
H60   H     H_    0.185060 0.994788 0.824966 0.059851
H61   H     H_    0.247025 0.894277 0.769510 0.138812
H62   H     H_    0.321089 0.005366 0.742912 0.125169
H63   H     H_    0.328925 0.023195 0.568712 0.224094
H64   H     H_    0.304447 0.033245 0.457197 0.163580
H65   H     H_    0.543311 0.687914 0.028608 0.054236
H66   H     H_    0.462374 0.711228 0.916456 0.028977
H67   H     H_    0.973887 0.696134 0.856602 0.136092
H68   H     H_    0.745719 0.769085 0.896825 0.119254
H69   H     H_    0.701477 0.826905 0.000242 0.102166
H70   H     H_    0.831187 0.738390 0.004400 0.173468
H71   H     H_    0.221513 0.931949 0.186944 0.087588
H72   H     H_    0.076264 0.011551 0.173546 0.016109
H73   H     H_    0.021001 0.964066 0.006199 0.130021
H74   H     H_    0.234440 0.012685 0.050778 0.070754
H75   H     H_    0.177043 0.890260 0.018624 0.117039
H76   H     H_    0.113840 0.297174 0.358137 0.009910
H77   H     H_    0.324997 0.277005 0.392592 0.064662
N1    N     N_3   0.501875 0.268846 0.138646 -0.502049
N2    N     N_3   0.887314 0.093031 0.821710 -0.517917
N3    N     N_3   0.206307 0.248248 0.752133 -0.517199
N4    N     N_3   0.605638 0.233982 0.894271 -0.482785
N5    N     N_3   0.242005 0.015322 0.508798 -0.418562
O1    O     O_2   0.174040 0.723040 0.553850 -0.435603
O2    O     O_2   0.792194 0.434767 0.820333 -0.473408
O3    O     O_3   0.889179 0.274776 0.805126 -0.606218
O4    O     O_3   0.901550 0.609570 0.550800 -0.505879
O5    O     O_3   0.408230 0.452130 0.390190 -0.487349
O6    O     O_2   0.675480 0.547140 0.721810 -0.440997
O7    O     O_3   0.542959 0.701021 0.746491 -0.641135
O8    O     O_2   0.522964 0.175349 0.548430 -0.517435
O9    O     O_3   0.429343 0.183226 0.705751 -0.640347
O10   O     O_3   0.370320 0.665070 0.388210 -0.498249
O11   O     O_2   0.298506 0.826328 0.446256 -0.452855
O12   O     O_3   0.265549 0.306880 0.262761 -0.634470
O13   O     O_3   0.042608 0.736931 0.698554 -0.634725
O14   O     O_3   0.351339 0.803872 0.278839 -0.613427
O15   O     O_2   0.134800 0.452800 0.278160 -0.483539
O16   O     O_3   0.937630 0.618610 0.340820 -0.490625
O17   O     O_2   0.008413 0.554451 0.179283 -0.505997
O18   O     O_3   0.773495 0.243920 0.127288 -0.643644
O19   O     O_3   0.743853 0.891827 0.202564 -0.671095
O20   O     O_3   0.102791 0.912016 0.603245 -0.621263
O21   O     O_3   0.600688 0.602771 0.922973 -0.650104
O22   O     O_3   0.977722 0.872353 0.140731 -0.653315
O23   O     O_3   0.916584 0.714582 0.186682 -0.611381
O24   O     O_2   0.636250 0.276900 0.446120 -0.467113
O25   O     O_3   0.908740 0.390420 0.449120 -0.498253
O26   O     O_3   0.439970 0.334920 0.611710 -0.482097
O27   O     O_3   0.758477 0.262336 0.301699 -0.636737
O28   O     O_3   0.402050 0.547860 0.609740 -0.491590
O29   O     O_3   0.872650 0.381380 0.659100 -0.498080
P1    P     P_3+3 0.004160 0.709210 0.580280 1.025616
P2    P     P_3+3 0.305010 0.425580 0.290930 0.979546
P3    P     P_3+3 0.885665 0.607784 0.222720 0.937570
P4    P     P_3+3 0.806120 0.290780 0.419650 0.974953
P5    P     P_3+3 0.921443 0.385887 0.777608 0.951912
P6    P     P_3+3 0.415777 0.782418 0.389487 0.947575
P7    P     P_3+3 0.503269 0.581648 0.722032 0.996292
P8    P     P_3+3 0.393488 0.216226 0.597793 0.894622

loop_
_geom_bond_atom_site_label_1
_geom_bond_atom_site_label_2
_ccdc_geom_bond_type
C11   H25   S    
C50   O9    S    
H55   N4    S    
C50   N3    S    
C51   H20   S    
C51   N4    S    
C28   H36   S    
C32   H12   S    
C46   H69   S    
C4    O23   S    
C34   H13   S    
Ba1   O1    S    
C4    H21   S    
C13   H27   S    
O26   P8    S    
C50   C51   S    
C47   H72   S    
C36   H77   S    
C4    H31   S    
Ba1   O16   S    
C36   H76   S    
O6    P7    D    
H38   N1    S    
C22   C24   A    
O7    P7    S    
H53   N3    S    
C8    C13   A    
C46   H68   S    
C36   C37   S    
C39   H42   S    
C6    N5    S    
Ba1   P2    S    
C19   P5    S    
C37   H3    S    
C18   H33   S    
C27   C31   A    
O23   P3    S    
O3    P5    S    
Ba1   Ba2   S    
C23   H9    S    
C41   H50   S    
C45   H15   S    
C43   H60   S    
H52   N2    S    
C1    H14   S    
Ba1   O28   S    
C6    C7    A    
O8    P8    D    
C14   O20   S    
O24   P4    D    
H39   N1    S    
C7    C8    A    
O25   P4    S    
C1    H7    S    
C12   H1    S    
Ba1   O25   S    
C10   C52   A    
C19   C20   A    
C38   O18   S    
Ba1   O10   S    
C23   O7    S    
C49   H17   S    
C28   O27   S    
Ba2   O25   S    
O1    P1    D    
O16   P3    S    
O11   P6    D    
C32   O18   S    
O4    P1    S    
C4    C16   S    
C44   C46   S    
O5    P2    S    
C28   C32   S    
C42   O20   S    
C5    C6    A    
C33   H34   S    
C50   H19   S    
Ba2   O28   S    
C3    C5    A    
C34   H11   S    
C45   C49   S    
Ba2   P4    S    
C37   H4    S    
C47   H71   S    
C33   H23   S    
C29   H30   S    
C2    C14   A    
C31   H32   S    
C45   H16   S    
H54   N3    S    
C16   O22   S    
C48   H75   S    
C40   H46   S    
C1    H2    S    
C43   H61   S    
O14   P6    S    
C8    C17   A    
C21   C22   A    
C37   H5    S    
C12   O14   S    
C44   H66   S    
C10   C11   A    
C3    H26   S    
C7    C9    A    
Ba2   O29   S    
C36   O12   S    
C35   H56   S    
C1    C12   S    
C35   H67   S    
C2    C15   A    
C42   H58   S    
C38   C39   S    
O9    P8    S    
C26   C31   A    
C11   C13   A    
O17   P3    D    
Ba2   O6    S    
C39   H43   S    
C47   O22   S    
O28   P7    S    
C51   H22   S    
C48   H74   S    
C49   H18   S    
C38   H41   S    
C40   H47   S    
C35   H45   S    
H64   N5    S    
C42   C43   S    
H51   N2    S    
O29   P5    S    
Ba2   O5    S    
C33   C35   S    
C25   C30   A    
C22   O21   S    
C16   H35   S    
C52   P6    S    
C25   H28   S    
C29   C30   A    
O13   P1    S    
C17   P4    S    
C38   H40   S    
C28   H37   S    
C46   H70   S    
C9    C10   A    
C3    C17   A    
C12   H6    S    
C24   P7    S    
C44   O21   S    
Ba2   O4    S    
C21   C30   S    
C27   P2    S    
C40   O19   S    
C41   H48   S    
C27   C29   A    
C34   H10   S    
C20   H29   S    
C49   N2    S    
C43   H62   S    
H57   N4    S    
C42   H59   S    
C18   C24   A    
Ba1   P1    S    
O15   P2    D    
C5    P8    S    
C15   H24   S    
C2    P1    S    
C44   H65   S    
Ba1   O15   S    
C23   H8    S    
O27   P4    S    
C41   H49   S    
C9    C14   A    
Ba1   O5    S    
C26   P3    S    
C23   C34   S    
C32   N1    S    
C18   C19   A    
Ba2   O24   S    
C47   C48   S    
C40   C41   S    
C45   O3    S    
C25   C26   A    
O12   P2    S    
C20   C21   A    
Ba1   O4    S    
C48   H73   S    
C33   O13   S    
O2    P5    D    
O10   P6    S    
H63   N5    S    
C15   C52   A    
C39   H44   S    
C16   O19   S    
Ba2   O26   S    
