data_mof_unit_24295.cif
_audit_creation_date              2013-03-05T15:42:48-0500
_audit_creation_method            fapswitch 2.2
_symmetry_space_group_name_H-M    P1
_symmetry_Int_Tables_number       1
_space_group_crystal_system       triclinic
_cell_length_a                    6.941871
_cell_length_b                    14.920886
_cell_length_c                    16.137121
_cell_angle_alpha                 90.512876
_cell_angle_beta                  89.342075
_cell_angle_gamma                 89.949578
_cell_volume                      1671.2867264

loop_
_atom_site_label
_atom_site_type_symbol
_atom_site_description
_atom_site_fract_x
_atom_site_fract_y
_atom_site_fract_z
_atom_type_partial_charge
O1    O     O_R   0.494400 0.416610 0.413880 -0.538292
O2    O     O_R   0.823920 0.406790 0.585520 -0.538052
O3    O     O_R   0.994250 0.583390 0.586120 -0.551370
C1    C     C_R   0.652835 0.379302 0.607998 0.869657
O4    O     O_R   0.824110 0.405730 0.414490 -0.560492
O5    O     O_R   0.994440 0.582310 0.413870 -0.579542
C2    C     C_R   0.656062 0.387071 0.383734 0.786011
O6    O     O_R   0.494210 0.417690 0.586130 -0.512046
O7    O     O_3   0.660810 0.557940 0.500000 -0.290140
V1    V     V_3+5 0.935650 0.489250 0.500000 1.203290
O8    O     O_R   0.324160 0.593210 0.414480 -0.553038
C3    C     C_R   0.156748 0.612393 0.384563 0.863546
O9    O     O_R   0.323970 0.594270 0.585510 -0.552727
C4    C     C_R   0.154073 0.614301 0.615767 0.830110
V2    V     V_3+5 0.435660 0.510750 0.500000 1.209178
O10   O     O_3   0.160630 0.442060 0.500000 -0.240940
H1    H     H_    0.948549 0.902445 0.505073 0.060050
C5    C     C_R   0.194934 0.567046 0.796703 -0.067113
C6    C     C_R   0.260379 0.547821 0.877832 -0.040287
C7    C     C_R   0.300582 0.618782 0.931767 -0.088851
C8    C     C_R   0.258255 0.705972 0.910284 -0.082445
C9    C     C_R   0.190007 0.726874 0.830816 0.039516
C10   C     C_R   0.178345 0.657743 0.769533 -0.024173
C11   C     C_R   0.125500 0.814626 0.813484 -0.125480
C12   C     C_R   0.072855 0.836740 0.731714 0.024107
C13   C     C_R   0.084831 0.771025 0.667216 0.030437
C14   C     C_R   0.138501 0.681380 0.685336 -0.146460
C15   C     C_R   0.013942 0.924741 0.712148 -0.073820
C16   C     C_R   0.968883 0.947759 0.631187 -0.069105
C17   C     C_R   0.982652 0.884121 0.567989 -0.063749
C18   C     C_R   0.040245 0.796842 0.585364 -0.057326
H2    H     H_    0.352209 0.606515 0.993768 0.118293
H3    H     H_    0.277464 0.756462 0.957874 0.081381
H4    H     H_    0.004144 0.976855 0.759008 0.052622
H5    H     H_    0.924412 0.015517 0.617349 0.059223
H6    H     H_    0.048697 0.750084 0.533841 0.039852
C19   C     C_2   0.997678 0.715353 0.287107 -0.108541
C20   C     C_2   0.157349 0.669153 0.309799 0.019269
H7    H     H_    0.866903 0.708388 0.324090 0.083008
C21   C     C_2   0.980362 0.772277 0.211958 -0.095193
C22   C     C_2   0.123370 0.825042 0.184069 -0.224941
H8    H     H_    0.840924 0.774588 0.182214 0.104855
H9    H     H_    0.257626 0.828609 0.217114 0.069909
C23   C     C_2   0.751217 0.180402 0.758403 -0.122088
C24   C     C_2   0.620907 0.181897 0.820610 -0.203942
H10   H     H_    0.855670 0.126226 0.755605 0.079900
H11   H     H_    0.523473 0.237604 0.828572 0.086813
C25   C     C_2   0.777695 0.255440 0.698570 0.077961
C26   C     C_2   0.628231 0.300088 0.663097 0.016106
C27   C     C_2   0.773956 0.205933 0.216630 -0.040036
C28   C     C_2   0.610441 0.174243 0.182986 -0.174402
H12   H     H_    0.912378 0.181830 0.193634 0.106726
H13   H     H_    0.471965 0.192987 0.209846 0.067547
C29   C     C_2   0.775503 0.267073 0.290245 -0.124279
C30   C     C_2   0.646107 0.333333 0.305989 -0.154611
H14   H     H_    0.890124 0.255852 0.334251 0.099146
O11   O     O_R   0.770210 0.079270 0.910680 -0.556039
O12   O     O_R   0.440150 0.091160 0.082270 -0.560306
O13   O     O_R   0.269970 0.914530 0.082860 -0.566816
C31   C     C_R   0.607847 0.111335 0.111860 0.846855
O14   O     O_R   0.440480 0.090100 0.911240 -0.564515
O15   O     O_R   0.270310 0.913460 0.910610 -0.563415
C32   C     C_R   0.610062 0.110997 0.883024 0.851694
O16   O     O_R   0.769870 0.080340 0.082930 -0.562597
O17   O     O_3   0.603660 0.938980 0.996790 -0.278595
V3    V     V_3+5 0.328750 0.007610 0.996740 1.138766
O18   O     O_R   0.940600 0.902510 0.911180 -0.557628
C33   C     C_R   0.110597 0.882563 0.881495 0.806244
O19   O     O_R   0.940270 0.903570 0.082200 -0.564536
C34   C     C_R   0.108625 0.883909 0.111553 0.835414
V4    V     V_3+5 0.828770 0.986010 0.996670 1.140879
O20   O     O_3   0.103730 0.054750 0.996710 -0.271084
N1    N     N_3   0.329083 0.665239 0.259058 -0.482562
H15   H     H_    0.416005 0.720596 0.271847 0.167223
H16   H     H_    0.294849 0.661484 0.196200 0.202591
N2    N     N_3   0.971914 0.277075 0.676192 -0.442628
H17   H     H_    0.033362 0.220471 0.647789 0.171512
H18   H     H_    0.045012 0.288456 0.731481 0.224880
N3    N     N_3   0.434551 0.266671 0.670033 -0.488486
H19   H     H_    0.373422 0.289763 0.725330 0.235739
H20   H     H_    0.432354 0.196641 0.667083 0.163199
C35   C     C_2   0.085876 0.496807 0.753937 0.884849
O21   O     O_2   0.165262 0.447316 0.703453 -0.559141
O22   O     O_R   0.891623 0.486239 0.774880 -0.750726
H21   H     H_    0.831714 0.432120 0.747835 0.306470
C36   C     C_2   0.505641 0.362939 0.242646 0.862060
O23   O     O_2   0.342682 0.385615 0.263496 -0.588226
O24   O     O_R   0.562264 0.367636 0.159358 -0.728812
H22   H     H_    0.454670 0.388992 0.122528 0.354009
C37   C     C_2   0.272987 0.454784 0.911035 0.895249
O25   O     O_2   0.281147 0.443097 0.985860 -0.610592
O26   O     O_R   0.274682 0.380387 0.857979 -0.771835
H23   H     H_    0.272592 0.321704 0.889149 0.305873

loop_
_geom_bond_atom_site_label_1
_geom_bond_atom_site_label_2
_geom_bond_distance
_ccdc_geom_bond_type
N1    H16   1.045492 S    
N1    H15   1.043844 S    
C25   N2    1.429697 S    
C6    C7    1.395011 A    
C2    C30   1.485180 S    
C1    O6    1.294833 A    
C12   C15   1.414385 A    
C13   C14   1.421991 A    
C16   C17   1.389630 A    
C15   C16   1.392813 A    
N2    H18   1.044124 S    
C19   C21   1.492680 S    
O13   V3    2.012274 S    
O5    C3    1.298882 A    
C17   C18   1.393767 A    
C36   O24   1.398369 S    
C8    H3    1.080397 S    
O12   C31   1.297932 A    
V2    O10   2.167725 S    
O14   C32   1.296635 A    
C5    C6    1.422262 A    
O16   V4    2.009147 S    
O19   V4    2.017530 S    
O8    V2    2.017601 S    
O14   V3    2.006899 S    
O12   V3    2.013088 S    
V3    O20   1.712556 S    
C27   H12   1.085913 S    
O1    V2    2.005417 S    
C10   C14   1.436658 A    
C4    C14   1.500237 S    
O7    V1    2.164972 S    
C21   H8    1.086011 S    
C15   H4    1.081324 S    
C13   C18   1.416732 A    
O9    C4    1.304705 A    
H1    C17   1.082581 S    
C22   H9    1.080178 S    
C23   H10   1.085725 S    
O11   C32   1.293628 A    
N2    H17   1.045610 S    
C24   H11   1.077022 S    
C29   H14   1.086408 S    
O15   V3    2.012172 S    
C5    C10   1.431208 A    
C11   C12   1.415016 A    
O4    C2    1.302344 A    
C36   O23   1.223090 D    
C12   C13   1.425215 A    
O17   V4    1.713562 S    
C24   C32   1.468557 S    
O11   V4    2.018324 S    
C26   N3    1.437900 S    
C28   H13   1.085335 S    
O2    C1    1.305349 A    
O18   C33   1.301740 A    
C19   C20   1.360283 D    
C37   O26   1.395765 S    
C7    C8    1.381565 A    
C27   C28   1.348071 D    
C27   C29   1.491455 S    
O22   H21   1.006942 S    
O3    C4    1.296789 A    
C25   C26   1.366480 D    
C35   O21   1.221018 D    
O6    V2    2.017811 S    
C35   O22   1.395827 S    
O9    V2    2.000290 S    
C9    C11   1.414747 A    
O2    V1    2.006845 S    
C23   C24   1.343579 D    
N3    H20   1.045707 S    
C7    H2    1.083699 S    
C29   C30   1.355564 D    
C21   C22   1.343645 D    
O1    C2    1.293478 A    
C9    C10   1.425578 A    
O5    V1    2.012190 S    
O8    C3    1.296289 A    
C16   H5    1.082771 S    
O15   C33   1.292864 A    
C1    C26   1.494115 S    
C31   O16   1.296161 A    
C30   C36   1.490294 S    
O7    V2    1.714809 S    
O4    V1    2.012976 S    
C19   H7    1.086258 S    
C6    C37   1.495326 S    
V1    O10   1.712603 S    
C37   O25   1.223480 D    
O26   H23   1.013712 S    
C5    C35   1.465679 S    
O18   V4    2.000257 S    
C3    C20   1.480212 S    
O19   C34   1.300337 A    
C11   C33   1.489980 S    
O13   C34   1.292439 A    
N3    H19   1.039519 S    
V4    O20   2.167654 S    
O24   H22   1.012813 S    
O17   V3    2.164990 S    
O3    V1    2.012192 S    
C18   H6    1.081624 S    
C28   C31   1.476475 S    
C8    C9    1.409640 A    
C23   C25   1.495080 S    
C22   C34   1.473882 S    
C20   N1    1.439347 S    
