data_mof_unit_38711.cif
_audit_creation_date              2012-12-10T19:01:52-0500
_audit_creation_method            fapswitch 2.2
_symmetry_space_group_name_H-M    P1
_symmetry_Int_Tables_number       1
_space_group_crystal_system       triclinic
_cell_length_a                    11.688108
_cell_length_b                    10.818988
_cell_length_c                    9.621353
_cell_angle_alpha                 90.011391
_cell_angle_beta                  91.097376
_cell_angle_gamma                 91.288642
_cell_volume                      1216.12272513

loop_
_atom_site_label
_atom_site_type_symbol
_atom_type_description
_atom_site_fract_x
_atom_site_fract_y
_atom_site_fract_z
_atom_type_partial_charge
C1    C     C_R   0.497962 0.262502 0.499928 0.818813
C2    C     C_R   0.486339 0.129058 0.499594 -0.107642
C3    C     C_R   0.468902 0.063631 0.374390 -0.174358
C4    C     C_R   0.467704 0.934775 0.374758 -0.227363
C5    C     C_R   0.485864 0.870407 0.499892 -0.099541
C6    C     C_R   0.486956 0.936361 0.624668 0.147634
C7    C     C_3   0.568135 0.932295 0.746313 -0.486820
C8    C     C_3   0.567767 0.072596 0.746245 -0.450124
C9    C     C_R   0.598697 0.521922 0.074595 0.168542
C10   C     C_R   0.406303 0.456626 0.067773 0.463632
C11   C     C_R   0.406488 0.463942 0.920740 -0.124369
C12   C     C_R   0.284204 0.500194 0.499080 0.844114
C13   C     C_R   0.599131 0.517896 0.928691 0.194064
C14   C     C_3   0.683863 0.621603 0.918152 -0.460791
C15   C     C_3   0.683227 0.629138 0.076813 -0.075066
C16   C     C_R   0.497702 0.737438 0.499981 0.778688
C17   C     C_R   0.715799 0.500300 0.501028 0.803728
C18   C     C_1   0.162429 0.500256 0.497809 -0.118471
C19   C     C_1   0.059901 0.500300 0.499005 0.035880
C20   C     C_1   0.940103 0.500371 0.501415 0.011849
C21   C     C_1   0.837569 0.500383 0.502575 -0.181954
C22   C     C_R   0.486840 0.063575 0.624494 0.136348
Cu1   Cu    Cu3+1 0.499990 0.499980 0.640670 0.954076
Cu2   Cu    Cu3+1 0.500010 0.500020 0.359330 1.011283
H1    H     H_    0.461507 0.111218 0.275759 0.203843
H2    H     H_    0.647839 0.702278 0.862722 0.210358
H3    H     H_    0.766966 0.604723 0.125052 0.182936
H4    H     H_    0.457845 0.886505 0.276703 0.173642
H5    H     H_    0.527629 0.891033 0.839599 0.205961
H6    H     H_    0.652382 0.894032 0.719253 0.194967
H7    H     H_    0.526891 0.112005 0.839249 0.212715
H8    H     H_    0.651754 0.115733 0.719430 0.199230
H9    H     H_    0.331158 0.437334 0.860537 0.207733
H10   H     H_    0.766748 0.590319 0.877487 0.185886
N1    N     N_R   0.500710 0.500930 0.147930 -0.244216
N2    N     N_R   0.500710 0.500890 0.852020 -0.217818
O1    O     O_R   0.500000 0.319640 0.618810 -0.580696
O2    O     O_R   0.500010 0.319680 0.381230 -0.538245
O3    O     O_R   0.337190 0.499990 0.618790 -0.598043
O4    O     O_R   0.337200 0.500030 0.381210 -0.483913
O5    O     O_R   0.499990 0.680320 0.618770 -0.575410
O6    O     O_R   0.500000 0.680360 0.381190 -0.589720
O7    O     O_R   0.662800 0.499970 0.618790 -0.574808
O8    O     O_R   0.662810 0.500010 0.381210 -0.578730
C23   C     C_3   0.638172 0.752232 0.128208 -0.770347
H11   H     H_    0.545386 0.760445 0.103694 0.233141
H12   H     H_    0.654905 0.760858 0.241447 0.247999
H13   H     H_    0.685142 0.829954 0.077754 0.223648
S1    S     S_3+6 0.278579 0.383260 0.129999 0.005714
O9    O     O_2   0.195754 0.481215 0.168915 -0.300111
O10   O     O_2   0.223408 0.306508 0.015678 -0.322988
O11   O     O_3   0.301055 0.287464 0.264384 -0.534024
H14   H     H_    0.223736 0.259600 0.293084 0.359144

loop_
_geom_bond_atom_site_label_1
_geom_bond_atom_site_label_2
_ccdc_geom_bond_type
C12   O4    A    
C8    C22   S    
Cu1   Cu2   S    
C17   O7    A    
C14   H10   S    
C6    C7    S    
C7    H5    S    
C11   H9    S    
C16   O6    A    
Cu2   O6    S    
Cu2   O2    S    
C19   C20   S    
Cu1   O5    S    
C1    O1    A    
S1    O11   S    
C12   O3    A    
C2    C3    A    
C9    C15   S    
C17   O8    A    
C7    C8    S    
C7    H6    S    
Cu1   O1    S    
C2    C22   A    
C14   H2    S    
C8    H7    S    
C10   N1    A    
C1    O2    A    
Cu1   O3    S    
C11   N2    A    
Cu2   O4    S    
Cu1   N2    S    
C23   H12   S    
C5    C6    A    
Cu2   O8    S    
S1    O9    D    
Cu2   N1    S    
C10   C11   A    
C15   C23   S    
C3    C4    A    
C8    H8    S    
C23   H11   S    
C3    H1    S    
Cu1   O7    S    
C20   C21   T    
C13   N2    A    
C1    C2    S    
C23   H13   S    
C12   C18   S    
C9    N1    A    
C9    C13   A    
C14   C15   S    
C18   C19   T    
C5    C16   S    
C4    H4    S    
C13   C14   S    
C10   S1    S    
C15   H3    S    
C16   O5    A    
C17   C21   S    
O11   H14   S    
C4    C5    A    
S1    O10   D    
C6    C22   A    
