data_mof_unit_33550.cif
_audit_creation_date              2012-12-10T18:11:36-0500
_audit_creation_method            fapswitch 2.2
_symmetry_space_group_name_H-M    P1
_symmetry_Int_Tables_number       1
_space_group_crystal_system       triclinic
_cell_length_a                    10.49502
_cell_length_b                    12.633545
_cell_length_c                    13.087468
_cell_angle_alpha                 82.332677
_cell_angle_beta                  90.749982
_cell_angle_gamma                 102.271439
_cell_volume                      1680.24195962

loop_
_atom_site_label
_atom_site_type_symbol
_atom_type_description
_atom_site_fract_x
_atom_site_fract_y
_atom_site_fract_z
_atom_type_partial_charge
C1    C     C_R   0.475232 0.438633 0.691001 0.865934
C2    C     C_R   0.456035 0.449592 0.972437 0.089126
C3    C     C_R   0.425451 0.470622 0.868052 -0.036755
C4    C     C_R   0.742217 0.500432 0.500061 0.853035
C5    C     C_R   0.460605 0.533165 0.034536 0.026005
C6    C     C_R   0.408593 0.626336 0.998920 0.051742
C7    C     C_R   0.358809 0.638293 0.899085 0.432098
C8    C     C_R   0.368375 0.560412 0.834194 -0.293716
C9    C     C_R   0.514711 0.525409 0.132087 -0.235378
C10   C     C_R   0.448275 0.689136 0.166123 -0.228291
C11   C     C_R   0.447601 0.398287 0.800654 -0.211896
C12   C     C_3   0.068816 0.604590 0.495092 -0.168917
C13   C     C_R   0.304261 0.084301 0.358884 -0.313565
C14   C     C_R   0.653749 0.796698 0.631717 0.569147
C15   C     C_R   0.679327 0.899316 0.665814 -0.501808
C16   C     C_R   0.512732 0.561020 0.308698 0.838062
C17   C     C_R   0.617370 0.981881 0.621920 0.411234
C18   C     C_R   0.532255 0.961659 0.537362 -0.106014
C19   C     C_R   0.505752 0.854919 0.507545 0.081893
C20   C     C_R   0.470033 0.041242 0.481930 0.002776
C21   C     C_R   0.372574 0.009172 0.408946 0.194648
C22   C     C_R   0.346450 0.903338 0.384332 -0.301037
C23   C     C_3   0.971977 0.541695 0.581372 -0.190028
C24   C     C_R   0.415135 0.828548 0.430634 -0.167623
C25   C     C_R   0.502843 0.152761 0.492606 -0.003448
C26   C     C_R   0.334757 0.191241 0.379695 -0.013194
C27   C     C_R   0.258132 0.500346 0.497704 0.840288
C28   C     C_3   0.932870 0.397880 0.498084 -0.177994
C29   C     C_3   0.029135 0.438604 0.581703 -0.191825
C30   C     C_3   0.123162 0.501025 0.495551 0.008424
C31   C     C_3   0.029832 0.460210 0.411674 -0.171160
C32   C     C_3   0.972774 0.562734 0.412477 0.199791
C33   C     C_3   0.320540 0.136777 0.795157 0.133973
C34   C     C_3   0.877877 0.501134 0.498008 -0.023711
C35   C     C_3   0.281133 0.082368 0.699398 -0.783598
C36   C     C_3   0.722145 0.701700 0.780155 0.112805
C37   C     C_3   0.766447 0.596598 0.819821 -0.798917
C38   C     C_3   0.750668 0.128972 0.685563 0.096421
C39   C     C_3   0.749298 0.238243 0.721942 -0.778448
C40   C     C_3   0.935412 0.632624 0.317032 -0.424373
C41   C     C_3   0.050108 0.672687 0.241240 -0.868705
C42   C     C_3   0.336296 0.784247 0.776568 0.094302
C43   C     C_3   0.226093 0.779318 0.699430 -0.832193
C44   C     C_R   0.405215 0.704831 0.065173 -0.162874
C45   C     C_R   0.499800 0.597274 0.199918 -0.041978
C46   C     C_R   0.453147 0.290074 0.841164 0.469472
C47   C     C_R   0.468887 0.264412 0.947005 -0.282021
C48   C     C_R   0.475995 0.344301 0.011520 -0.246115
H1    H     H_    0.058301 0.388206 0.650501 0.129929
H2    H     H_    0.873753 0.313859 0.498686 0.146570
H3    H     H_    0.743987 0.913886 0.729175 0.148759
H4    H     H_    0.394715 0.749806 0.405377 0.206687
H5    H     H_    0.058169 0.427187 0.342897 0.133571
H6    H     H_    0.127606 0.689112 0.492465 0.154831
H7    H     H_    0.944805 0.575192 0.649909 0.170514
H8    H     H_    0.435663 0.745636 0.218572 0.150130
H9    H     H_    0.365129 0.776170 0.040550 0.175639
H10   H     H_    0.241021 0.178507 0.812504 0.108256
H11   H     H_    0.327764 0.072449 0.860522 0.135900
H12   H     H_    0.564743 0.460796 0.158957 0.145956
H13   H     H_    0.355035 0.036784 0.680640 0.274893
H14   H     H_    0.185611 0.024288 0.713200 0.187535
H15   H     H_    0.272359 0.145098 0.633174 0.260857
H16   H     H_    0.623949 0.697119 0.813661 0.131797
H17   H     H_    0.793699 0.768996 0.808681 0.125426
H18   H     H_    0.873115 0.608106 0.807246 0.232346
H19   H     H_    0.745407 0.575359 0.903890 0.212103
H20   H     H_    0.715612 0.527921 0.779890 0.257810
H21   H     H_    0.807053 0.144301 0.611616 0.115453
H22   H     H_    0.801496 0.083769 0.745814 0.139845
H23   H     H_    0.487869 0.319104 0.092540 0.157790
H24   H     H_    0.850705 0.283759 0.730419 0.184561
H25   H     H_    0.698701 0.288230 0.665839 0.270574
H26   H     H_    0.699180 0.224600 0.798182 0.272273
H27   H     H_    0.135433 0.718269 0.279505 0.246360
H28   H     H_    0.077908 0.602492 0.211104 0.262628
H29   H     H_    0.022263 0.727745 0.175361 0.255766
H30   H     H_    0.852942 0.583395 0.278441 0.197839
H31   H     H_    0.903195 0.703912 0.341217 0.217361
H32   H     H_    0.421047 0.761842 0.741286 0.125528
H33   H     H_    0.369326 0.870044 0.791849 0.173234
H34   H     H_    0.477395 0.182679 0.979041 0.154455
H35   H     H_    0.142203 0.805090 0.732171 0.257922
H36   H     H_    0.260080 0.834676 0.627410 0.222352
H37   H     H_    0.193664 0.694640 0.680941 0.251544
H38   H     H_    0.325260 0.567457 0.758706 0.178746
H39   H     H_    0.281733 0.250397 0.343249 0.139724
H40   H     H_    0.275014 0.879167 0.326729 0.144729
H41   H     H_    0.228314 0.060529 0.304378 0.145794
H42   H     H_    0.584432 0.188106 0.535767 0.194028
N1    N     N_R   0.432930 0.222190 0.444670 -0.120282
N2    N     N_R   0.566370 0.776980 0.554790 -0.161204
O1    O     O_R   0.467970 0.366730 0.627150 -0.559231
O2    O     O_3   0.719606 0.715550 0.670873 -0.566648
O3    O     O_3   0.620763 0.071976 0.673352 -0.592228
O4    O     O_3   0.289378 0.719493 0.870662 -0.627968
O5    O     O_R   0.510820 0.544830 0.662520 -0.583282
O6    O     O_R   0.664630 0.410960 0.482340 -0.643117
O7    O     O_R   0.707470 0.589060 0.517710 -0.556118
O8    O     O_R   0.489180 0.455170 0.337480 -0.614714
O9    O     O_R   0.532030 0.633270 0.372850 -0.636889
O10   O     O_R   0.292530 0.410940 0.482290 -0.623111
O11   O     O_R   0.335370 0.589040 0.517660 -0.653611
O12   O     O_3   0.442986 0.209870 0.777275 -0.570966
Zn1   Zn    Zn3+2 0.471390 0.381080 0.476380 0.941399
Zn2   Zn    Zn3+2 0.528610 0.618920 0.523620 0.954364

loop_
_geom_bond_atom_site_label_1
_geom_bond_atom_site_label_2
_ccdc_geom_bond_type
C24   H4    S    
C38   H22   S    
C42   H32   S    
C33   H10   S    
C4    O6    A    
C33   O12   S    
C43   H35   S    
N1    Zn1   S    
C1    C11   S    
C7    C8    A    
C29   H1    S    
C9    C45   A    
C7    O4    S    
C12   C23   S    
C25   H42   S    
O6    Zn1   S    
C42   O4    S    
C23   C29   S    
C22   C24   A    
C36   C37   S    
C41   H29   S    
C38   C39   S    
C39   H26   S    
C20   C25   A    
C37   H20   S    
O10   Zn1   S    
C18   C19   A    
C47   H34   S    
C19   N2    A    
O1    Zn1   S    
C28   H2    S    
C47   C48   A    
C26   H39   S    
C38   O3    S    
C39   H24   S    
C17   O3    S    
C15   H3    S    
O11   Zn2   S    
C10   H8    S    
C18   C20   A    
C13   H41   S    
C39   H25   S    
C38   H21   S    
C28   C34   S    
C33   H11   S    
C6    C44   A    
C21   C22   A    
C12   C32   S    
C27   C30   S    
C43   H36   S    
C42   H33   S    
C4    C34   S    
C25   N1    A    
C10   C44   A    
C43   H37   S    
C3    C8    A    
C1    O5    A    
C36   H17   S    
C16   O8    A    
C2    C48   A    
C26   N1    A    
C46   O12   S    
C32   C34   S    
C5    C9    A    
C29   C30   S    
C41   H27   S    
C31   C32   S    
C44   H9    S    
C23   C34   S    
C37   H18   S    
C10   C45   A    
C17   C18   A    
O8    Zn1   S    
C40   H31   S    
C13   C21   A    
C35   H13   S    
C31   H5    S    
C14   N2    A    
O5    Zn2   S    
N2    Zn2   S    
C40   C41   S    
C22   H40   S    
C40   H30   S    
C13   C26   A    
C2    C5    A    
C42   C43   S    
C48   H23   S    
O9    Zn2   S    
C15   C17   A    
O7    Zn2   S    
C46   C47   A    
C28   C29   S    
C12   C30   S    
C28   C31   S    
C16   C45   S    
C23   H7    S    
C6    C7    A    
C27   O10   A    
C9    H12   S    
C2    C3    A    
C41   H28   S    
C30   C31   S    
C5    C6    A    
C37   H19   S    
C27   O11   A    
C33   C35   S    
C19   C24   A    
C35   H14   S    
C8    H38   S    
C32   C40   S    
C3    C11   A    
C36   O2    S    
C16   O9    A    
C20   C21   A    
C1    O1    A    
C4    O7    A    
C14   C15   A    
C11   C46   A    
C35   H15   S    
C36   H16   S    
C14   O2    S    
C12   H6    S    
