data_mof_unit_32277.cif
_audit_creation_date              2012-12-11T15:27:44-0500
_audit_creation_method            fapswitch 2.2
_symmetry_space_group_name_H-M    P1
_symmetry_Int_Tables_number       1
_space_group_crystal_system       triclinic
_cell_length_a                    23.265765
_cell_length_b                    7.301868
_cell_length_c                    15.141951
_cell_angle_alpha                 89.580145
_cell_angle_beta                  108.292811
_cell_angle_gamma                 90.504662
_cell_volume                      2442.25039003

loop_
_atom_site_label
_atom_site_type_symbol
_atom_type_description
_atom_site_fract_x
_atom_site_fract_y
_atom_site_fract_z
_atom_type_partial_charge
O1    O     O_R   0.711000 0.648610 0.341170 -0.535970
O2    O     O_R   0.289000 0.351390 0.658830 -0.535970
O3    O     O_R   0.789000 0.148610 0.158830 -0.535455
O4    O     O_R   0.211000 0.851390 0.841170 -0.535455
O5    O     O_R   0.829650 0.322030 0.336650 -0.536891
O6    O     O_R   0.170350 0.677970 0.663350 -0.536891
O7    O     O_R   0.670350 0.822030 0.163350 -0.537615
O8    O     O_R   0.329650 0.177970 0.836650 -0.537615
C1    C     C_R   0.854279 0.486069 0.356776 0.717885
C2    C     C_R   0.145721 0.513931 0.643224 0.717884
C3    C     C_R   0.645717 0.985522 0.143226 0.717309
C4    C     C_R   0.354283 0.014478 0.856774 0.717310
O9    O     O_R   0.713950 0.319280 0.352070 -0.539360
O10   O     O_R   0.286050 0.680720 0.647930 -0.539360
O11   O     O_R   0.786050 0.819280 0.147930 -0.539826
O12   O     O_R   0.213950 0.180720 0.852070 -0.539827
O13   O     O_R   0.672470 0.142870 0.174360 -0.533004
O14   O     O_R   0.327530 0.857130 0.825640 -0.533004
O15   O     O_R   0.827530 0.642870 0.325640 -0.533674
O16   O     O_R   0.172470 0.357130 0.674360 -0.533674
C5    C     C_R   0.701867 0.486556 0.375989 0.682416
C6    C     C_R   0.298133 0.513444 0.624011 0.682417
C7    C     C_R   0.798099 0.988477 0.124046 0.682264
C8    C     C_R   0.201901 0.011523 0.875954 0.682264
O17   O     O_3   0.736530 0.478650 0.191680 -0.378704
O18   O     O_3   0.263470 0.521350 0.808320 -0.378704
O19   O     O_3   0.763470 0.978650 0.308320 -0.378338
O20   O     O_3   0.236530 0.021350 0.691680 -0.378338
V1    V     V_3+5 0.752500 0.206170 0.260820 1.428425
V2    V     V_3+5 0.247500 0.793830 0.739180 1.428425
V3    V     V_3+5 0.747500 0.706170 0.239180 1.425620
V4    V     V_3+5 0.252500 0.293830 0.760820 1.425620
C9    C     C_R   0.827624 0.001592 0.052361 -0.025859
C10   C     C_R   0.172376 0.998408 0.947639 -0.025859
C11   C     C_R   0.672448 0.490006 0.447957 -0.025156
C12   C     C_R   0.327552 0.509994 0.552043 -0.025156
C13   C     C_R   0.824663 0.087300 0.896971 -0.161128
C14   C     C_R   0.175337 0.912700 0.103029 -0.161128
C15   C     C_R   0.676471 0.440952 0.607380 -0.161288
C16   C     C_R   0.323529 0.559048 0.392620 -0.161288
C17   C     C_R   0.795077 0.059701 0.962819 -0.171495
C18   C     C_R   0.204923 0.940299 0.037181 -0.171495
C19   C     C_R   0.705720 0.453629 0.540322 -0.171291
C20   C     C_R   0.294280 0.546371 0.459678 -0.171291
C21   C     C_R   0.889851 0.971476 0.076485 -0.211115
C22   C     C_R   0.110149 0.028524 0.923515 -0.211115
C23   C     C_R   0.609819 0.513177 0.422254 -0.210962
C24   C     C_R   0.390181 0.486823 0.577745 -0.210962
C25   C     C_R   0.921474 0.002683 0.011679 0.082047
C26   C     C_R   0.078526 0.997317 0.988321 0.082047
C27   C     C_R   0.578575 0.496462 0.488494 0.082366
C28   C     C_R   0.421425 0.503538 0.511506 0.082366
C29   C     C_R   0.887402 0.060989 0.920745 0.139793
C30   C     C_R   0.112598 0.939011 0.079255 0.139793
C31   C     C_R   0.613389 0.460319 0.582251 0.140255
C32   C     C_R   0.386611 0.539681 0.417749 0.140255
C33   C     C_R   0.985578 0.981252 0.034483 0.058118
C34   C     C_R   0.014422 0.018748 0.965517 0.058118
C35   C     C_R   0.514185 0.510980 0.464622 0.058355
C36   C     C_R   0.485815 0.489020 0.535377 0.058355
C37   C     C_R   0.978185 0.075526 0.876012 -0.186500
C38   C     C_R   0.021815 0.924474 0.123988 -0.186500
C39   C     C_R   0.522785 0.454208 0.627628 -0.186448
C40   C     C_R   0.477215 0.545792 0.372372 -0.186448
C41   C     C_R   0.916104 0.095514 0.854380 -0.200539
C42   C     C_R   0.083896 0.904486 0.145620 -0.200539
C43   C     C_R   0.585125 0.440771 0.650247 -0.200789
C44   C     C_R   0.414875 0.559229 0.349753 -0.200789
H1    H     H_    0.890300 0.140136 0.784870 0.123139
H2    H     H_    0.109700 0.859864 0.215130 0.123139
H3    H     H_    0.611503 0.413109 0.721922 0.123146
H4    H     H_    0.388497 0.586891 0.278078 0.123146
H5    H     H_    0.253065 0.914671 0.055692 0.105494
H6    H     H_    0.746934 0.085329 0.944308 0.105494
H7    H     H_    0.245801 0.566690 0.439794 0.104825
H8    H     H_    0.754199 0.433310 0.560206 0.104825
H9    H     H_    0.996194 0.106806 0.820312 0.125072
H10   H     H_    0.003806 0.893194 0.179688 0.125072
H11   H     H_    0.505175 0.435638 0.684831 0.124898
H12   H     H_    0.494825 0.564362 0.315169 0.124898
C45   C     C_1   0.416781 0.007638 0.918748 -0.191269
C46   C     C_1   0.583219 0.992361 0.081252 -0.191270
C47   C     C_1   0.083225 0.506324 0.581279 -0.191282
C48   C     C_1   0.916775 0.493676 0.418721 -0.191281
C49   C     C_1   0.469146 0.002729 0.969962 0.001295
C50   C     C_1   0.530854 0.997271 0.030038 0.001295
C51   C     C_1   0.030854 0.502078 0.530050 0.001393
C52   C     C_1   0.969146 0.497922 0.469950 0.001393
H13   H     H_    0.087920 0.070766 0.852819 0.097821
H14   H     H_    0.912080 0.929234 0.147181 0.097821
H15   H     H_    0.412944 0.461707 0.650447 0.097539
H16   H     H_    0.587056 0.538292 0.349553 0.097539
H17   H     H_    0.798633 0.132665 0.827741 0.112336
H18   H     H_    0.201367 0.867335 0.172259 0.112336
H19   H     H_    0.703078 0.412415 0.678813 0.112145
H20   H     H_    0.296922 0.587584 0.321187 0.112145

loop_
_geom_bond_atom_site_label_1
_geom_bond_atom_site_label_2
_ccdc_geom_bond_type
O17   V3    S    
C47   C51   T    
C51   C52   S    
O1    C5    A    
O19   V1    S    
C9    C21   A    
C23   H16   S    
O3    C7    A    
C10   C18   A    
O15   V3    S    
C25   C33   A    
C33   C38   A    
C22   H13   S    
C39   H11   S    
C49   C50   S    
O18   V4    S    
C35   C40   A    
C26   C30   A    
C36   C39   A    
C40   C44   A    
O9    V1    S    
O10   V2    S    
C14   C18   A    
O4    C8    A    
C25   C29   A    
C2    C47   S    
O1    V3    S    
O13   V1    S    
O2    V4    S    
O3    V1    S    
C28   C36   A    
C17   H6    S    
C1    O15   A    
C15   C31   A    
C2    O16   A    
C7    C9    S    
C24   H15   S    
O2    C6    A    
C10   C22   A    
C11   C19   A    
C16   C20   A    
C43   H3    S    
C44   H4    S    
C13   C29   A    
C34   C37   A    
O11   C7    A    
C11   C23   A    
C35   C36   A    
O12   C8    A    
C40   H12   S    
C16   H20   S    
O5    V1    S    
C3    C46   S    
C39   C43   A    
O7    V3    S    
C38   C42   A    
C13   H17   S    
O8    V4    S    
C37   H9    S    
C23   C27   A    
C16   C32   A    
C32   C44   A    
C8    C10   S    
C26   C34   A    
C20   H7    S    
O7    C3    A    
O5    C1    A    
C31   C43   A    
C14   C30   A    
C21   C25   A    
O8    C4    A    
C14   H18   S    
O9    C5    A    
C21   H14   S    
C15   H19   S    
O14   V2    S    
O6    V2    S    
C12   C20   A    
C27   C35   A    
C29   C41   A    
O16   V4    S    
C19   H8    S    
C3    O13   A    
C18   H5    S    
C38   H10   S    
C48   C52   T    
O6    C2    A    
C15   C19   A    
O11   V3    S    
C30   C42   A    
O12   V4    S    
C6    C12   S    
C22   C26   A    
C9    C17   A    
O10   C6    A    
O20   V2    S    
C5    C11   S    
C46   C50   T    
C33   C34   A    
C42   H2    S    
C41   H1    S    
C4    C45   S    
C12   C24   A    
C27   C31   A    
C13   C17   A    
O4    V2    S    
C1    C48   S    
C37   C41   A    
C24   C28   A    
C4    O14   A    
C45   C49   T    
C28   C32   A    
