data_mof_unit_61373.cif
_audit_creation_date              2012-12-11T17:37:31-0500
_audit_creation_method            fapswitch 2.2
_symmetry_space_group_name_H-M    P1
_symmetry_Int_Tables_number       1
_space_group_crystal_system       monoclinic
_cell_length_a                    23.751415
_cell_length_b                    6.920319
_cell_length_c                    21.968259
_cell_angle_alpha                 90.0
_cell_angle_beta                  101.779546
_cell_angle_gamma                 90.0
_cell_volume                      3534.82129639

loop_
_atom_site_label
_atom_site_type_symbol
_atom_type_description
_atom_site_fract_x
_atom_site_fract_y
_atom_site_fract_z
_atom_type_partial_charge
O1    O     O_R   0.301920 0.607900 0.199160 -0.534758
O2    O     O_R   0.698080 0.392100 0.800840 -0.535136
O3    O     O_R   0.198080 0.107900 0.300840 -0.534758
O4    O     O_R   0.801920 0.892100 0.699160 -0.535136
O5    O     O_R   0.190790 0.275820 0.184850 -0.522475
O6    O     O_R   0.809210 0.724180 0.815150 -0.522956
O7    O     O_R   0.309210 0.775820 0.315150 -0.522474
O8    O     O_R   0.690790 0.224180 0.684850 -0.522957
C1    C     C_R   0.168742 0.447177 0.166667 0.714684
C2    C     C_R   0.831268 0.552828 0.833310 0.713690
C3    C     C_R   0.331258 0.947177 0.333333 0.714683
C4    C     C_R   0.668732 0.052828 0.666690 0.713691
O9    O     O_R   0.301050 0.278040 0.191980 -0.539333
O10   O     O_R   0.698950 0.721960 0.808020 -0.539370
O11   O     O_R   0.198950 0.778040 0.308020 -0.539333
O12   O     O_R   0.801050 0.221960 0.691980 -0.539371
O13   O     O_R   0.309130 0.110040 0.308020 -0.520233
O14   O     O_R   0.690870 0.889960 0.691980 -0.519827
O15   O     O_R   0.190870 0.610040 0.191980 -0.520233
O16   O     O_R   0.809130 0.389960 0.808020 -0.519828
C5    C     C_R   0.319001 0.447298 0.178416 0.718901
C6    C     C_R   0.680891 0.552700 0.821493 0.718980
C7    C     C_R   0.180999 0.947298 0.321584 0.718902
C8    C     C_R   0.819109 0.052700 0.678508 0.718979
O17   O     O_3   0.252520 0.442130 0.288070 -0.358905
O18   O     O_3   0.747480 0.557870 0.711930 -0.357556
O19   O     O_3   0.247480 0.942130 0.211930 -0.358905
O20   O     O_3   0.752520 0.057870 0.788070 -0.357556
V1    V     V_3+5 0.249530 0.166380 0.242940 1.400278
V2    V     V_3+5 0.750470 0.833620 0.757060 1.401977
V3    V     V_3+5 0.250470 0.666380 0.257060 1.400277
V4    V     V_3+5 0.749530 0.333620 0.742940 1.401977
C9    C     C_R   0.914389 0.192111 0.564999 -0.196304
C10   C     C_R   0.068771 0.807931 0.415616 -0.197162
C11   C     C_R   0.585610 0.692112 0.935001 -0.196302
C12   C     C_R   0.431229 0.307931 0.084384 -0.197160
H1    H     H_    0.923808 0.319667 0.540374 0.194096
H2    H     H_    0.045014 0.680457 0.423850 0.194770
H3    H     H_    0.576191 0.819668 0.959625 0.194098
H4    H     H_    0.454985 0.180456 0.076150 0.194771
C13   C     C_R   0.875301 0.205179 0.604848 -0.165187
C14   C     C_R   0.109253 0.794409 0.377396 -0.163757
C15   C     C_R   0.624699 0.705180 0.895152 -0.165183
C16   C     C_R   0.390747 0.294408 0.122604 -0.163753
H5    H     H_    0.855757 0.343736 0.610386 0.148103
H6    H     H_    0.116028 0.655682 0.357232 0.145254
H7    H     H_    0.644242 0.843737 0.889613 0.148104
H8    H     H_    0.383971 0.155681 0.142768 0.145255
C17   C     C_R   0.861088 0.040852 0.636376 -0.123933
C18   C     C_R   0.139470 0.958959 0.364164 -0.123706
C19   C     C_R   0.638912 0.540852 0.863624 -0.123937
C20   C     C_R   0.360530 0.458959 0.135836 -0.123709
C21   C     C_R   0.887555 0.863716 0.627341 -0.251217
C22   C     C_R   0.128750 0.136546 0.391113 -0.254020
C23   C     C_R   0.612445 0.363716 0.872660 -0.251214
C24   C     C_R   0.371250 0.636546 0.108888 -0.254018
H9    H     H_    0.876724 0.734132 0.650083 0.132601
H10   H     H_    0.150662 0.266178 0.380967 0.134987
H11   H     H_    0.623276 0.234131 0.849918 0.132604
H12   H     H_    0.349338 0.766178 0.119033 0.134988
C25   C     C_R   0.928418 0.851458 0.589010 0.495021
C26   C     C_R   0.089682 0.149153 0.431499 0.495264
C27   C     C_R   0.571583 0.351457 0.910990 0.495022
C28   C     C_R   0.410319 0.649153 0.068502 0.495265
C29   C     C_R   0.941073 0.016113 0.556780 0.005344
C30   C     C_R   0.058605 0.984519 0.442684 0.004972
C31   C     C_R   0.558927 0.516113 0.943220 0.005341
C32   C     C_R   0.441395 0.484519 0.057317 0.004969
C33   C     C_1   0.982178 0.005569 0.516097 0.027789
C34   C     C_1   0.016797 0.995713 0.482535 0.027637
C35   C     C_1   0.517822 0.505569 0.983904 0.027785
C36   C     C_1   0.483204 0.495713 0.017465 0.027634
C37   C     C_1   0.616628 0.040819 0.614587 -0.214116
C38   C     C_1   0.383346 0.959194 0.385446 -0.214081
C39   C     C_1   0.883372 0.540819 0.885413 -0.214116
C40   C     C_1   0.116654 0.459194 0.114554 -0.214081
C41   C     C_1   0.573259 0.026839 0.571820 0.000980
C42   C     C_1   0.426704 0.973179 0.428225 0.001268
C43   C     C_1   0.926741 0.526839 0.928180 0.000980
C44   C     C_1   0.073295 0.473179 0.071775 0.001268
C45   C     C_1   0.521713 0.008122 0.521299 -0.001401
C46   C     C_1   0.478245 0.991899 0.478755 -0.001274
C47   C     C_1   0.978287 0.508122 0.978701 -0.001401
C48   C     C_1   0.021755 0.491899 0.021245 -0.001274
O21   O     O_3   0.953043 0.676049 0.579145 -0.558785
C49   C     C_3   0.991425 0.619740 0.634048 -0.294008
H13   H     H_    0.967905 0.576539 0.670755 0.136067
H14   H     H_    0.023261 0.735512 0.651427 0.131969
H15   H     H_    0.015852 0.491656 0.623493 0.174309
O22   O     O_3   0.078411 0.324911 0.456515 -0.559197
C50   C     C_3   0.126540 0.380447 0.502058 -0.294674
H16   H     H_    0.163344 0.421370 0.480562 0.138333
H17   H     H_    0.139484 0.265075 0.537533 0.132053
H18   H     H_    0.114780 0.509736 0.526609 0.174047
O23   O     O_3   0.546959 0.176048 0.920856 -0.558786
C51   C     C_3   0.508571 0.119752 0.865956 -0.294010
H19   H     H_    0.532085 0.076573 0.829242 0.136065
H20   H     H_    0.476732 0.235524 0.848586 0.131971
H21   H     H_    0.484148 0.991658 0.876510 0.174307
O24   O     O_3   0.421589 0.824911 0.043486 -0.559197
C52   C     C_3   0.373462 0.880437 0.997939 -0.294675
H22   H     H_    0.336653 0.921342 0.019429 0.138330
H23   H     H_    0.360526 0.765066 0.962461 0.132054
H24   H     H_    0.385222 0.009734 0.973391 0.174046

loop_
_geom_bond_atom_site_label_1
_geom_bond_atom_site_label_2
_ccdc_geom_bond_type
O17   V3    S    
C16   H8    S    
O1    C5    A    
C52   H22   S    
C23   H11   S    
O19   V1    S    
O13   V1    S    
O3    C7    A    
O23   C51   S    
C10   C14   A    
C44   C48   S    
O15   V3    S    
C10   C30   A    
C45   C46   T    
C9    C29   A    
O21   C49   S    
O7    C3    A    
C18   C22   A    
C28   C32   A    
O9    V1    S    
C22   H10   S    
O4    C8    A    
C49   H14   S    
C51   H21   S    
C27   O23   S    
O1    V3    S    
O2    V4    S    
C14   H6    S    
O3    V1    S    
C21   C25   A    
C1    O15   A    
C2    O16   A    
C23   C27   A    
O2    C6    A    
C24   C28   A    
O14   V2    S    
C1    C40   S    
C11   C31   A    
C11   C15   A    
C31   C35   S    
C32   C36   S    
C16   C20   A    
O11   C7    A    
C52   H23   S    
C4    C37   S    
O10   V2    S    
C13   C17   A    
O5    V1    S    
O17   V1    S    
C27   C31   A    
O7    V3    S    
C26   C30   A    
O19   V3    S    
O8    V4    S    
C12   H4    S    
C50   H16   S    
C21   H9    S    
C49   H13   S    
C7    C18   S    
C22   C26   A    
C3    C38   S    
C9    H1    S    
C24   H12   S    
C51   H20   S    
C11   H3    S    
O5    C1    A    
C50   H17   S    
C2    C39   S    
C42   C46   S    
C47   C48   T    
O20   V4    S    
O8    C4    A    
C51   H19   S    
O9    C5    A    
C25   O21   S    
C14   C18   A    
O6    V2    S    
O18   V2    S    
C52   H24   S    
C12   C16   A    
O16   V4    S    
C8    C17   S    
C29   C33   S    
C3    O13   A    
C13   H5    S    
C10   H2    S    
C40   C44   T    
C49   H15   S    
O6    C2    A    
C12   C32   A    
O11   V3    S    
O18   V4    S    
O12   V4    S    
C9    C13   A    
O10   C6    A    
O20   V2    S    
C35   C36   T    
C50   H18   S    
C43   C47   S    
C15   C19   A    
O22   C50   S    
C30   C34   S    
C39   C43   T    
C17   C21   A    
C26   O22   S    
O24   C52   S    
C19   C23   A    
C33   C34   T    
C25   C29   A    
C28   O24   S    
O12   C8    A    
C41   C45   S    
C38   C42   T    
C4    O14   A    
C37   C41   T    
C15   H7    S    
C5    C20   S    
O4    V2    S    
C20   C24   A    
C6    C19   S    
