data_mof_unit_57285.cif
_audit_creation_date              2012-10-26T20:18:15-0400
_audit_creation_method            fapswitch 2.2
_symmetry_space_group_name_H-M    P1
_symmetry_Int_Tables_number       1
_space_group_crystal_system       triclinic
_cell_length_a                    23.486415
_cell_length_b                    8.684707
_cell_length_c                    7.435669
_cell_angle_alpha                 102.919368
_cell_angle_beta                  94.29857
_cell_angle_gamma                 92.367204
_cell_volume                      1471.48839314

loop_
_atom_site_label
_atom_site_type_symbol
_atom_type_description
_atom_site_fract_x
_atom_site_fract_y
_atom_site_fract_z
_atom_type_partial_charge
C1    C     C_R   0.498281 0.199671 0.453256 0.554844
C2    C     C_R   0.706827 0.536750 0.661196 -0.082450
C3    C     C_R   0.233837 0.462524 0.339582 0.143458
C4    C     C_R   0.766158 0.536758 0.660406 0.143515
C5    C     C_R   0.209139 0.500290 0.509704 0.248169
C6    C     C_R   0.790860 0.499512 0.490249 0.248133
C7    C     C_2   0.497456 0.031842 0.426860 -0.147669
C8    C     C_2   0.502544 0.968158 0.573140 -0.147669
C9    C     C_R   0.390943 0.499397 0.502160 0.550594
C10   C     C_R   0.609057 0.500594 0.497839 0.550616
C11   C     C_R   0.881519 0.625633 0.453981 0.396511
C12   C     C_R   0.501718 0.800329 0.546744 0.554851
C13   C     C_R   0.118484 0.374155 0.545930 0.396466
C14   C     C_R   0.878635 0.368475 0.520043 0.393886
C15   C     C_R   0.121368 0.631291 0.479801 0.393906
C16   C     C_R   0.938410 0.367238 0.527394 0.030291
C17   C     C_R   0.061592 0.632533 0.472455 0.030290
C18   C     C_R   0.969901 0.499030 0.496266 -0.026797
C19   C     C_R   0.030101 0.500746 0.503598 -0.026795
C20   C     C_R   0.941336 0.629111 0.457846 0.028666
C21   C     C_R   0.058666 0.370667 0.542029 0.028654
C22   C     C_R   0.967316 0.238536 0.566521 -0.128673
C23   C     C_R   0.244035 0.534972 0.676477 -0.062283
C24   C     C_R   0.032686 0.761232 0.433320 -0.128670
C25   C     C_R   0.026857 0.240296 0.573942 -0.132090
C26   C     C_R   0.973144 0.759478 0.425916 -0.132084
C27   C     C_R   0.755968 0.465445 0.323478 -0.062313
C28   C     C_R   0.303335 0.533904 0.674837 -0.148420
C29   C     C_R   0.696671 0.466579 0.325139 -0.148420
C30   C     C_R   0.328390 0.498650 0.505862 -0.025284
C31   C     C_R   0.671612 0.501284 0.494130 -0.025274
C32   C     C_R   0.293170 0.462582 0.338804 -0.082476
Cu1   Cu    Cu3+1 0.506340 0.517380 0.684380 0.965982
Cu2   Cu    Cu3+1 0.493660 0.482620 0.315620 0.965989
H1    H     H_    0.944058 0.136489 0.592376 0.170734
H2    H     H_    0.688416 0.565332 0.793104 0.152592
H3    H     H_    0.492659 0.960329 0.285833 0.135980
H4    H     H_    0.507341 0.039671 0.714167 0.135982
H5    H     H_    0.454944 0.379149 0.948630 0.240443
H6    H     H_    0.545056 0.620851 0.051370 0.240428
H7    H     H_    0.170974 0.326584 0.168952 0.259851
H8    H     H_    0.175473 0.518233 0.153481 0.257989
H9    H     H_    0.824464 0.480348 0.846187 0.258171
H10   H     H_    0.829053 0.672192 0.831460 0.259787
H11   H     H_    0.055943 0.863276 0.407456 0.170719
H12   H     H_    0.047839 0.139406 0.604898 0.163721
H13   H     H_    0.952162 0.860369 0.394962 0.163721
H14   H     H_    0.225084 0.563185 0.807392 0.147403
H15   H     H_    0.774920 0.437673 0.192546 0.147624
H16   H     H_    0.329497 0.561748 0.805494 0.142076
H17   H     H_    0.670516 0.439244 0.194475 0.142039
H18   H     H_    0.311580 0.433571 0.206920 0.152644
N1    N     N_R   0.851686 0.497284 0.486475 -0.405817
N2    N     N_R   0.148315 0.502504 0.513440 -0.405853
N3    N     N_2   0.484110 0.456420 0.038520 -0.258159
N4    N     N_2   0.515890 0.543580 0.961480 -0.258171
N5    N     N_3   0.199370 0.421905 0.166580 -0.614035
N6    N     N_3   0.800616 0.576856 0.833452 -0.614356
O1    O     O_R   0.504120 0.286130 0.619770 -0.503649
O2    O     O_2   0.146647 0.249967 0.580054 -0.469135
O3    O     O_2   0.847602 0.242563 0.547042 -0.474838
O4    O     O_2   0.152401 0.757169 0.452720 -0.474784
O5    O     O_R   0.495880 0.713870 0.380230 -0.503644
O6    O     O_R   0.493410 0.256770 0.308360 -0.495253
O7    O     O_R   0.506590 0.743230 0.691640 -0.495246
O8    O     O_R   0.423230 0.514630 0.655730 -0.504244
O9    O     O_R   0.576770 0.485370 0.344270 -0.504249
O10   O     O_R   0.412530 0.485280 0.344320 -0.504378
O11   O     O_R   0.587470 0.514720 0.655680 -0.504395
O12   O     O_2   0.853358 0.749833 0.419892 -0.469152

loop_
_geom_bond_atom_site_label_1
_geom_bond_atom_site_label_2
_ccdc_geom_bond_type
Cu2   O9    S    
C2    C4    A    
N3    N4    D    
C15   N2    A    
C1    O6    A    
C11   N1    A    
C27   C29   A    
H6    N4    S    
C12   O7    A    
Cu1   O7    S    
C6    C27   A    
C5    C23   A    
Cu1   O11   S    
C8    C12   S    
Cu1   N4    S    
Cu2   O6    S    
Cu1   Cu2   S    
C7    H3    S    
C9    O10   A    
H7    N5    S    
Cu2   N3    S    
Cu1   O1    S    
C13   O2    S    
Cu2   O10   S    
C10   O9    A    
C30   C32   A    
C22   H1    S    
C1    O1    A    
C20   C26   A    
C26   H13   S    
C29   C31   A    
C24   H11   S    
C9    C30   S    
H8    N5    S    
C28   C30   A    
Cu2   O5    S    
C17   C19   A    
C15   O4    S    
C24   C26   A    
Cu1   O8    S    
C13   N2    A    
C18   C20   A    
C8    H4    S    
C3    C32   A    
C14   C16   A    
C11   C20   A    
C11   O12   S    
C17   C24   A    
C23   C28   A    
C6    N1    S    
C13   C21   A    
C10   O11   A    
C3    N5    S    
C5    N2    S    
C7    C8    D    
C14   N1    A    
C2    H2    S    
C4    C6    A    
C18   C19   A    
C29   H17   S    
C4    N6    S    
C15   C17   A    
C12   O5    A    
C21   C25   A    
C9    O8    A    
C32   H18   S    
C16   C22   A    
C23   H14   S    
H9    N6    S    
C19   C21   A    
C1    C7    S    
C14   O3    S    
C28   H16   S    
C25   H12   S    
C16   C18   A    
H5    N3    S    
C27   H15   S    
H10   N6    S    
C2    C31   A    
C3    C5    A    
C22   C25   A    
C10   C31   S    
