data_mof_unit_32188.cif
_audit_creation_date              2012-12-11T16:07:23-0500
_audit_creation_method            fapswitch 2.2
_symmetry_space_group_name_H-M    P1
_symmetry_Int_Tables_number       1
_space_group_crystal_system       triclinic
_cell_length_a                    17.117722
_cell_length_b                    17.117715
_cell_length_c                    17.267775
_cell_angle_alpha                 90.086202
_cell_angle_beta                  90.086205
_cell_angle_gamma                 89.999177
_cell_volume                      5059.72785541

loop_
_atom_site_label
_atom_site_type_symbol
_atom_type_description
_atom_site_fract_x
_atom_site_fract_y
_atom_site_fract_z
_atom_type_partial_charge
C1    C     C_R   0.394396 0.698241 0.606722 -0.152659
C2    C     C_R   0.577533 0.670771 0.645401 -0.098089
C3    C     C_3   0.771482 0.189085 0.638161 0.649006
C4    C     C_3   0.715418 0.754464 0.275241 0.625639
C5    C     C_3   0.245543 0.284573 0.724752 0.625663
C6    C     C_3   0.810920 0.228526 0.361837 0.649003
C7    C     C_3   0.189089 0.771522 0.638156 0.649229
C8    C     C_3   0.689184 0.727784 0.862364 0.649387
C9    C     C_3   0.272210 0.310821 0.137638 0.649389
C10   C     C_3   0.784464 0.253746 0.775024 0.626032
C11   C     C_3   0.215469 0.746202 0.225006 0.625804
C12   C     C_3   0.310862 0.271026 0.861223 0.648961
C13   C     C_R   0.698153 0.393459 0.393735 -0.141662
C14   C     C_3   0.728983 0.689131 0.138781 0.648960
C15   C     C_3   0.253799 0.784532 0.774994 0.625804
C16   C     C_3   0.746247 0.215529 0.224980 0.626028
C17   C     C_R   0.301846 0.606465 0.606334 -0.149304
C18   C     C_R   0.577752 0.669817 0.353957 -0.039213
C19   C     C_R   0.422211 0.328905 0.645081 -0.101333
C20   C     C_R   0.301759 0.605604 0.393278 -0.152656
C21   C     C_R   0.698241 0.394472 0.606792 -0.160469
C22   C     C_R   0.922462 0.171021 0.145257 -0.099992
C23   C     C_R   0.077661 0.828980 0.854738 -0.098574
C24   C     C_R   0.198301 0.105639 0.106585 -0.153079
C25   C     C_R   0.605528 0.301759 0.393209 -0.160474
C26   C     C_R   0.801739 0.893370 0.893872 -0.142947
C27   C     C_R   0.077592 0.830470 0.146200 -0.039295
C28   C     C_R   0.922280 0.169538 0.853799 -0.037985
C29   C     C_R   0.801863 0.894564 0.106903 -0.159921
C30   C     C_R   0.198086 0.106427 0.893510 -0.148223
C31   C     C_R   0.894361 0.801699 0.893414 -0.153074
C32   C     C_R   0.106630 0.198262 0.106127 -0.142943
C33   C     C_R   0.169530 0.922407 0.853800 -0.039295
C34   C     C_R   0.830462 0.077720 0.146201 -0.037978
C35   C     C_R   0.105435 0.198136 0.893095 -0.159914
C36   C     C_R   0.669438 0.577442 0.646382 -0.037423
C37   C     C_R   0.893572 0.801913 0.106488 -0.148219
C38   C     C_R   0.828979 0.077538 0.854743 -0.099979
C39   C     C_R   0.171019 0.922339 0.145262 -0.098572
C40   C     C_3   0.321932 0.323939 0.250343 0.032701
C41   C     C_3   0.676061 0.678068 0.749657 0.032700
C42   C     C_3   0.264689 0.733873 0.336435 0.057234
C43   C     C_3   0.735322 0.266149 0.663573 0.057366
C44   C     C_3   0.678768 0.676737 0.251174 0.032084
C45   C     C_3   0.323264 0.321234 0.748826 0.032071
C46   C     C_3   0.733851 0.264677 0.336429 0.057364
C47   C     C_R   0.329229 0.422467 0.354599 -0.098098
C48   C     C_3   0.266127 0.735311 0.663564 0.057235
C49   C     C_3   0.765916 0.764419 0.836888 0.058225
C50   C     C_3   0.235582 0.234084 0.163110 0.058226
C51   C     C_3   0.821387 0.176229 0.750775 0.032566
C52   C     C_3   0.178500 0.823694 0.249248 0.032068
C53   C     C_3   0.233588 0.235111 0.835998 0.056443
C54   C     C_3   0.764888 0.766411 0.163998 0.056453
C55   C     C_3   0.176306 0.821500 0.750752 0.032069
C56   C     C_3   0.823771 0.178614 0.249225 0.032560
C57   C     C_R   0.318246 0.682616 0.624428 0.141434
C58   C     C_R   0.606540 0.301847 0.606266 -0.141669
C59   C     C_R   0.681706 0.317338 0.375573 0.141622
C60   C     C_R   0.635439 0.636611 0.689030 0.062267
C61   C     C_R   0.363388 0.364560 0.310970 0.062268
C62   C     C_R   0.682662 0.318294 0.624428 0.141621
C63   C     C_R   0.317384 0.681753 0.375571 0.141432
C64   C     C_R   0.363934 0.362765 0.688454 0.065220
C65   C     C_R   0.637237 0.636068 0.311547 0.065225
C66   C     C_R   0.864404 0.137090 0.188739 0.063654
C67   C     C_R   0.135665 0.863004 0.811250 0.063745
C68   C     C_R   0.182798 0.181887 0.124092 0.138873
C69   C     C_R   0.393535 0.698154 0.393665 -0.149304
C70   C     C_R   0.818113 0.817202 0.875906 0.138870
C71   C     C_R   0.136995 0.864335 0.188751 0.063744
C72   C     C_R   0.862911 0.135595 0.811260 0.063651
C73   C     C_R   0.817513 0.818435 0.124751 0.144122
C74   C     C_R   0.181564 0.182486 0.875245 0.144119
C75   C     C_3   0.713613 0.649038 0.825469 -0.313601
C76   C     C_3   0.244342 0.350158 0.212906 -0.347194
C77   C     C_3   0.706944 0.228787 0.739429 -0.330449
C78   C     C_3   0.292991 0.771226 0.260554 -0.329230
C79   C     C_3   0.286697 0.350145 0.825137 -0.313557
C80   C     C_R   0.330184 0.422249 0.646044 -0.039218
C81   C     C_3   0.756767 0.650780 0.214533 -0.345296
C82   C     C_3   0.292116 0.813082 0.700455 -0.335336
C83   C     C_3   0.707933 0.186909 0.299497 -0.334327
C84   C     C_3   0.771204 0.293053 0.260568 -0.330448
C85   C     C_3   0.228776 0.707009 0.739447 -0.329230
C86   C     C_3   0.649859 0.713291 0.174857 -0.313548
C87   C     C_3   0.349226 0.243239 0.785476 -0.345284
C88   C     C_3   0.186919 0.707884 0.299544 -0.335335
C89   C     C_3   0.813085 0.292070 0.700513 -0.334339
C90   C     C_3   0.350959 0.286394 0.174527 -0.313599
C91   C     C_R   0.671096 0.577790 0.354920 -0.101348
C92   C     C_3   0.649840 0.755654 0.787100 -0.347194
C93   C     C_3   0.313130 0.207928 0.200265 -0.335580
C94   C     C_3   0.728041 0.792765 0.761168 -0.330091
C95   C     C_3   0.149520 0.786661 0.325223 -0.313153
C96   C     C_3   0.850436 0.213270 0.674827 -0.313806
C97   C     C_3   0.686935 0.792324 0.200350 -0.333960
C98   C     C_3   0.270475 0.206870 0.759786 -0.329761
C99   C     C_3   0.849744 0.256430 0.286435 -0.346267
C100  C     C_3   0.150265 0.743684 0.713576 -0.346051
C101  C     C_3   0.213337 0.850480 0.674776 -0.313153
C102  C     C_R   0.422558 0.330562 0.353619 -0.037419
C103  C     C_3   0.786739 0.149566 0.325179 -0.313802
C104  C     C_3   0.207671 0.313059 0.799637 -0.333946
C105  C     C_3   0.793125 0.729537 0.240217 -0.329739
C106  C     C_3   0.743576 0.150253 0.713557 -0.346273
C107  C     C_3   0.256315 0.849736 0.286425 -0.346050
C108  C     C_3   0.792074 0.686873 0.799728 -0.335587
C109  C     C_3   0.207236 0.271953 0.238834 -0.330092
C110  C     C_3   0.284533 0.246741 0.274633 0.626301
C111  C     C_3   0.753254 0.715472 0.725364 0.626306
C112  C     C_3   0.228477 0.810910 0.361844 0.649228
H1    H     H_    0.422434 0.754826 0.605699 0.106093
H2    H     H_    0.543170 0.721574 0.659926 0.096351
H3    H     H_    0.755043 0.420951 0.394287 0.114452
H4    H     H_    0.245012 0.578848 0.605926 0.118592
H5    H     H_    0.543121 0.720134 0.338270 0.102086
H6    H     H_    0.456755 0.278185 0.659492 0.097112
H7    H     H_    0.245174 0.577566 0.394301 0.106092
H8    H     H_    0.754765 0.422646 0.605936 0.110083
H9    H     H_    0.957039 0.221740 0.159750 0.097054
H10   H     H_    0.043302 0.778135 0.840231 0.096412
H11   H     H_    0.254848 0.077525 0.105515 0.106446
H12   H     H_    0.577354 0.245235 0.394065 0.110082
H13   H     H_    0.744841 0.920844 0.894441 0.114707
H14   H     H_    0.042942 0.780213 0.161916 0.101702
H15   H     H_    0.956719 0.219915 0.838059 0.101179
H16   H     H_    0.745351 0.922765 0.106046 0.109618
H17   H     H_    0.254955 0.078882 0.893870 0.118391
H18   H     H_    0.922475 0.745152 0.894484 0.106447
H19   H     H_    0.079156 0.255160 0.105558 0.114709
H20   H     H_    0.219787 0.957058 0.838085 0.101703
H21   H     H_    0.780085 0.043280 0.161941 0.101185
H22   H     H_    0.077235 0.254649 0.893952 0.109618
H23   H     H_    0.719797 0.542942 0.662203 0.100863
H24   H     H_    0.921118 0.745045 0.106129 0.118396
H25   H     H_    0.778260 0.042961 0.840250 0.097053
H26   H     H_    0.221864 0.956698 0.159770 0.096412
H27   H     H_    0.705202 0.590405 0.851507 0.151838
H28   H     H_    0.217695 0.409150 0.216715 0.148262
H29   H     H_    0.648589 0.237150 0.766224 0.150896
H30   H     H_    0.351337 0.762900 0.233730 0.152319
H31   H     H_    0.295819 0.408569 0.851603 0.152711
H32   H     H_    0.783903 0.592060 0.218932 0.149145
H33   H     H_    0.350810 0.840335 0.696574 0.147473
H34   H     H_    0.278425 0.456830 0.340074 0.096352
H35   H     H_    0.649258 0.159609 0.303364 0.149345
H36   H     H_    0.762833 0.351406 0.233768 0.150897
H37   H     H_    0.237103 0.648663 0.766271 0.152319
H38   H     H_    0.591439 0.704159 0.148388 0.152711
H39   H     H_    0.407950 0.216110 0.781087 0.149142
H40   H     H_    0.159666 0.649189 0.303423 0.147473
H41   H     H_    0.840379 0.350747 0.696653 0.149345
H42   H     H_    0.409591 0.294810 0.148487 0.151837
H43   H     H_    0.590845 0.782297 0.783295 0.148262
H44   H     H_    0.340143 0.149096 0.196598 0.147467
H45   H     H_    0.579049 0.244957 0.605713 0.114449
H46   H     H_    0.735948 0.851225 0.734486 0.150692
H47   H     H_    0.091004 0.795477 0.351415 0.152459
H48   H     H_    0.908959 0.204416 0.648660 0.151978
H49   H     H_    0.659486 0.850901 0.196032 0.149455
H50   H     H_    0.261829 0.148606 0.732712 0.152346
H51   H     H_    0.908570 0.283389 0.282442 0.148813
H52   H     H_    0.091423 0.716762 0.717570 0.148689
H53   H     H_    0.204520 0.908995 0.648584 0.152458
H54   H     H_    0.795600 0.091045 0.351349 0.151977
H55   H     H_    0.149090 0.340502 0.803945 0.149451
H56   H     H_    0.421152 0.754988 0.394074 0.118592
H57   H     H_    0.851385 0.738193 0.267294 0.152348
H58   H     H_    0.716622 0.091423 0.717543 0.148813
H59   H     H_    0.283236 0.908578 0.282433 0.148689
H60   H     H_    0.850908 0.659864 0.803389 0.147466
H61   H     H_    0.148779 0.264040 0.265519 0.150693
H62   H     H_    0.261615 0.163938 0.345780 0.304225
H63   H     H_    0.836052 0.738397 0.654213 0.304224
H64   H     H_    0.206423 0.890871 0.436304 0.301336
H65   H     H_    0.793538 0.109147 0.563674 0.301618
H66   H     H_    0.737294 0.838103 0.346055 0.304850
H67   H     H_    0.279867 0.456879 0.661731 0.102079
H68   H     H_    0.161917 0.262668 0.653924 0.304831
H69   H     H_    0.890867 0.206480 0.436320 0.301618
H70   H     H_    0.109126 0.793574 0.563697 0.301335
H71   H     H_    0.609713 0.705167 0.936933 0.301303
H72   H     H_    0.294818 0.390298 0.063073 0.301302
H73   H     H_    0.762143 0.336981 0.846109 0.304812
H74   H     H_    0.237786 0.662953 0.153937 0.304150
H75   H     H_    0.391255 0.292677 0.935409 0.301642
H76   H     H_    0.707348 0.608728 0.064604 0.301641
H77   H     H_    0.337050 0.762217 0.846061 0.304149
H78   H     H_    0.721816 0.543245 0.340509 0.097113
H79   H     H_    0.663004 0.237840 0.153898 0.304810
H80   H     H_    0.457058 0.280203 0.337797 0.100868
N1    N     N_R   0.424590 0.632770 0.578330 -0.047230
N2    N     N_R   0.575410 0.632770 0.578330 -0.043243
N3    N     N_R   0.632770 0.424590 0.421670 -0.049523
N4    N     N_R   0.367230 0.575410 0.578330 -0.052162
N5    N     N_R   0.575410 0.632770 0.421670 -0.045898
N6    N     N_R   0.424590 0.367230 0.578330 -0.043399
N7    N     N_R   0.367230 0.575410 0.421670 -0.047229
N8    N     N_R   0.632770 0.424590 0.578330 -0.049784
N9    N     N_R   0.924590 0.132770 0.078330 -0.043418
N10   N     N_R   0.075410 0.867230 0.921670 -0.043220
N11   N     N_R   0.132770 0.075410 0.078330 -0.047105
N12   N     N_R   0.575410 0.367230 0.421670 -0.049784
N13   N     N_R   0.867230 0.924590 0.921670 -0.049412
N14   N     N_R   0.075410 0.867230 0.078330 -0.045776
N15   N     N_R   0.924590 0.132770 0.921670 -0.045508
N16   N     N_R   0.867230 0.924590 0.078330 -0.049819
N17   N     N_R   0.132770 0.075410 0.921670 -0.052385
N18   N     N_R   0.924590 0.867230 0.921670 -0.047105
N19   N     N_R   0.075410 0.132770 0.078330 -0.049413
N20   N     N_R   0.132770 0.924590 0.921670 -0.045776
N21   N     N_R   0.867230 0.075410 0.078330 -0.045510
N22   N     N_R   0.075410 0.132770 0.921670 -0.049819
N23   N     N_R   0.632770 0.575410 0.578330 -0.045453
N24   N     N_R   0.924590 0.867230 0.078330 -0.052386
N25   N     N_R   0.867230 0.075410 0.921670 -0.043417
N26   N     N_R   0.132770 0.924590 0.078330 -0.043220
N27   N     N_R   0.367230 0.424590 0.421670 -0.043243
N28   N     N_R   0.575410 0.367230 0.578330 -0.049523
N29   N     N_R   0.424590 0.632770 0.421670 -0.052162
N30   N     N_R   0.367230 0.424590 0.578330 -0.045896
N31   N     N_R   0.632770 0.575410 0.421670 -0.043399
N32   N     N_R   0.424590 0.367230 0.421670 -0.045454
Ni1   Ni    Ni4+2 0.500000 0.631570 0.500000 0.229681
Ni2   Ni    Ni4+2 0.500000 0.368430 0.500000 0.229625
Ni3   Ni    Ni4+2 0.631570 0.500000 0.500000 0.229624
Ni4   Ni    Ni4+2 0.368430 0.500000 0.500000 0.229680
Ni5   Ni    Ni4+2 0.000000 0.131570 0.000000 0.229621
Ni6   Ni    Ni4+2 0.000000 0.868430 0.000000 0.229704
Ni7   Ni    Ni4+2 0.131570 0.000000 0.000000 0.229703
Ni8   Ni    Ni4+2 0.868430 0.000000 0.000000 0.229622
O1    O     O_3   0.291342 0.213571 0.348362 -0.751776
O2    O     O_3   0.262857 0.342029 0.063495 -0.725151
O3    O     O_3   0.791620 0.287207 0.848690 -0.751586
O4    O     O_3   0.208284 0.712713 0.151356 -0.751417
O5    O     O_3   0.342756 0.261060 0.935067 -0.725002
O6    O     O_3   0.738959 0.657229 0.064942 -0.725009
O7    O     O_3   0.287289 0.791718 0.848643 -0.751416
O8    O     O_3   0.712780 0.208364 0.151317 -0.751586
O9    O     O_3   0.786420 0.708669 0.651632 -0.751773
O10   O     O_3   0.238164 0.842455 0.435900 -0.725051
O11   O     O_3   0.761813 0.157574 0.564087 -0.725237
O12   O     O_3   0.707920 0.788275 0.348692 -0.751220
O13   O     O_3   0.211740 0.292061 0.651296 -0.751196
O14   O     O_3   0.842438 0.238203 0.435908 -0.725236
O15   O     O_3   0.157543 0.761833 0.564101 -0.725051
O16   O     O_3   0.657980 0.737131 0.936509 -0.725154

loop_
_geom_bond_atom_site_label_1
_geom_bond_atom_site_label_2
_ccdc_geom_bond_type
C58   C62   A    
N4    Ni4   S    
C24   N11   A    
C7    O15   S    
C46   C59   S    
N14   Ni6   S    
C11   C88   S    
C88   H40   S    
C107  C112  S    
C39   N26   A    
C53   C74   S    
C109  H61   S    
C25   N12   A    
N25   Ni8   S    
C34   C66   A    
C30   N17   A    
C24   H11   S    
C102  N32   A    
C48   C57   S    
C35   C74   A    
C107  H59   S    
C32   C68   A    
N14   N26   A    
C18   C65   A    
N9    N21   A    
C3    C43   S    
C10   O3    S    
C43   C89   S    
C29   N16   A    
C83   C103  S    
C22   H9    S    
C95   H47   S    
N2    Ni1   S    
C77   C106  S    
C45   C87   S    
C21   H8    S    
C7    C101  S    
C95   C112  S    
C78   H30   S    
C36   N23   A    
C43   C77   S    
C30   C74   A    
C33   N20   A    
N31   Ni3   S    
C8    C49   S    
C29   C73   A    
C53   C104  S    
C12   C79   S    
C15   O7    S    
C94   C111  S    
C16   C84   S    
C52   C95   S    
H63   O9    S    
N17   Ni7   S    
C23   C67   A    
C86   C97   S    
C42   C112  S    
C22   C66   A    
C11   C52   S    
C41   C60   S    
C98   H50   S    
N27   N32   A    
C58   N28   A    
C36   H23   S    
C82   C101  S    
C81   H32   S    
C79   H31   S    
C63   C69   A    
C10   C89   S    
C76   C109  S    
C55   C100  S    
N24   Ni6   S    
C56   C66   S    
C54   C97   S    
C43   C62   S    
C3    C96   S    
C8    C92   S    
C9    C76   S    
C49   C94   S    
C49   C108  S    
N19   Ni5   S    
N7    Ni4   S    
C32   N19   A    
C37   N24   A    
H66   O12   S    
C12   C53   S    
C22   N9    A    
C28   H15   S    
C51   C96   S    
N10   Ni6   S    
C87   C98   S    
H68   O13   S    
N9    Ni5   S    
C111  O9    S    
C5    C104  S    
C75   C108  S    
N16   N24   A    
C87   H39   S    
C4    C97   S    
C64   C80   A    
C38   N25   A    
N11   N19   A    
C44   C65   S    
C28   C72   A    
C2    C60   A    
C1    H1    S    
C44   C86   S    
C10   C51   S    
C35   H22   S    
C50   C68   S    
H75   O5    S    
C10   C77   S    
C15   C82   S    
H74   O4    S    
C31   C70   A    
C3    C106  S    
C103  H54   S    
N26   Ni7   S    
C91   H78   S    
C38   C72   A    
N15   N25   A    
C7    C100  S    
C23   N10   A    
C80   H67   S    
C52   C107  S    
C100  H52   S    
C44   C81   S    
C5    O13   S    
N2    N23   A    
C14   O6    S    
N20   Ni7   S    
H69   O14   S    
N15   Ni5   S    
C40   C110  S    
N3    N12   A    
C4    C44   S    
C34   H21   S    
C36   C60   A    
C83   H35   S    
C5    C45   S    
C58   H45   S    
C50   C109  S    
C40   C61   S    
C40   C76   S    
N29   Ni1   S    
C78   C107  S    
C2    N2    A    
C26   H13   S    
C15   C55   S    
N27   Ni4   S    
C1    N1    A    
C16   C56   S    
C20   N7    A    
C23   H10   S    
C11   C78   S    
C1    C57   A    
C41   C75   S    
C54   C73   S    
C102  H80   S    
N30   Ni4   S    
C19   C64   A    
N1    N4    A    
H72   O2    S    
N23   Ni3   S    
C18   N5    A    
C92   C94   S    
N18   Ni6   S    
C37   H24   S    
N28   Ni2   S    
C106  H58   S    
C45   C79   S    
C3    O11   S    
C6    C103  S    
C101  H53   S    
N8    Ni3   S    
C18   H5    S    
C14   C86   S    
C21   C62   A    
C13   H3    S    
N21   Ni8   S    
C105  H57   S    
N16   Ni8   S    
N7    N29   A    
C33   H20   S    
C12   O5    S    
H73   O3    S    
C42   C78   S    
C97   H49   S    
C49   C70   S    
C108  H60   S    
C41   C111  S    
C26   C70   A    
C99   H51   S    
C79   C104  S    
C26   N13   A    
C42   C88   S    
C51   C72   S    
C76   H28   S    
C91   N31   A    
C14   C54   S    
H62   O1    S    
N5    Ni1   S    
H79   O8    S    
C82   H33   S    
C27   C71   A    
C21   N8    A    
C33   C67   A    
C90   C93   S    
H64   O10   S    
C11   O4    S    
C65   C91   A    
C81   C105  S    
C37   C73   A    
C19   N6    A    
C84   H36   S    
C6    C46   S    
C54   C105  S    
N6    N30   A    
C9    O2    S    
C84   C99   S    
C6    O14   S    
C93   H44   S    
C9    C50   S    
C56   C103  S    
N10   N20   A    
N5    N31   A    
C34   N21   A    
N32   Ni2   S    
C9    C90   S    
C47   C61   A    
C55   C67   S    
C110  O1    S    
C50   C93   S    
C88   C95   S    
C13   C59   A    
N3    Ni3   S    
C53   C98   S    
C31   H18   S    
C30   H17   S    
N13   Ni8   S    
C4    C105  S    
C55   C101  S    
C45   C64   S    
N17   N22   A    
C14   C81   S    
C108  C111  S    
C15   C85   S    
C39   H26   S    
C27   N14   A    
C6    C99   S    
C89   C96   S    
C86   H38   S    
C96   H48   S    
C69   H56   S    
N1    Ni1   S    
C12   C87   S    
C85   C100  S    
C75   H27   S    
H70   O15   S    
C7    C48   S    
C104  H55   S    
N11   Ni7   S    
C2    H2    S    
C90   H42   S    
C31   N18   A    
C47   N27   A    
N13   N18   A    
C20   C63   A    
C51   C106  S    
N8    N28   A    
C19   H6    S    
C112  O10   S    
C27   H14   S    
C38   H25   S    
C48   C82   S    
C61   C102  A    
C92   H43   S    
C69   N29   A    
H71   O16   S    
C8    C75   S    
C35   N22   A    
C85   H37   S    
C25   H12   S    
C47   H34   S    
C89   H41   S    
H76   O6    S    
C46   C84   S    
C24   C68   A    
C80   N30   A    
C46   C83   S    
H65   O11   S    
C16   O8    S    
C41   C92   S    
N6    Ni2   S    
C5    C98   S    
C8    O16   S    
C77   H29   S    
C94   H46   S    
C13   N3    A    
C29   H16   S    
C52   C71   S    
C28   N15   A    
C39   C71   A    
C48   C85   S    
C17   N4    A    
C16   C83   S    
C25   C59   A    
C56   C99   S    
C40   C90   S    
C109  C110  S    
N22   Ni5   S    
N12   Ni2   S    
C42   C63   S    
C4    O12   S    
C20   H7    S    
C32   H19   S    
C17   H4    S    
C17   C57   A    
C93   C110  S    
H77   O7    S    
