data_mof_unit_64848.cif
_audit_creation_date              2012-12-10T17:07:13-0500
_audit_creation_method            fapswitch 2.2
_symmetry_space_group_name_H-M    P1
_symmetry_Int_Tables_number       1
_space_group_crystal_system       triclinic
_cell_length_a                    10.029544
_cell_length_b                    10.756116
_cell_length_c                    13.626779
_cell_angle_alpha                 89.983039
_cell_angle_beta                  83.028598
_cell_angle_gamma                 89.076272
_cell_volume                      1458.98254748

loop_
_atom_site_label
_atom_site_type_symbol
_atom_type_description
_atom_site_fract_x
_atom_site_fract_y
_atom_site_fract_z
_atom_type_partial_charge
C1    C     C_R   0.497939 0.737241 0.506509 0.823220
C2    C     C_1   0.457761 0.499951 0.789505 -0.160885
C3    C     C_2   0.608067 0.064635 0.525137 0.510943
C4    C     C_2   0.507849 0.130710 0.492499 -0.293415
C5    C     C_2   0.607338 0.931035 0.513025 -0.341972
C6    C     C_2   0.492960 0.867876 0.529768 0.253054
C7    C     C_2   0.084736 0.422159 0.448684 -0.113236
C8    C     C_2   0.934067 0.417684 0.453291 -0.095043
C9    C     C_R   0.475992 0.499980 0.685703 0.903725
C10   C     C_R   0.501582 0.262591 0.499441 0.933725
C11   C     C_R   0.524008 0.500038 0.314304 0.887493
C12   C     C_1   0.542244 0.499923 0.210501 -0.177820
C13   C     C_2   0.557921 0.499746 0.018826 -0.154844
C14   C     C_2   0.442087 0.499867 0.981181 -0.157179
C15   C     C_1   0.445955 0.499913 0.877303 0.019069
C16   C     C_1   0.554052 0.499825 0.122703 0.010389
H1    H     H_    0.345868 0.499980 0.027550 0.160838
H2    H     H_    0.891307 0.573576 0.531518 0.160988
H3    H     H_    0.654140 0.499650 0.972457 0.163390
H4    H     H_    0.429097 0.086923 0.457208 0.149044
H5    H     H_    0.702617 0.885756 0.486638 0.140043
H6    H     H_    0.143269 0.355208 0.401180 0.162115
H7    H     H_    0.093197 0.557761 0.548009 0.161323
H8    H     H_    0.892253 0.342565 0.414272 0.169157
N1    N     N_2   0.147970 0.498670 0.498970 -0.188026
N2    N     N_2   0.852310 0.498640 0.498940 -0.186382
O1    O     O_R   0.386960 0.680940 0.500020 -0.620876
O2    O     O_R   0.613100 0.680900 0.499980 -0.631314
O3    O     O_R   0.370650 0.500000 0.640370 -0.607843
O4    O     O_R   0.596800 0.499960 0.640330 -0.594687
O5    O     O_R   0.386900 0.319100 0.500020 -0.617729
O6    O     O_R   0.613040 0.319060 0.499980 -0.550677
O7    O     O_R   0.403200 0.500040 0.359670 -0.604085
O8    O     O_R   0.629350 0.500000 0.359630 -0.609328
Zn1   Zn    Zn3+2 0.349000 0.500030 0.500020 0.956480
Zn2   Zn    Zn3+2 0.651000 0.499970 0.499980 0.976068
O9    O     O_3   0.711439 0.121105 0.566091 -0.742481
H9    H     H_    0.773525 0.055324 0.585483 0.330877
O10   O     O_3   0.376425 0.924559 0.575510 -0.771521
H10   H     H_    0.305134 0.861939 0.588570 0.347400

loop_
_geom_bond_atom_site_label_1
_geom_bond_atom_site_label_2
_ccdc_geom_bond_type
C1    O2    A    
C11   C12   S    
O9    H9    S    
C8    H8    S    
C9    O3    A    
C7    H6    S    
C8    N2    D    
O3    Zn1   S    
C7    N1    D    
O4    Zn2   S    
C7    C8    S    
C13   C14   D    
C2    C15   T    
C14   H1    S    
O2    Zn2   S    
C9    O4    A    
N1    Zn1   S    
C12   C16   T    
O6    Zn2   S    
N2    Zn2   S    
O7    Zn1   S    
O8    Zn2   S    
H7    N1    S    
C5    C6    D    
O5    Zn1   S    
C13   H3    S    
C4    C10   S    
C1    C6    S    
C4    H4    S    
C10   O6    A    
C11   O7    A    
C5    H5    S    
C3    O9    S    
C13   C16   S    
O10   H10   S    
C1    O1    A    
C14   C15   S    
O1    Zn1   S    
C6    O10   S    
C2    C9    S    
C10   O5    A    
C11   O8    A    
C3    C4    D    
C3    C5    S    
H2    N2    S    
