data_mof_unit_10930.cif
_audit_creation_date              2012-12-11T14:57:53-0500
_audit_creation_method            fapswitch 2.2
_symmetry_space_group_name_H-M    P1
_symmetry_Int_Tables_number       1
_space_group_crystal_system       triclinic
_cell_length_a                    6.93257
_cell_length_b                    16.705244
_cell_length_c                    17.127432
_cell_angle_alpha                 100.457526
_cell_angle_beta                  91.820412
_cell_angle_gamma                 88.977146
_cell_volume                      1949.4537451

loop_
_atom_site_label
_atom_site_type_symbol
_atom_type_description
_atom_site_fract_x
_atom_site_fract_y
_atom_site_fract_z
_atom_type_partial_charge
O1    O     O_R   0.506180 0.438940 0.579430 -0.548109
O2    O     O_R   0.170520 0.406230 0.413590 -0.542715
O3    O     O_R   0.005180 0.561060 0.420570 -0.547407
C1    C     C_R   0.339153 0.383069 0.385314 0.679428
O4    O     O_R   0.176140 0.429310 0.578370 -0.544766
O5    O     O_R   0.010830 0.584300 0.586530 -0.539030
C2    C     C_R   0.349442 0.413950 0.605258 0.686360
O6    O     O_R   0.500520 0.415700 0.413470 -0.542147
O7    O     O_3   0.340830 0.550820 0.502480 -0.348328
V1    V     V_3+5 0.064040 0.490570 0.499540 1.434384
O8    O     O_R   0.681400 0.593770 0.586410 -0.513216
C3    C     C_R   0.850811 0.620739 0.611030 0.796742
O9    O     O_R   0.675790 0.570690 0.421630 -0.515949
C4    C     C_R   0.840377 0.585357 0.393670 0.766077
V2    V     V_3+5 0.564650 0.509430 0.500460 1.492087
O10   O     O_3   0.837730 0.449180 0.497520 -0.380607
C5    C     C_R   0.933182 0.857968 0.164722 -0.073411
C6    C     C_R   0.833581 0.639215 0.332800 -0.044566
C7    C     C_R   0.642254 0.701295 0.236329 -0.197590
C8    C     C_R   0.660636 0.646140 0.288694 -0.131753
C9    C     C_R   0.989817 0.688486 0.322241 -0.211031
C10   C     C_R   0.971181 0.745086 0.270203 0.152486
C11   C     C_R   0.795685 0.751852 0.227074 0.159507
C12   C     C_R   0.777005 0.808576 0.175125 -0.242360
C13   C     C_R   0.106199 0.850889 0.208766 -0.164794
C14   C     C_R   0.124611 0.795632 0.261002 -0.193911
H1    H     H_    0.643321 0.812647 0.141396 0.123614
H2    H     H_    0.229197 0.888099 0.202544 0.130644
H3    H     H_    0.507100 0.704811 0.203508 0.117437
H4    H     H_    0.259720 0.792119 0.293861 0.137261
H5    H     H_    0.537585 0.609056 0.295168 0.120727
H6    H     H_    0.123391 0.684588 0.356092 0.139714
H7    H     H_    0.992776 0.616100 0.967805 0.112794
C15   C     C_R   0.869473 0.918319 0.731440 -0.137143
C16   C     C_R   0.832582 0.940623 0.658433 -0.198745
C17   C     C_R   0.787775 0.881798 0.593003 -0.108235
C18   C     C_R   0.784989 0.799466 0.598866 0.354009
C19   C     C_R   0.838060 0.773266 0.671920 -0.004355
C20   C     C_R   0.870587 0.835588 0.740125 0.035720
C21   C     C_R   0.860323 0.689400 0.680359 -0.175460
C22   C     C_R   0.898767 0.670188 0.757103 0.060397
C23   C     C_R   0.917539 0.733235 0.824892 0.070045
C24   C     C_R   0.902907 0.815590 0.816229 -0.158641
C25   C     C_R   0.915364 0.588201 0.768208 -0.142894
C26   C     C_R   0.949269 0.569301 0.843450 -0.119054
C27   C     C_R   0.966918 0.631081 0.909433 -0.113620
C28   C     C_R   0.951145 0.712214 0.900620 -0.137898
H8    H     H_    0.897943 0.967084 0.781083 0.107407
H9    H     H_    0.832843 0.004240 0.653122 0.131234
H10   H     H_    0.749421 0.900866 0.537279 0.152944
H11   H     H_    0.900815 0.537583 0.719202 0.092224
H12   H     H_    0.961093 0.506291 0.850571 0.111280
H13   H     H_    0.965824 0.758172 0.953770 0.091222
H14   H     H_    0.046636 0.459650 0.143876 0.113146
C29   C     C_R   0.519199 0.228987 0.402856 -0.128795
C30   C     C_R   0.615572 0.157514 0.412954 -0.120336
C31   C     C_R   0.645953 0.095948 0.348040 -0.118566
C32   C     C_R   0.579944 0.105278 0.272498 -0.147358
C33   C     C_R   0.483153 0.177449 0.260093 0.066978
C34   C     C_R   0.452255 0.240825 0.326761 0.071369
C35   C     C_R   0.413878 0.186351 0.183248 -0.187851
C36   C     C_R   0.314346 0.259160 0.173410 0.071161
C37   C     C_R   0.283461 0.322538 0.240077 0.069179
C38   C     C_R   0.352701 0.313628 0.316923 -0.185554
C39   C     C_R   0.247391 0.270998 0.097317 -0.126996
C40   C     C_R   0.151019 0.342472 0.087220 -0.120140
C41   C     C_R   0.120667 0.404044 0.152133 -0.126756
C42   C     C_R   0.186699 0.394717 0.227670 -0.151721
H15   H     H_    0.495916 0.274261 0.455573 0.101741
H16   H     H_    0.665759 0.149648 0.471625 0.114204
H17   H     H_    0.719990 0.040345 0.356300 0.122902
H18   H     H_    0.605273 0.055085 0.224256 0.112904
H19   H     H_    0.270660 0.225724 0.044599 0.101674
H20   H     H_    0.100815 0.350334 0.028551 0.111856
H21   H     H_    0.161408 0.444922 0.275904 0.105388
C43   C     C_R   0.386309 0.138398 0.833636 -0.069065
C44   C     C_R   0.379478 0.362094 0.666824 -0.067367
C45   C     C_R   0.599318 0.315154 0.764293 -0.201080
C46   C     C_R   0.553891 0.368594 0.712300 -0.156354
C47   C     C_R   0.248418 0.301646 0.676163 -0.248437
C48   C     C_R   0.294235 0.247049 0.728183 0.158460
C49   C     C_R   0.471644 0.253499 0.772322 0.158636
C50   C     C_R   0.517489 0.198825 0.824292 -0.248672
C51   C     C_R   0.211766 0.132095 0.788292 -0.152349
C52   C     C_R   0.166436 0.185483 0.736272 -0.199477
H22   H     H_    0.651443 0.205026 0.859153 0.123245
H23   H     H_    0.107601 0.086121 0.793844 0.124532
H24   H     H_    0.735426 0.321642 0.797618 0.117675
H25   H     H_    0.030246 0.179045 0.703000 0.117750
H26   H     H_    0.657857 0.414770 0.706878 0.123847
H27   H     H_    0.114546 0.295365 0.641245 0.123259
O11   O     O_R   0.265840 0.084300 0.086750 -0.534813
O12   O     O_R   0.589750 0.070740 0.921690 -0.540418
O13   O     O_R   0.755020 0.915730 0.913400 -0.533770
C53   C     C_R   0.416386 0.086293 0.895015 0.699389
O14   O     O_R   0.595830 0.093740 0.086480 -0.537980
O15   O     O_R   0.761150 0.938890 0.079360 -0.540745
C54   C     C_R   0.427281 0.116897 0.114857 0.693696
O16   O     O_R   0.259710 0.061140 0.920790 -0.543589
O17   O     O_3   0.425260 0.949200 0.997610 -0.367319
V3    V     V_3+5 0.702060 0.009430 0.000450 1.416505
O18   O     O_R   0.090530 0.929220 0.078150 -0.544599
C55   C     C_R   0.925899 0.912655 0.104600 0.691215
O19   O     O_R   0.084440 0.906220 0.913360 -0.538843
C56   C     C_R   0.914800 0.881796 0.886827 0.697257
V4    V     V_3+5 0.201450 0.990520 0.999290 1.416765
O20   O     O_3   0.928380 0.050800 0.002390 -0.367092
Cl1   Cl    Cl    0.686768 0.737839 0.514090 -0.696698

loop_
_geom_bond_atom_site_label_1
_geom_bond_atom_site_label_2
_ccdc_geom_bond_type
V3    O20   S    
C29   C30   A    
O13   C56   A    
C6    C9    A    
C22   C23   A    
C4    C6    S    
O2    C1    A    
C7    C8    A    
C12   H1    S    
C1    O6    A    
C43   C51   A    
O19   V4    S    
C48   C49   A    
O11   C54   A    
C26   C27   A    
C13   H2    S    
C36   C37   A    
C9    C10   A    
C17   C18   A    
C43   C53   S    
O5    C3    A    
C19   C20   A    
C53   O16   A    
V4    O20   S    
V2    O10   S    
C40   H20   S    
C39   H19   S    
C30   C31   A    
C15   C16   A    
C24   C56   S    
C46   H26   S    
C37   C42   A    
O8    V2    S    
C16   C17   A    
O13   V3    S    
O14   C54   A    
C16   H9    S    
C11   C12   A    
C51   H23   S    
O1    V2    S    
O9    C4    A    
O7    V1    S    
C2    C44   S    
C40   C41   A    
C33   C34   A    
O12   C53   A    
C29   C34   A    
H7    C27   S    
C35   C36   A    
C43   C50   A    
O19   C56   A    
C44   C46   A    
C9    H6    S    
C33   C35   A    
C5    C12   A    
C41   C42   A    
C51   C52   A    
C18   Cl1   S    
O12   V3    S    
O4    C2    A    
C52   H25   S    
C45   C46   A    
C20   C24   A    
H14   C41   S    
C26   H12   S    
C32   C33   A    
C15   C20   A    
C42   H21   S    
C3    C21   S    
C7    C11   A    
C18   C19   A    
C45   C49   A    
C5    C55   S    
C29   H15   S    
C31   H17   S    
O15   C55   A    
O3    C4    A    
C25   H11   S    
O11   V4    S    
C21   C22   A    
C14   H4    S    
O6    V2    S    
C30   H16   S    
O9    V2    S    
C22   C25   A    
C15   H8    S    
C23   C24   A    
O2    V1    S    
C17   H10   S    
C25   C26   A    
C44   C47   A    
C45   H24   S    
O16   V4    S    
C27   C28   A    
C36   C39   A    
O1    C2    A    
C47   C48   A    
O5    V1    S    
O8    C3    A    
C1    C38   S    
O17   V4    S    
C28   H13   S    
C34   C38   A    
C5    C13   A    
C47   H27   S    
C13   C14   A    
O4    V1    S    
O3    V1    S    
V1    O10   S    
C19   C21   A    
C35   C54   S    
C32   H18   S    
C31   C32   A    
O17   V3    S    
O18   V4    S    
C6    C8    A    
C23   C28   A    
C39   C40   A    
O7    V2    S    
O18   C55   A    
O15   V3    S    
C37   C38   A    
C50   H22   S    
C49   C50   A    
C10   C14   A    
C10   C11   A    
O14   V3    S    
C48   C52   A    
C8    H5    S    
C7    H3    S    
