data_mof_unit_27302.cif
_audit_creation_date              2012-10-26T19:04:43-0400
_audit_creation_method            fapswitch 2.2
_symmetry_space_group_name_H-M    P1
_symmetry_Int_Tables_number       1
_space_group_crystal_system       triclinic
_cell_length_a                    9.592778
_cell_length_b                    10.832716
_cell_length_c                    13.438641
_cell_angle_alpha                 92.508419
_cell_angle_beta                  72.65952
_cell_angle_gamma                 90.782242
_cell_volume                      1331.74038027

loop_
_atom_site_label
_atom_site_type_symbol
_atom_type_description
_atom_site_fract_x
_atom_site_fract_y
_atom_site_fract_z
_atom_type_partial_charge
C1    C     C_R   0.504404 0.736682 0.490295 0.601063
C2    C     C_R   0.374373 0.484117 0.814047 0.004942
C3    C     C_R   0.291075 0.879466 0.411136 0.283431
C4    C     C_R   0.421808 0.492973 0.699635 0.547481
C5    C     C_R   0.153701 0.933538 0.426616 0.281005
C6    C     C_R   0.118324 0.043123 0.486406 -0.135125
C7    C     C_R   0.224736 0.106468 0.519767 -0.160954
C8    C     C_R   0.367585 0.057974 0.497336 -0.019928
C9    C     C_R   0.390092 0.933903 0.460807 -0.006553
C10   C     C_R   0.509223 0.870338 0.477441 0.014883
C11   C     C_R   0.622535 0.937372 0.500095 -0.111682
C12   C     C_R   0.432491 0.472223 0.978943 0.037034
C13   C     C_R   0.616120 0.064765 0.510203 -0.146420
C14   C     C_R   0.489506 0.127008 0.509200 0.003719
C15   C     C_R   0.911367 0.337232 0.360517 -0.098310
C16   C     C_R   0.495855 0.262226 0.505750 0.520350
C17   C     C_R   0.010556 0.257261 0.292552 -0.160769
C18   C     C_R   0.153903 0.256372 0.293080 -0.158247
C19   C     C_R   0.198915 0.335442 0.361575 -0.085223
C20   C     C_R   0.101821 0.419240 0.431928 0.143956
C21   C     C_R   0.952325 0.419668 0.431670 0.122012
C22   C     C_R   0.901720 0.577405 0.564616 0.352546
C23   C     C_R   0.471431 0.448198 0.869494 0.039762
C24   C     C_R   0.049347 0.576911 0.564261 0.055134
C25   C     C_R   0.578208 0.496765 0.300085 0.558901
C26   C     C_R   0.788373 0.398095 0.024810 -0.128518
C27   C     C_R   0.621487 0.478565 0.186406 0.012044
C28   C     C_R   0.231994 0.521917 0.869571 -0.130604
C29   C     C_R   0.187901 0.530583 0.977688 -0.128559
C30   C     C_R   0.286889 0.508478 0.032147 -0.100742
C31   C     C_R   0.540660 0.458580 0.030696 0.029026
C32   C     C_R   0.679902 0.409572 0.975030 0.057789
C33   C     C_R   0.708451 0.370557 0.870854 -0.120099
C34   C     C_R   0.605109 0.387657 0.819244 -0.095167
C35   C     C_R   0.515680 0.494879 0.135797 -0.110498
C36   C     C_R   0.759266 0.432318 0.130155 -0.138072
Cl1   Cl    Cl    0.348837 0.763107 0.311518 -0.547035
Cl2   Cl    Cl    0.023971 0.865897 0.371999 -0.562484
Cl3   Cl    Cl    0.784703 0.683227 0.651758 -0.578644
Cu1   Cu    Cu3+1 0.359340 0.500010 0.500010 0.968363
Cu2   Cu    Cu3+1 0.640660 0.499990 0.499990 1.023366
H1    H     H_    0.842576 0.418900 0.168067 0.125841
H2    H     H_    0.084828 0.639823 0.616679 0.145331
H3    H     H_    0.894886 0.360744 0.982622 0.112327
H4    H     H_    0.413896 0.536273 0.180597 0.177096
H5    H     H_    0.154750 0.547149 0.829327 0.139694
H6    H     H_    0.244657 0.517871 0.115903 0.135195
H7    H     H_    0.077252 0.558451 0.019624 0.142125
H8    H     H_    0.630846 0.349624 0.740284 0.142236
H9    H     H_    0.716082 0.891434 0.511026 0.216148
H10   H     H_    0.010440 0.082839 0.502576 0.142758
H11   H     H_    0.191156 0.190749 0.566128 0.160781
H12   H     H_    0.709482 0.114252 0.521572 0.143110
H13   H     H_    0.804392 0.330384 0.353392 0.180407
H14   H     H_    0.975558 0.195344 0.239150 0.147945
H15   H     H_    0.231000 0.193389 0.240403 0.149432
H16   H     H_    0.310799 0.325738 0.356149 0.183846
H17   H     H_    0.811606 0.327223 0.828733 0.107745
N1    N     N_R   0.852480 0.498790 0.499000 -0.235316
N2    N     N_R   0.148360 0.498710 0.498970 -0.266116
O1    O     O_R   0.381190 0.680360 0.500010 -0.469549
O2    O     O_R   0.618760 0.680340 0.500000 -0.434939
O3    O     O_R   0.323240 0.499990 0.650990 -0.523367
O4    O     O_R   0.560820 0.499960 0.650980 -0.457547
O5    O     O_R   0.381240 0.319660 0.500000 -0.543094
O6    O     O_R   0.618810 0.319640 0.499990 -0.547063
O7    O     O_R   0.439180 0.500040 0.349020 -0.491458
O8    O     O_R   0.676760 0.500010 0.349010 -0.516739

loop_
_geom_bond_atom_site_label_1
_geom_bond_atom_site_label_2
_ccdc_geom_bond_type
C2    C4    S    
C13   H12   S    
C26   C32   A    
C6    C7    A    
Cu1   N2    S    
C6    H10   S    
C20   N2    A    
C2    C28   A    
C9    C10   A    
C17   H14   S    
C36   H1    S    
C19   C20   A    
C25   O7    A    
C33   H17   S    
C18   H15   S    
C24   N2    A    
C23   C34   A    
C12   C30   A    
C32   C33   A    
C2    C23   A    
C17   C18   A    
C26   H3    S    
C7    C8    A    
C11   H9    S    
C5    Cl2   S    
C1    O2    A    
C11   C13   A    
C4    O3    A    
C28   H5    S    
C4    O4    A    
C29   C30   A    
C25   O8    A    
Cu2   O2    S    
C8    C14   A    
C3    C9    A    
C22   Cl3   S    
C22   C24   A    
C26   C36   A    
Cu1   Cu2   S    
C33   C34   A    
C7    H11   S    
C21   N1    A    
Cu2   O8    S    
C31   C35   A    
Cu1   O5    S    
C12   C31   A    
C5    C6    A    
C27   C36   A    
C14   C16   S    
C25   C27   S    
C10   C11   A    
C1    C10   S    
Cu2   O6    S    
C35   H4    S    
C15   H13   S    
C30   H6    S    
C15   C21   A    
C16   O6    A    
C20   C21   A    
Cu2   N1    S    
C18   C19   A    
C22   N1    A    
C15   C17   A    
C24   H2    S    
Cu1   O3    S    
C28   C29   A    
C34   H8    S    
C12   C23   A    
C16   O5    A    
C29   H7    S    
Cu2   O4    S    
C27   C35   A    
C13   C14   A    
C19   H16   S    
Cu1   O1    S    
C31   C32   A    
C3    Cl1   S    
C8    C9    A    
C3    C5    A    
Cu1   O7    S    
C1    O1    A    
