data_mof_unit_25885.cif
_audit_creation_date              2012-12-10T18:09:57-0500
_audit_creation_method            fapswitch 2.2
_symmetry_space_group_name_H-M    P1
_symmetry_Int_Tables_number       1
_space_group_crystal_system       triclinic
_cell_length_a                    10.631368
_cell_length_b                    12.594612
_cell_length_c                    13.145314
_cell_angle_alpha                 82.36981
_cell_angle_beta                  90.275567
_cell_angle_gamma                 102.419828
_cell_volume                      1703.2071155

loop_
_atom_site_label
_atom_site_type_symbol
_atom_type_description
_atom_site_fract_x
_atom_site_fract_y
_atom_site_fract_z
_atom_type_partial_charge
C1    C     C_R   0.480370 0.438888 0.691167 0.875712
C2    C     C_R   0.467158 0.447819 0.973478 0.080293
C3    C     C_R   0.436089 0.468714 0.869586 0.095464
C4    C     C_R   0.742032 0.500782 0.498536 0.836225
C5    C     C_R   0.466601 0.530294 0.036500 0.078048
C6    C     C_R   0.415258 0.623244 0.000642 0.173083
C7    C     C_R   0.367715 0.634311 0.901912 -0.254229
C8    C     C_R   0.378186 0.558246 0.836972 -0.165694
C9    C     C_R   0.518035 0.523628 0.133931 -0.258252
C10   C     C_R   0.451628 0.688536 0.165630 -0.211541
C11   C     C_R   0.465476 0.400057 0.800785 -0.092703
C12   C     C_3   0.121162 0.498520 0.498772 0.140796
C13   C     C_R   0.322287 0.088057 0.346672 -0.307879
C14   C     C_R   0.651578 0.799477 0.630115 0.015483
C15   C     C_R   0.682554 0.904044 0.658649 -0.244534
C16   C     C_R   0.513066 0.561074 0.308851 0.852922
C17   C     C_R   0.625129 0.985638 0.609447 -0.197095
C18   C     C_R   0.536083 0.962674 0.530810 0.014388
C19   C     C_R   0.508207 0.854732 0.504451 0.241572
C20   C     C_R   0.473701 0.041875 0.477594 -0.013982
C21   C     C_R   0.384991 0.011473 0.399741 0.201025
C22   C     C_R   0.359943 0.905087 0.375279 -0.304461
C23   C     C_3   0.097727 0.599670 0.425672 -0.462925
C24   C     C_R   0.421095 0.828183 0.426737 -0.227837
C25   C     C_R   0.495547 0.150795 0.498012 -0.051531
C26   C     C_R   0.348120 0.194217 0.370713 0.009961
C27   C     C_R   0.258122 0.499669 0.498959 0.849347
C28   C     C_3   0.900934 0.392187 0.463207 -0.378188
C29   C     C_3   0.044009 0.393459 0.458940 -0.376104
C30   C     C_3   0.953111 0.598755 0.422714 -0.402347
C31   C     C_3   0.929832 0.509036 0.607566 -0.411527
C32   C     C_3   0.878727 0.500479 0.497906 0.141310
C33   C     C_3   0.073308 0.504445 0.609339 -0.018166
C34   C     C_R   0.410392 0.702839 0.064951 -0.198221
C35   C     C_R   0.502162 0.596752 0.200428 -0.049123
C36   C     C_R   0.497785 0.300036 0.838148 -0.177106
C37   C     C_R   0.509317 0.271455 0.942816 -0.137684
C38   C     C_R   0.497313 0.345304 0.010097 -0.188660
H1    H     H_    0.860330 0.382020 0.385931 0.175842
H2    H     H_    0.508786 0.318872 0.090425 0.134259
H3    H     H_    0.532971 0.193709 0.971599 0.143546
H4    H     H_    0.851728 0.320100 0.517971 0.190636
H5    H     H_    0.338559 0.569629 0.761410 0.183543
H6    H     H_    0.301018 0.254910 0.330385 0.133488
H7    H     H_    0.292824 0.881078 0.315821 0.151309
H8    H     H_    0.254432 0.066080 0.287179 0.146066
H9    H     H_    0.561314 0.181796 0.555037 0.122248
H10   H     H_    0.695540 0.735553 0.668223 0.139317
H11   H     H_    0.652223 0.065236 0.634641 0.137989
H12   H     H_    0.128749 0.580395 0.636806 0.139072
H13   H     H_    0.750648 0.921794 0.718840 0.156346
H14   H     H_    0.398318 0.748334 0.403867 0.209882
H15   H     H_    0.061588 0.317756 0.505366 0.213219
H16   H     H_    0.074489 0.391684 0.378330 0.167142
H17   H     H_    0.918240 0.592246 0.343313 0.166316
H18   H     H_    0.134970 0.598957 0.346791 0.167573
H19   H     H_    0.918167 0.587561 0.632501 0.162999
H20   H     H_    0.872374 0.441473 0.662564 0.185443
H21   H     H_    0.937135 0.677609 0.443921 0.188275
H22   H     H_    0.149614 0.677125 0.452534 0.191143
H23   H     H_    0.438243 0.745715 0.217083 0.149601
H24   H     H_    0.324453 0.702839 0.874168 0.150957
H25   H     H_    0.370151 0.773477 0.038700 0.136951
H26   H     H_    0.567006 0.459225 0.161852 0.147219
H27   H     H_    0.518150 0.245507 0.786252 0.151329
I1    I     I_    0.103462 0.370175 0.720958 -0.457823
N1    N     N_R   0.433240 0.222190 0.444680 -0.100570
N2    N     N_R   0.566070 0.776970 0.554790 -0.131349
O1    O     O_R   0.468120 0.366740 0.627160 -0.600033
O2    O     O_R   0.510770 0.544830 0.662520 -0.624106
O3    O     O_R   0.663880 0.410950 0.482330 -0.630789
O4    O     O_R   0.706530 0.589040 0.517700 -0.623425
O5    O     O_R   0.489230 0.455170 0.337480 -0.617177
O6    O     O_R   0.531880 0.633260 0.372840 -0.633552
O7    O     O_R   0.293470 0.410960 0.482300 -0.608458
O8    O     O_R   0.336120 0.589050 0.517670 -0.652990
Zn1   Zn    Zn3+2 0.471520 0.381090 0.476390 0.942532
Zn2   Zn    Zn3+2 0.528480 0.618910 0.523610 0.920186

loop_
_geom_bond_atom_site_label_1
_geom_bond_atom_site_label_2
_ccdc_geom_bond_type
C24   H14   S    
C38   H2    S    
C20   C25   A    
C12   C29   S    
O2    Zn2   S    
C9    H26   S    
O1    Zn1   S    
N1    Zn1   S    
C8    H5    S    
O3    Zn1   S    
C26   H6    S    
C7    C8    A    
C12   C23   S    
C16   O6    A    
C26   N1    A    
C31   H20   S    
C28   C29   S    
O8    Zn2   S    
C16   C35   S    
C5    C6    A    
C29   H16   S    
C18   C19   A    
O4    Zn2   S    
C25   N1    A    
C31   C33   S    
C10   C35   A    
C15   H13   S    
C25   H9    S    
C21   C22   A    
C27   O7    A    
C33   I1    S    
N2    Zn2   S    
C23   H22   S    
C12   C27   S    
C16   O5    A    
C23   C30   S    
C28   C32   S    
C3    C8    A    
C17   H11   S    
C36   H27   S    
C14   H10   S    
C28   H1    S    
C33   H12   S    
C1    O1    A    
C6    C34   A    
C11   C36   A    
C7    H24   S    
C5    C9    A    
C37   C38   A    
C2    C38   A    
C31   C32   S    
C30   H21   S    
C17   C18   A    
C13   C21   A    
C19   N2    A    
C10   C34   A    
O7    Zn1   S    
C23   H18   S    
C4    C32   S    
C22   C24   A    
C13   C26   A    
C10   H23   S    
C27   O8    A    
C4    O4    A    
C15   C17   A    
C36   C37   A    
C14   N2    A    
C6    C7    A    
C30   H17   S    
C1    O2    A    
C31   H19   S    
C19   C24   A    
C30   C32   S    
C13   H8    S    
C29   H15   S    
C28   H4    S    
C34   H25   S    
C2    C3    A    
C18   C20   A    
C37   H3    S    
C3    C11   A    
C2    C5    A    
C22   H7    S    
C20   C21   A    
O6    Zn2   S    
C9    C35   A    
O5    Zn1   S    
C14   C15   A    
C1    C11   S    
C12   C33   S    
C4    O3    A    
