data_mof_unit_7721.cif
_audit_creation_date              2012-12-10T17:18:19-0500
_audit_creation_method            fapswitch 2.2
_symmetry_space_group_name_H-M    P1
_symmetry_Int_Tables_number       1
_space_group_crystal_system       triclinic
_cell_length_a                    10.202916
_cell_length_b                    10.957554
_cell_length_c                    14.840643
_cell_angle_alpha                 90.869624
_cell_angle_beta                  81.235632
_cell_angle_gamma                 95.541525
_cell_volume                      1632.13171467

loop_
_atom_site_label
_atom_site_type_symbol
_atom_type_description
_atom_site_fract_x
_atom_site_fract_y
_atom_site_fract_z
_atom_type_partial_charge
C1    C     C_R   0.555628 0.731844 0.496768 0.952552
C2    C     C_2   0.077829 0.497641 0.483839 0.450811
C3    C     C_R   0.501026 0.502967 0.672938 0.945188
C4    C     C_R   0.499970 0.499709 0.326933 0.999338
C5    C     C_R   0.413138 0.415369 0.193173 0.351291
C6    C     C_R   0.569561 0.607602 0.807960 0.302418
C7    C     C_R   0.498377 0.502397 0.230759 -0.280356
C8    C     C_R   0.500455 0.508658 0.769436 -0.281589
C9    C     C_R   0.570049 0.600044 0.180315 0.430342
C10   C     C_R   0.418996 0.419104 0.822050 0.482977
C11   C     C_R   0.543993 0.619714 0.091709 -0.126799
C12   C     C_R   0.444133 0.268447 0.501571 0.954182
C13   C     C_R   0.391124 0.434980 0.916312 -0.138686
C14   C     C_R   0.463317 0.528915 0.051393 -0.099133
C15   C     C_R   0.464424 0.530975 0.957055 -0.105783
C16   C     C_R   0.388213 0.431801 0.104105 -0.096649
C17   C     C_R   0.546429 0.623621 0.903281 -0.102557
C18   C     C_R   0.594090 0.727511 0.042411 0.338189
C19   C     C_R   0.293327 0.357181 0.971008 0.323351
C20   C     C_3   0.795001 0.658908 0.176011 0.154357
C21   C     C_3   0.858431 0.565388 0.226885 -0.388668
C22   C     C_3   0.005243 0.560049 0.188387 -0.826019
C23   C     C_R   0.597662 0.729109 0.947803 0.392886
C24   C     C_3   0.457713 0.217821 0.797482 0.077609
C25   C     C_3   0.583920 0.219688 0.726372 -0.454539
C26   C     C_3   0.664995 0.113219 0.739067 -0.692049
C27   C     C_3   0.632863 0.100354 0.340720 0.108190
C28   C     C_3   0.750686 0.184191 0.292868 -0.281485
C29   C     C_3   0.753508 0.185655 0.189833 -0.799445
C30   C     C_3   0.342468 0.925106 0.650170 0.103718
C31   C     C_3   0.374627 0.821564 0.708729 -0.360743
C32   C     C_3   0.328172 0.842297 0.810023 -0.795512
C33   C     C_R   0.290903 0.356202 0.065328 0.376610
C34   C     C_2   0.585882 0.863081 0.492465 -0.362092
C35   C     C_2   0.412176 0.137582 0.503261 -0.391899
C36   C     C_2   0.487816 0.937119 0.514424 0.389883
C37   C     C_2   0.509438 0.062841 0.481283 0.365454
C38   C     C_2   0.938715 0.529922 0.480413 0.429998
Cl1   Cl    Cl    0.367286 0.274477 0.252133 -0.527825
Cl2   Cl    Cl    0.856980 0.298777 0.493593 -0.447954
Cl3   Cl    Cl    0.698940 0.694358 0.735660 -0.478837
Cl4   Cl    Cl    0.638771 0.865495 0.099051 -0.537894
Cl5   Cl    Cl    0.166122 0.267570 0.923745 -0.463491
Cl6   Cl    Cl    0.651093 0.869983 0.890893 -0.518195
Cl7   Cl    Cl    0.154628 0.271473 0.132554 -0.464691
Cl8   Cl    Cl    0.138976 0.393651 0.400192 -0.481664
Cl9   Cl    Cl    0.922332 0.687717 0.474233 -0.508345
Cl10  Cl    Cl    0.090264 0.630924 0.632010 -0.412305
H1    H     H_    0.311421 0.103057 0.532038 0.190666
H2    H     H_    0.397236 0.129125 0.793419 0.189225
H3    H     H_    0.485092 0.221723 0.867512 0.155735
H4    H     H_    0.555762 0.214344 0.657177 0.247776
H5    H     H_    0.647981 0.306317 0.732338 0.259495
H6    H     H_    0.698260 0.119321 0.806967 0.298091
H7    H     H_    0.754317 0.117222 0.685704 0.300035
H8    H     H_    0.605100 0.024333 0.732888 0.264429
H9    H     H_    0.539719 0.131358 0.322190 0.189098
H10   H     H_    0.642087 0.004605 0.316234 0.177000
H11   H     H_    0.743243 0.279094 0.319119 0.254573
H12   H     H_    0.686111 0.898453 0.462942 0.204311
H13   H     H_    0.845376 0.152781 0.308103 0.287210
H14   H     H_    0.767625 0.092955 0.161111 0.320431
H15   H     H_    0.837839 0.250373 0.158176 0.290138
H16   H     H_    0.659439 0.216128 0.172827 0.271205
H17   H     H_    0.235838 0.940558 0.669679 0.220873
H18   H     H_    0.401081 0.012004 0.664774 0.092628
H19   H     H_    0.324583 0.733611 0.688487 0.292760
H20   H     H_    0.483551 0.814911 0.696977 0.234859
H21   H     H_    0.385860 0.923453 0.834873 0.272878
H22   H     H_    0.343630 0.760965 0.849317 0.267220
H23   H     H_    0.855124 0.748842 0.177465 0.213839
H24   H     H_    0.220383 0.855685 0.822581 0.287511
H25   H     H_    0.801305 0.631925 0.102840 0.129783
H26   H     H_    0.850238 0.591210 0.299935 0.276086
H27   H     H_    0.805007 0.473134 0.220903 0.228570
H28   H     H_    0.016291 0.530769 0.115843 0.277313
H29   H     H_    0.048164 0.492946 0.227970 0.316231
H30   H     H_    0.061560 0.651166 0.193687 0.273139
N1    N     N_2   0.842700 0.448880 0.462930 -0.015510
N2    N     N_2   0.157300 0.551120 0.537070 0.025871
O1    O     O_R   0.431060 0.692470 0.507460 -0.560555
O2    O     O_3   0.377632 0.311295 0.780061 -0.588295
O3    O     O_3   0.634467 0.105643 0.435805 -0.590719
O4    O     O_3   0.361217 0.892286 0.556731 -0.587589
O5    O     O_R   0.568940 0.307530 0.492540 -0.548396
O6    O     O_R   0.651120 0.659650 0.483670 -0.560209
O7    O     O_R   0.348880 0.340350 0.516330 -0.561285
O8    O     O_R   0.389960 0.516440 0.644050 -0.597961
O9    O     O_R   0.610040 0.483560 0.355950 -0.652753
O10   O     O_R   0.610030 0.483620 0.620260 -0.575883
O11   O     O_R   0.389970 0.516380 0.379740 -0.570292
O12   O     O_3   0.663723 0.674821 0.219829 -0.607104
Zn1   Zn    Zn3+2 0.353060 0.521920 0.515880 1.125783
Zn2   Zn    Zn3+2 0.646940 0.478080 0.484120 1.077652

loop_
_geom_bond_atom_site_label_1
_geom_bond_atom_site_label_2
_ccdc_geom_bond_type
C29   H15   S    
C11   C18   A    
C33   Cl7   S    
C22   H28   S    
C26   H7    S    
C32   H24   S    
C2    Cl8   S    
C31   H19   S    
C20   O12   S    
C17   C23   A    
C12   O5    A    
C3    O10   A    
C28   C29   S    
C35   C37   D    
C25   H5    S    
C18   Cl4   S    
C30   C31   S    
C11   C14   A    
C38   N1    D    
C1    O1    A    
C15   C17   A    
O9    Zn2   S    
C24   O2    S    
C5    C16   A    
O6    Zn2   S    
O8    Zn1   S    
C6    Cl3   S    
C35   H1    S    
C10   C13   A    
C20   H23   S    
C4    O11   A    
C28   H13   S    
C24   H3    S    
C29   H16   S    
C21   C22   S    
C34   H12   S    
C4    C7    S    
C26   H6    S    
C9    O12   S    
C19   Cl5   S    
C1    C34   S    
O10   Zn2   S    
C24   H2    S    
C31   H20   S    
C13   C19   A    
C18   C23   A    
C24   C25   S    
C22   H30   S    
N1    Zn2   S    
C3    C8    S    
C19   C33   A    
C5    C7    A    
C32   H22   S    
C25   C26   S    
C21   H26   S    
C10   O2    S    
C23   Cl6   S    
C16   C33   A    
O11   Zn1   S    
O1    Zn1   S    
O5    Zn2   S    
C2    C38   S    
C31   C32   S    
Cl2   N1    S    
C12   C35   S    
C9    C11   A    
C38   Cl9   S    
C30   H18   S    
C13   C15   A    
C27   H9    S    
C14   C16   A    
C4    O9    A    
C28   H11   S    
C1    O6    A    
C7    C9    A    
C6    C17   A    
C29   H14   S    
C36   C37   S    
C12   O7    A    
C3    O8    A    
C22   H29   S    
C27   H10   S    
C26   H8    S    
C6    C8    A    
C32   H21   S    
C21   H27   S    
Cl10  N2    S    
C5    Cl1   S    
C25   H4    S    
C36   O4    S    
O7    Zn1   S    
C27   O3    S    
C20   H25   S    
C34   C36   D    
C30   O4    S    
C30   H17   S    
C2    N2    D    
C20   C21   S    
C8    C10   A    
C27   C28   S    
C14   C15   A    
C37   O3    S    
N2    Zn1   S    
