data_mof_unit_11048.cif
_audit_creation_date              2012-12-10T19:01:54-0500
_audit_creation_method            fapswitch 2.2
_symmetry_space_group_name_H-M    P1
_symmetry_Int_Tables_number       1
_space_group_crystal_system       triclinic
_cell_length_a                    11.680152
_cell_length_b                    10.839249
_cell_length_c                    9.609206
_cell_angle_alpha                 90.326532
_cell_angle_beta                  91.336966
_cell_angle_gamma                 90.666341
_cell_volume                      1216.12951392

loop_
_atom_site_label
_atom_site_type_symbol
_atom_type_description
_atom_site_fract_x
_atom_site_fract_y
_atom_site_fract_z
_atom_type_partial_charge
C1    C     C_R   0.498783 0.262519 0.499631 0.791088
C2    C     C_R   0.489441 0.129191 0.498331 -0.091606
C3    C     C_R   0.490009 0.063211 0.372141 -0.237986
C4    C     C_R   0.487899 0.934867 0.372449 -0.181270
C5    C     C_R   0.488947 0.870722 0.499183 -0.106135
C6    C     C_R   0.475797 0.937194 0.622581 0.110305
C7    C     C_3   0.543960 0.933581 0.755878 -0.451858
C8    C     C_3   0.542147 0.073465 0.756023 -0.451398
C9    C     C_R   0.597674 0.525229 0.076470 0.111151
C10   C     C_R   0.406213 0.460860 0.068280 0.067032
C11   C     C_R   0.406855 0.462615 0.920864 -0.097498
C12   C     C_R   0.284165 0.500061 0.498795 0.818609
C13   C     C_R   0.598893 0.522317 0.929746 0.118223
C14   C     C_3   0.674931 0.634795 0.926579 -0.293968
C15   C     C_3   0.669630 0.639317 0.084915 0.400257
C16   C     C_R   0.498547 0.737515 0.500174 0.801116
C17   C     C_R   0.715838 0.500130 0.501171 0.818881
C18   C     C_1   0.162423 0.500294 0.497008 -0.174707
C19   C     C_1   0.059865 0.500247 0.497874 -0.008280
C20   C     C_1   0.940085 0.500071 0.500423 0.002033
C21   C     C_1   0.837585 0.500078 0.502487 -0.175634
C22   C     C_R   0.475140 0.064431 0.622032 0.120859
Cu1   Cu    Cu3+1 0.499990 0.499980 0.640670 0.943080
Cu2   Cu    Cu3+1 0.500010 0.500020 0.359330 0.981393
H1    H     H_    0.498655 0.109704 0.273746 0.162129
H2    H     H_    0.631917 0.713308 0.874575 0.190063
H3    H     H_    0.752227 0.625763 0.142504 0.079470
H4    H     H_    0.491582 0.886767 0.273815 0.232743
H5    H     H_    0.494740 0.892183 0.841922 0.216661
H6    H     H_    0.631125 0.896112 0.741767 0.187622
H7    H     H_    0.490883 0.112831 0.841260 0.196359
H8    H     H_    0.628211 0.116520 0.743788 0.197783
H9    H     H_    0.331447 0.432463 0.862045 0.143051
N1    N     N_R   0.500710 0.500930 0.147930 -0.170928
N2    N     N_R   0.500710 0.500890 0.852020 -0.175190
O1    O     O_R   0.500000 0.319640 0.618810 -0.578947
O2    O     O_R   0.500010 0.319680 0.381230 -0.594904
O3    O     O_R   0.337190 0.499990 0.618790 -0.596657
O4    O     O_R   0.337200 0.500030 0.381210 -0.561485
O5    O     O_R   0.499990 0.680320 0.618770 -0.584903
O6    O     O_R   0.500000 0.680360 0.381190 -0.524458
O7    O     O_R   0.662800 0.499970 0.618790 -0.563766
O8    O     O_R   0.662810 0.500010 0.381210 -0.586007
F1    F     F_    0.608911 0.739900 0.130513 -0.668814
C23   C     C_R   0.300411 0.411616 0.127750 0.149526
C24   C     C_R   0.200094 0.482019 0.123191 -0.151712
C25   C     C_R   0.096590 0.430926 0.166889 -0.137483
C26   C     C_R   0.092227 0.309059 0.213450 -0.122840
C27   C     C_R   0.191218 0.237806 0.215306 -0.161282
C28   C     C_R   0.294615 0.288420 0.170704 -0.117218
H10   H     H_    0.202201 0.576015 0.085583 0.126796
H11   H     H_    0.019749 0.485820 0.164815 0.142277
H12   H     H_    0.012055 0.269759 0.247404 0.130714
H13   H     H_    0.187500 0.142838 0.249264 0.134833
H14   H     H_    0.369315 0.231128 0.165927 0.115947
C29   C     C_R   0.796216 0.613648 0.879363 0.109396
C30   C     C_R   0.861199 0.715515 0.835404 -0.132405
C31   C     C_R   0.977184 0.702739 0.806197 -0.134430
C32   C     C_R   0.029477 0.588188 0.820480 -0.110678
C33   C     C_R   0.965304 0.485543 0.860858 -0.141356
C34   C     C_R   0.849567 0.497962 0.891414 -0.139465
H15   H     H_    0.822783 0.805692 0.827178 0.117742
H16   H     H_    0.026869 0.782034 0.773958 0.127370
H17   H     H_    0.119578 0.578723 0.799312 0.132838
H18   H     H_    0.005816 0.396623 0.870789 0.137478
H19   H     H_    0.802816 0.417828 0.927017 0.110443

loop_
_geom_bond_atom_site_label_1
_geom_bond_atom_site_label_2
_ccdc_geom_bond_type
C2    C22   A    
C14   C29   S    
Cu1   Cu2   S    
C17   O8    A    
C25   H11   S    
C7    H5    S    
Cu1   O1    S    
Cu1   O3    S    
C8    C22   S    
C19   C20   S    
C1    O2    A    
C28   H14   S    
Cu2   O4    S    
C12   O4    A    
C11   N2    A    
Cu2   O2    S    
C9    C15   S    
C32   C33   A    
C10   N1    A    
C7    H6    S    
C13   C14   S    
C14   H2    S    
Cu2   O6    S    
C30   C31   A    
C6    C7    S    
Cu1   O7    S    
C23   C28   A    
C10   C23   S    
C5    C6    A    
C34   H19   S    
C26   C27   A    
C4    H4    S    
C16   O5    A    
C33   H18   S    
C13   N2    A    
C2    C3    A    
C12   O3    A    
C26   H12   S    
Cu1   N2    S    
C17   C21   S    
C23   C24   A    
C4    C5    A    
C7    C8    S    
C10   C11   A    
C27   C28   A    
Cu1   O5    S    
C6    C22   A    
C25   C26   A    
C32   H17   S    
C11   H9    S    
C3    H1    S    
C20   C21   T    
C1    C2    S    
C24   C25   A    
C17   O7    A    
C12   C18   S    
C31   H16   S    
C29   C30   A    
Cu2   O8    S    
C15   F1    S    
C14   C15   S    
C18   C19   T    
C5    C16   S    
C9    C13   A    
C30   H15   S    
C31   C32   A    
C29   C34   A    
C8    H7    S    
C15   H3    S    
C24   H10   S    
Cu2   N1    S    
C3    C4    A    
C27   H13   S    
C1    O1    A    
C9    N1    A    
C33   C34   A    
C16   O6    A    
C8    H8    S    
