data_mof_unit_31243.cif
_audit_creation_date              2012-12-10T19:09:32-0500
_audit_creation_method            fapswitch 2.2
_symmetry_space_group_name_H-M    P1
_symmetry_Int_Tables_number       1
_space_group_crystal_system       triclinic
_cell_length_a                    9.640003
_cell_length_b                    10.887304
_cell_length_c                    16.993649
_cell_angle_alpha                 87.201784
_cell_angle_beta                  94.389497
_cell_angle_gamma                 91.081473
_cell_volume                      1775.98830995

loop_
_atom_site_label
_atom_site_type_symbol
_atom_type_description
_atom_site_fract_x
_atom_site_fract_y
_atom_site_fract_z
_atom_type_partial_charge
C1    C     C_R   0.499187 0.262577 0.503222 0.837576
C2    C     C_R   0.621998 0.429634 0.782304 -0.261826
C3    C     C_R   0.543841 0.591636 0.139281 0.379658
C4    C     C_R   0.553049 0.587679 0.221496 -0.252927
C5    C     C_R   0.454200 0.508098 0.098177 0.287042
C6    C     C_R   0.471890 0.503690 0.263417 -0.086453
C7    C     C_R   0.380547 0.422983 0.223084 -0.175043
C8    C     C_R   0.370418 0.425206 0.140333 0.125490
C9    C     C_R   0.621212 0.066615 0.505666 -0.047510
C10   C     C_R   0.499119 0.129024 0.513982 -0.106381
C11   C     C_R   0.382543 0.059846 0.538342 0.088674
C12   C     C_R   0.517787 0.499958 0.650743 0.879502
C13   C     C_R   0.385875 0.929420 0.541004 0.115435
C14   C     C_R   0.502424 0.869622 0.514804 -0.110429
C15   C     C_R   0.621474 0.940958 0.503811 0.021510
C16   C     C_3   0.732999 0.942368 0.447396 0.482482
C17   C     C_3   0.731298 0.082943 0.448059 -0.043117
C18   C     C_R   0.063362 0.521399 0.431593 0.084451
C19   C     C_R   0.080840 0.445997 0.561555 0.420129
C20   C     C_R   0.932407 0.444972 0.561020 0.394110
C21   C     C_R   0.918629 0.521629 0.432026 0.056342
C22   C     C_3   0.900787 0.618217 0.367749 -0.457379
C23   C     C_R   0.501104 0.737179 0.503566 0.838816
C24   C     C_3   0.059486 0.619191 0.365992 0.674505
C25   C     C_R   0.482251 0.501501 0.349404 0.817482
C26   C     C_R   0.528266 0.505632 0.736961 -0.058056
C27   C     C_R   0.445468 0.587146 0.774002 0.072998
C28   C     C_R   0.455677 0.590004 0.857126 0.081810
C29   C     C_R   0.546880 0.508951 0.902446 0.375067
C30   C     C_R   0.632917 0.431568 0.864757 0.091980
Cu1   Cu    Cu3+1 0.640670 0.499980 0.500000 1.012875
Cu2   Cu    Cu3+1 0.359330 0.500020 0.500000 1.079484
H1    H     H_    0.620736 0.652613 0.252743 0.177007
H2    H     H_    0.692980 0.129531 0.390886 0.151512
H3    H     H_    0.844412 0.582089 0.314065 0.207080
H4    H     H_    0.858016 0.702952 0.387518 0.238159
H5    H     H_    0.684339 0.366405 0.753612 0.221999
H6    H     H_    0.318051 0.358067 0.256133 0.173524
N1    N     N_2   0.557530 0.505771 0.986134 -0.163301
N2    N     N_2   0.442470 0.508244 0.014733 -0.162303
N3    N     N_R   0.147870 0.500930 0.499500 -0.232793
N4    N     N_R   0.851960 0.500890 0.499500 -0.208636
O1    O     O_R   0.618810 0.319640 0.500000 -0.573792
O2    O     O_R   0.381230 0.319680 0.499990 -0.535544
O3    O     O_R   0.631790 0.498830 0.613930 -0.540924
O4    O     O_R   0.394210 0.498870 0.613920 -0.509272
O5    O     O_R   0.618770 0.680320 0.500010 -0.573844
O6    O     O_R   0.381190 0.680360 0.500000 -0.501937
O7    O     O_R   0.605790 0.501130 0.386080 -0.601329
O8    O     O_R   0.368210 0.501170 0.386070 -0.540067
N5    N     N_3   0.271860 0.858576 0.570003 -0.506629
H7    H     H_    0.260765 0.880742 0.628277 0.211413
H8    H     H_    0.180858 0.882704 0.536092 0.305214
Cl1   Cl    Cl    0.886628 0.870486 0.492597 -0.612995
N6    N     N_3   0.685246 0.898909 0.369647 -0.606556
H9    H     H_    0.656512 0.806237 0.374834 0.219042
H10   H     H_    0.768855 0.905973 0.333890 0.262919
N7    N     N_3   0.861679 0.136931 0.481930 -0.508579
H11   H     H_    0.858353 0.232005 0.470704 0.244778
H12   H     H_    0.871671 0.120812 0.543307 0.294477
Cl2   Cl    Cl    0.171541 0.358277 0.638189 -0.536453
Cl3   Cl    Cl    0.855330 0.349738 0.632748 -0.594758
Cl4   Cl    Cl    0.110402 0.565967 0.275159 -0.567845
Cl5   Cl    Cl    0.639850 0.707185 0.090221 -0.526699
Cl6   Cl    Cl    0.140297 0.762228 0.389967 -0.520834
N8    N     N_3   0.728004 0.352095 0.911262 -0.532609
H13   H     H_    0.779441 0.296157 0.874901 0.247130
H14   H     H_    0.804383 0.407882 0.939135 0.251951
N9    N     N_3   0.377631 0.676931 0.895937 -0.512720
H15   H     H_    0.271694 0.662433 0.880732 0.236264
H16   H     H_    0.405663 0.765798 0.876392 0.236089
N10   N     N_3   0.276388 0.343033 0.098333 -0.519725
H17   H     H_    0.217324 0.291711 0.137694 0.241471
H18   H     H_    0.336489 0.280333 0.071620 0.235674
N11   N     N_3   0.354665 0.668984 0.726660 -0.554807
H19   H     H_    0.252723 0.652888 0.741944 0.251589
H20   H     H_    0.383667 0.759477 0.738738 0.210494
N12   N     N_3   0.260769 0.121090 0.558583 -0.504410
H21   H     H_    0.176396 0.095491 0.520219 0.260561
H22   H     H_    0.240331 0.093620 0.616380 0.252716

loop_
_geom_bond_atom_site_label_1
_geom_bond_atom_site_label_2
_ccdc_geom_bond_type
N8    H14   S    
N6    H9    S    
Cu1   N4    S    
C18   C21   A    
C19   C20   A    
C7    C8    A    
C3    Cl5   S    
C22   H3    S    
C26   C27   A    
Cu1   O1    S    
C18   C24   S    
C28   C29   A    
N12   H22   S    
C6    C25   S    
N7    H12   S    
C15   C16   S    
N9    H16   S    
C25   O8    A    
C13   N5    S    
C1    O1    A    
C28   N9    S    
C16   C17   S    
Cu2   N3    S    
C9    C10   A    
C17   N7    S    
N8    H13   S    
Cu1   O5    S    
C13   C14   A    
Cu2   O6    S    
Cu1   O7    S    
C27   N11   S    
C25   O7    A    
C8    N10   S    
C23   O5    A    
N5    H7    S    
C12   O4    A    
C18   N3    A    
N1    N2    D    
N12   H21   S    
C12   O3    A    
N7    H11   S    
C12   C26   S    
N5    H8    S    
C14   C23   S    
N11   H19   S    
C29   C30   A    
C11   N12   S    
C1    O2    A    
Cu1   Cu2   S    
C29   N1    S    
Cu2   O2    S    
C2    C26   A    
N11   H20   S    
Cu2   O8    S    
C30   N8    S    
C24   Cl6   S    
N10   H18   S    
C24   Cl4   S    
N6    H10   S    
C22   C24   S    
C4    C6    A    
C17   H2    S    
C3    C4    A    
C9    C17   S    
C4    H1    S    
C23   O6    A    
Cu2   O4    S    
C1    C10   S    
N10   H17   S    
C3    C5    A    
C5    C8    A    
C20   N4    A    
C6    C7    A    
C22   H4    S    
C2    C30   A    
C9    C15   A    
C16   N6    S    
C11   C13   A    
C2    H5    S    
C19   Cl2   S    
C7    H6    S    
C20   Cl3   S    
N9    H15   S    
C16   Cl1   S    
C10   C11   A    
C21   N4    A    
Cu1   O3    S    
C5    N2    S    
C27   C28   A    
C14   C15   A    
C21   C22   S    
C19   N3    A    
