data_mof_unit_62697.cif
_audit_creation_date              2013-03-05T16:34:58-0500
_audit_creation_method            fapswitch 2.2
_symmetry_space_group_name_H-M    P1
_symmetry_Int_Tables_number       1
_space_group_crystal_system       triclinic
_cell_length_a                    14.965714
_cell_length_b                    14.321153
_cell_length_c                    17.544647
_cell_angle_alpha                 89.972103
_cell_angle_beta                  91.528258
_cell_angle_gamma                 89.985322
_cell_volume                      3758.94078536

loop_
_atom_site_label
_atom_site_type_symbol
_atom_site_description
_atom_site_fract_x
_atom_site_fract_y
_atom_site_fract_z
_atom_type_partial_charge
O1    O     O_R   0.369060 0.579480 0.500010 -0.580187
O2    O     O_R   0.630940 0.420520 0.499990 -0.560382
O3    O     O_R   0.630940 0.579480 0.499990 -0.579826
O4    O     O_R   0.369060 0.420520 0.500010 -0.560327
C1    C     C_R   0.328202 0.499880 0.500045 1.029197
C2    C     C_R   0.671776 0.499856 0.500008 1.030690
O5    O     O_R   0.500000 0.579510 0.389120 -0.557989
O6    O     O_R   0.500000 0.420490 0.610880 -0.571736
O7    O     O_R   0.500000 0.579510 0.610880 -0.558702
O8    O     O_R   0.500000 0.420490 0.389120 -0.571390
C3    C     C_R   0.500561 0.500088 0.354026 1.064911
C4    C     C_R   0.499751 0.500056 0.645973 1.065371
Zn1   Zn    Zn3+2 0.500000 0.606140 0.500000 1.132775
Zn2   Zn    Zn3+2 0.500000 0.393860 0.500000 1.139656
C5    C     C_R   0.441198 0.560602 0.845978 0.327692
C6    C     C_R   0.443027 0.447035 0.149840 0.316894
C7    C     C_R   0.565781 0.560326 0.155512 0.328212
C8    C     C_R   0.565314 0.448805 0.848889 0.317963
C9    C     C_R   0.439974 0.559245 0.765746 0.301887
C10   C     C_R   0.440777 0.446286 0.229982 0.290299
C11   C     C_R   0.563910 0.559546 0.235672 0.302258
C12   C     C_R   0.564458 0.447520 0.768663 0.290852
C13   C     C_R   0.500036 0.500626 0.728331 -0.187869
C14   C     C_R   0.502880 0.500636 0.271731 -0.188197
C15   C     C_R   0.505350 0.507261 0.885811 -0.094474
C16   C     C_R   0.503684 0.506062 0.114293 -0.094812
C17   C     C_1   0.505663 0.507739 0.966296 0.269019
C18   C     C_1   0.505105 0.507342 0.033863 0.269269
C19   C     C_R   0.091043 0.549832 0.445980 0.389765
C20   C     C_R   0.903858 0.441847 0.446211 0.403426
C21   C     C_R   0.908690 0.548695 0.555301 0.390087
C22   C     C_R   0.096251 0.441122 0.553906 0.403486
C23   C     C_R   0.183753 0.550137 0.444969 0.299232
C24   C     C_R   0.811076 0.445440 0.444688 0.303317
C25   C     C_R   0.815968 0.549018 0.556051 0.299013
C26   C     C_R   0.189034 0.444687 0.555240 0.303711
C27   C     C_R   0.232310 0.498922 0.500444 -0.343763
C28   C     C_R   0.767637 0.498829 0.499875 -0.342624
C29   C     C_R   0.048109 0.494727 0.499990 -0.141245
C30   C     C_R   0.951820 0.494572 0.500782 -0.141191
C31   C     C_R   0.424989 0.105028 0.473282 0.297235
C32   C     C_R   0.515901 0.896168 0.567370 0.298036
C33   C     C_R   0.574928 0.104904 0.526703 0.297146
C34   C     C_R   0.484007 0.896269 0.432652 0.297783
C35   C     C_R   0.429696 0.203499 0.467584 0.384510
C36   C     C_R   0.524778 0.797728 0.564456 0.378159
C37   C     C_R   0.570304 0.203374 0.532367 0.384180
C38   C     C_R   0.475237 0.797819 0.435535 0.378567
N1    N     N_R   0.500000 0.252470 0.500000 -0.218861
N2    N     N_R   0.500000 0.747530 0.500000 -0.216771
C39   C     C_R   0.499934 0.053629 0.500017 -0.091980
C40   C     C_R   0.499918 0.947564 0.500018 -0.084692
O9    O     O_3   0.379678 0.610450 0.887078 -0.691454
H1    H     H_    0.323730 0.616784 0.856109 0.379869
O10   O     O_3   0.388736 0.390212 0.104841 -0.695766
H2    H     H_    0.373878 0.333422 0.134121 0.380340
O11   O     O_3   0.628261 0.610676 0.115870 -0.690774
H3    H     H_    0.683025 0.617794 0.148257 0.380136
O12   O     O_3   0.621849 0.392872 0.892686 -0.694455
H4    H     H_    0.636428 0.336191 0.863185 0.380432
O13   O     O_3   0.381756 0.613888 0.722492 -0.699037
H5    H     H_    0.369476 0.672017 0.750922 0.381093
O14   O     O_3   0.376644 0.397583 0.268969 -0.670286
H6    H     H_    0.322106 0.391837 0.236101 0.385585
O15   O     O_3   0.620068 0.614992 0.280132 -0.699093
H7    H     H_    0.632814 0.673089 0.251791 0.380788
O16   O     O_3   0.627730 0.399535 0.728146 -0.670579
H8    H     H_    0.683542 0.394923 0.759521 0.386100
Cl1   Cl    Cl    0.028543 0.618545 0.379672 -0.366471
Cl2   Cl    Cl    0.960197 0.371811 0.379633 -0.349140
Cl3   Cl    Cl    0.970942 0.616232 0.622508 -0.366197
Cl4   Cl    Cl    0.040134 0.369942 0.619860 -0.348882
Cl5   Cl    Cl    0.238008 0.610411 0.371393 -0.369016
Cl6   Cl    Cl    0.750032 0.385671 0.371843 -0.419598
Cl7   Cl    Cl    0.761354 0.608009 0.630083 -0.371967
Cl8   Cl    Cl    0.250247 0.383792 0.627418 -0.417267
Cl9   Cl    Cl    0.323344 0.047576 0.449479 -0.334951
Cl10  Cl    Cl    0.522410 0.953929 0.656600 -0.365514
Cl11  Cl    Cl    0.676554 0.047291 0.550449 -0.335467
Cl12  Cl    Cl    0.477527 0.954171 0.343432 -0.365641
Cl13  Cl    Cl    0.345425 0.261122 0.414041 -0.354690
Cl14  Cl    Cl    0.575822 0.744446 0.644575 -0.360641
Cl15  Cl    Cl    0.654792 0.260836 0.585674 -0.355233
Cl16  Cl    Cl    0.424519 0.744620 0.355292 -0.359801

loop_
_geom_bond_atom_site_label_1
_geom_bond_atom_site_label_2
_geom_bond_distance
_ccdc_geom_bond_type
O10   H2    0.990237 S    
C1    C27   1.435377 S    
C9    C13   1.405433 A    
O3    C2    1.293602 A    
C22   Cl4   1.770472 S    
O9    H1    0.990037 S    
C5    C9    1.407408 A    
C4    C13   1.444853 S    
C25   Cl7   1.768089 S    
O1    C1    1.293739 A    
C7    C16   1.398442 A    
C22   C26   1.389088 A    
C26   C27   1.407021 A    
C31   Cl9   1.769881 S    
C5    C15   1.398932 A    
Zn2   N1    2.024868 S    
C33   Cl11  1.769936 S    
C19   C23   1.388064 A    
C3    C14   1.445202 S    
C21   C30   1.402046 A    
C32   C36   1.417056 A    
C22   C29   1.402101 A    
O7    Zn1   1.982196 S    
C26   Cl8   1.772000 S    
C36   Cl14  1.755863 S    
C10   C14   1.403837 A    
C2    C28   1.434759 S    
C37   Cl15  1.757516 S    
O3    Zn1   1.996366 S    
O6    C4    1.295495 A    
C34   C40   1.406831 A    
C21   Cl3   1.771082 S    
O12   H4    0.990320 S    
C24   C28   1.406685 A    
O2    C2    1.290258 A    
C8    C15   1.398910 A    
C20   Cl2   1.770469 S    
C19   Cl1   1.771150 S    
C6    C16   1.399167 A    
C20   C24   1.389025 A    
O16   H8    0.990170 S    
C34   Cl12  1.771396 S    
C25   C28   1.405033 A    
C37   N1    1.375214 A    
O8    Zn2   1.982198 S    
C29   C30   1.441472 S    
C23   C27   1.405221 A    
C38   Cl16  1.755835 S    
O5    C3    1.293774 A    
C35   N1    1.375199 A    
C6    C10   1.407393 A    
C19   C29   1.401986 A    
C20   C30   1.402263 A    
C24   Cl6   1.771974 S    
C23   Cl5   1.768031 S    
C32   Cl10  1.771362 S    
C21   C25   1.388072 A    
O1    Zn1   1.996560 S    
C5    O9    1.383058 S    
O6    Zn2   1.982561 S    
C11   O15   1.382499 S    
C8    C12   1.407376 A    
C35   Cl13  1.757706 S    
O4    C1    1.290447 A    
C15   C17   1.411982 S    
C36   N2    1.382659 A    
C16   C18   1.411957 S    
C10   O14   1.382191 S    
C6    O10   1.382911 S    
C39   C40   1.518979 S    
C33   C39   1.410965 A    
O11   H3    0.990074 S    
C9    O13   1.382458 S    
C38   N2    1.382717 A    
Zn1   N2    2.024868 S    
O4    Zn2   1.996368 S    
O13   H5    0.990350 S    
O2    Zn2   1.996558 S    
O7    C4    1.293564 A    
C7    C11   1.407428 A    
C12   O16   1.382122 S    
O8    C3    1.295459 A    
O14   H6    0.990176 S    
C8    O12   1.382865 S    
O5    Zn1   1.982563 S    
O15   H7    0.990256 S    
C11   C14   1.406032 A    
C32   C40   1.406881 A    
C17   C18   1.185707 T    
C31   C35   1.415606 A    
C12   C13   1.404059 A    
C33   C37   1.415562 A    
C31   C39   1.411032 A    
C34   C38   1.417058 A    
C7    O11   1.382951 S    
