data_mof_unit_61417.cif
_audit_creation_date              2012-12-10T19:45:57-0500
_audit_creation_method            fapswitch 2.2
_symmetry_space_group_name_H-M    P1
_symmetry_Int_Tables_number       1
_space_group_crystal_system       triclinic
_cell_length_a                    18.369735
_cell_length_b                    18.400935
_cell_length_c                    27.668821
_cell_angle_alpha                 89.886056
_cell_angle_beta                  90.239312
_cell_angle_gamma                 89.864164
_cell_volume                      9352.49662348

loop_
_atom_site_label
_atom_site_type_symbol
_atom_type_description
_atom_site_fract_x
_atom_site_fract_y
_atom_site_fract_z
_atom_type_partial_charge
C1    C     C_1   0.000015 0.500081 0.775505 -0.009115
C2    C     C_3   0.189292 0.131217 0.018412 0.144864
C3    C     C_R   0.283056 0.772000 0.549126 -0.005498
C4    C     C_1   0.500033 0.999945 0.224506 -0.017102
C5    C     C_1   0.000132 0.499972 0.224511 -0.017994
C6    C     C_1   0.000032 0.499945 0.724506 -0.017094
C7    C     C_1   0.500132 0.999972 0.724511 -0.017986
C8    C     C_3   0.409340 0.703859 0.017617 -0.365219
C9    C     C_3   0.294582 0.409000 0.995447 -0.369255
C10   C     C_3   0.707528 0.179880 0.096496 -0.362718
C11   C     C_3   0.706450 0.592570 0.979965 -0.335609
C12   C     C_3   0.408825 0.294603 0.983980 -0.334214
C13   C     C_3   0.766045 0.291787 0.912842 0.146873
C14   C     C_3   0.288546 0.605482 0.044815 -0.353858
C15   C     C_3   0.591689 0.706731 0.989105 -0.375148
C16   C     C_3   0.812075 0.304122 0.095882 -0.357985
C17   C     C_3   0.909339 0.203860 0.517623 -0.365214
C18   C     C_3   0.794582 0.909001 0.495451 -0.369250
C19   C     C_3   0.207602 0.679807 0.596483 -0.362729
C20   C     C_3   0.206449 0.092569 0.479968 -0.335552
C21   C     C_3   0.908827 0.794605 0.483985 -0.334160
C22   C     C_3   0.788542 0.105489 0.544825 -0.353850
C23   C     C_3   0.091689 0.206730 0.489110 -0.375144
C24   C     C_3   0.808676 0.867878 0.024441 0.145865
C25   C     C_3   0.312178 0.804027 0.595874 -0.358013
C26   C     C_3   0.130835 0.190521 0.019019 0.147149
C27   C     C_3   0.195332 0.863729 0.960854 0.182307
C28   C     C_3   0.867986 0.809399 0.024126 0.144137
C29   C     C_3   0.707156 0.232714 0.913047 0.146970
C30   C     C_3   0.636238 0.305120 0.461866 0.179951
C31   C     C_3   0.689290 0.631215 0.518401 0.144864
C32   C     C_3   0.265921 0.791910 0.412857 0.146866
C33   C     C_1   0.499843 0.999989 0.775500 -0.009497
C34   C     C_3   0.308679 0.367881 0.524432 0.145863
C35   C     C_3   0.630834 0.690518 0.519010 0.147147
C36   C     C_3   0.695335 0.363727 0.460848 0.182306
C37   C     C_3   0.367989 0.309402 0.524117 0.144136
C38   C     C_3   0.207032 0.732837 0.413062 0.146961
C39   C     C_R   0.499877 0.000008 0.870870 0.510075
C40   C     C_R   0.999993 0.500059 0.870891 0.509548
C41   C     C_R   0.999877 0.500008 0.370870 0.510059
C42   C     C_R   0.499993 0.000059 0.370891 0.509534
C43   C     C_R   0.500023 0.999945 0.129120 0.505069
C44   C     C_1   0.500015 0.000081 0.275505 -0.009127
C45   C     C_R   0.000120 0.499978 0.129141 0.506406
C46   C     C_R   0.000023 0.499945 0.629120 0.505067
C47   C     C_R   0.500120 0.999978 0.629141 0.506403
C48   C     C_R   0.639446 0.859123 0.999459 0.510631
C49   C     C_R   0.141422 0.639467 0.999629 0.511539
C50   C     C_R   0.360417 0.140706 0.999222 0.507974
C51   C     C_R   0.860484 0.359248 0.000718 0.550166
C52   C     C_R   0.641064 0.139083 0.000882 0.549047
C53   C     C_R   0.141008 0.360660 0.999464 0.511388
C54   C     C_R   0.361490 0.858136 0.998330 0.506386
C55   C     C_1   0.999843 0.499989 0.275500 -0.009509
C56   C     C_R   0.859555 0.639761 0.999479 0.508507
C57   C     C_R   0.139446 0.359123 0.499459 0.510630
C58   C     C_R   0.641422 0.139467 0.499629 0.511541
C59   C     C_R   0.860417 0.640707 0.499221 0.507968
C60   C     C_R   0.360483 0.859249 0.500717 0.550148
C61   C     C_R   0.141062 0.639085 0.500880 0.549031
C62   C     C_R   0.641008 0.860660 0.499464 0.511386
C63   C     C_R   0.861490 0.358136 0.498330 0.506389
C64   C     C_R   0.359555 0.139761 0.499479 0.508501
C65   C     C_1   0.000001 0.500143 0.819059 0.041733
C66   C     C_1   0.500036 0.999872 0.180953 0.024513
C67   C     C_1   0.499704 0.000002 0.819047 0.041519
C68   C     C_1   0.500001 0.000143 0.319059 0.041717
C69   C     C_1   0.999704 0.500002 0.319047 0.041503
C70   C     C_R   0.248825 0.803272 0.965416 -0.012342
C71   C     C_R   0.182220 0.235723 0.990144 0.030442
C72   C     C_R   0.735459 0.211756 0.961928 0.000609
C73   C     C_R   0.818367 0.765658 0.992746 0.037347
C74   C     C_R   0.234890 0.182652 0.989762 0.035118
C75   C     C_R   0.196210 0.750536 0.966179 -0.008223
C76   C     C_R   0.765266 0.818361 0.992924 0.031908
C77   C     C_1   0.000281 0.499968 0.180964 0.023121
C78   C     C_R   0.787955 0.264371 0.961809 0.001648
C79   C     C_R   0.748828 0.303269 0.465414 -0.012342
C80   C     C_R   0.682221 0.735724 0.490139 0.030443
C81   C     C_R   0.235402 0.711811 0.461913 0.000583
C82   C     C_R   0.318366 0.265657 0.492742 0.037348
C83   C     C_R   0.734891 0.682653 0.489757 0.035119
C84   C     C_R   0.696213 0.250534 0.466178 -0.008222
C85   C     C_R   0.265266 0.318360 0.492920 0.031909
C86   C     C_R   0.287899 0.764427 0.461794 0.001623
C87   C     C_R   0.313263 0.795698 0.991487 0.002532
C88   C     C_1   0.000036 0.499872 0.680953 0.024520
C89   C     C_R   0.200381 0.308343 0.995907 0.000984
C90   C     C_R   0.701445 0.190034 0.004368 0.080361
C91   C     C_R   0.800643 0.692203 0.994926 0.005651
C92   C     C_R   0.308317 0.199961 0.994309 0.004723
C93   C     C_R   0.203687 0.688964 0.995223 -0.005486
C94   C     C_R   0.692205 0.800096 0.995994 0.002632
C95   C     C_R   0.808414 0.299705 0.004087 0.077073
C96   C     C_R   0.813263 0.295698 0.491487 0.002534
C97   C     C_R   0.700381 0.808343 0.495906 0.000988
C98   C     C_R   0.201437 0.690042 0.504360 0.080409
C99   C     C_1   0.500281 0.999968 0.680964 0.023127
C100  C     C_R   0.300642 0.192203 0.494926 0.005650
C101  C     C_R   0.808318 0.699962 0.494308 0.004721
C102  C     C_R   0.703687 0.188964 0.495224 -0.005485
C103  C     C_R   0.192205 0.300096 0.495994 0.002636
C104  C     C_R   0.308409 0.799710 0.504081 0.077120
C105  C     C_R   0.330907 0.725347 0.009105 0.001937
C106  C     C_R   0.274911 0.329151 0.993686 -0.011782
C107  C     C_R   0.730436 0.214695 0.049257 0.001095
C108  C     C_R   0.726715 0.671262 0.989054 -0.019290
C109  C     C_R   0.329652 0.274069 0.991007 -0.019205
C110  C     C_3   0.136235 0.805123 0.961872 0.179952
C111  C     C_R   0.274164 0.673758 0.015412 -0.011141
C112  C     C_R   0.671580 0.725949 0.991172 -0.010571
C113  C     C_R   0.783013 0.272042 0.049134 -0.005535
C114  C     C_R   0.830906 0.225348 0.509109 0.001936
C115  C     C_R   0.774911 0.829152 0.493688 -0.011784
C116  C     C_R   0.230474 0.714659 0.549247 0.001129
C117  C     C_R   0.226714 0.171261 0.489056 -0.019320
C118  C     C_R   0.829653 0.774070 0.491009 -0.019235
C119  C     C_R   0.774162 0.173760 0.515416 -0.011141
C120  C     C_R   0.171580 0.225948 0.491174 -0.010573
Cl1   Cl    Cl    0.085756 0.792572 0.907015 -0.365436
Cl2   Cl    Cl    0.668025 0.552002 0.484131 -0.417422
Cl3   Cl    Cl    0.234166 0.884198 0.413814 -0.536510
Cl4   Cl    Cl    0.328704 0.451309 0.493914 -0.423949
Cl5   Cl    Cl    0.548928 0.672760 0.485827 -0.420521
Cl6   Cl    Cl    0.706848 0.410879 0.404722 -0.366086
Cl7   Cl    Cl    0.449635 0.332212 0.492943 -0.427616
Cl8   Cl    Cl    0.114486 0.764165 0.414404 -0.535609
Cl9   Cl    Cl    0.168023 0.052000 0.984147 -0.417434
Cl10  Cl    Cl    0.734288 0.384076 0.913724 -0.536400
Cl11  Cl    Cl    0.828705 0.951310 0.993930 -0.423969
Cl12  Cl    Cl    0.048926 0.172758 0.985841 -0.420540
Cl13  Cl    Cl    0.206840 0.910886 0.904729 -0.366083
Cl14  Cl    Cl    0.949636 0.832213 0.992958 -0.427624
Cl15  Cl    Cl    0.614607 0.264043 0.914314 -0.535496
Cl16  Cl    Cl    0.585764 0.292565 0.407008 -0.365440
H1    H     H_    0.102105 0.807068 0.994878 0.143366
H2    H     H_    0.712829 0.619202 0.554648 0.078759
H3    H     H_    0.308948 0.782098 0.385493 0.127754
H4    H     H_    0.283550 0.375842 0.560543 0.079495
H5    H     H_    0.620926 0.713238 0.555623 0.079369
H6    H     H_    0.695104 0.399312 0.493221 0.141827
H7    H     H_    0.377544 0.283861 0.560055 0.079455
H8    H     H_    0.216728 0.689589 0.385837 0.127281
H9    H     H_    0.445856 0.737429 0.995153 0.142779
H10   H     H_    0.423770 0.709356 0.056439 0.154532
H11   H     H_    0.419544 0.647414 0.005215 0.119452
H12   H     H_    0.212834 0.119210 0.054658 0.078758
H13   H     H_    0.281411 0.430476 0.031799 0.156393
H14   H     H_    0.352804 0.420659 0.989301 0.122689
H15   H     H_    0.263343 0.439343 0.967467 0.135852
H16   H     H_    0.673573 0.130808 0.091848 0.149153
H17   H     H_    0.756440 0.160869 0.116586 0.139574
H18   H     H_    0.676933 0.219750 0.118651 0.150672
H19   H     H_    0.753807 0.556602 0.973676 0.178852
H20   H     H_    0.675350 0.570915 0.011131 0.147281
H21   H     H_    0.673117 0.588691 0.946515 0.154991
H22   H     H_    0.444701 0.247713 0.976195 0.181308
H23   H     H_    0.809110 0.281937 0.885511 0.127804
H24   H     H_    0.413951 0.330739 0.952005 0.154673
H25   H     H_    0.429699 0.322682 0.016681 0.147465
H26   H     H_    0.252130 0.604121 0.076695 0.172046
H27   H     H_    0.279901 0.557248 0.021696 0.142091
H28   H     H_    0.344084 0.601561 0.060184 0.117750
H29   H     H_    0.566713 0.718983 0.024587 0.157790
H30   H     H_    0.564674 0.739002 0.960177 0.129765
H31   H     H_    0.580278 0.648904 0.981568 0.124787
H32   H     H_    0.792924 0.361054 0.099552 0.172124
H33   H     H_    0.794476 0.275345 0.128901 0.129936
H34   H     H_    0.783542 0.875834 0.060552 0.079499
H35   H     H_    0.872523 0.302952 0.095721 0.138514
H36   H     H_    0.945855 0.237424 0.495156 0.142778
H37   H     H_    0.923768 0.209365 0.556445 0.154538
H38   H     H_    0.919542 0.147412 0.505226 0.119461
H39   H     H_    0.781411 0.930475 0.531803 0.156394
H40   H     H_    0.852804 0.920661 0.489305 0.122702
H41   H     H_    0.763343 0.939345 0.467472 0.135858
H42   H     H_    0.173618 0.630756 0.591830 0.149125
H43   H     H_    0.256528 0.660756 0.616541 0.139598
H44   H     H_    0.177050 0.719668 0.618670 0.150664
H45   H     H_    0.120932 0.213245 0.055631 0.079375
H46   H     H_    0.253806 0.056601 0.473678 0.178905
H47   H     H_    0.175350 0.070914 0.511135 0.147320
H48   H     H_    0.173114 0.088688 0.446519 0.155035
H49   H     H_    0.944704 0.747716 0.476201 0.181365
H50   H     H_    0.913955 0.830742 0.452011 0.154723
H51   H     H_    0.929697 0.822684 0.516687 0.147495
H52   H     H_    0.752121 0.104132 0.576702 0.172048
H53   H     H_    0.779903 0.057251 0.521709 0.142094
H54   H     H_    0.844077 0.101573 0.560198 0.117757
H55   H     H_    0.066714 0.218983 0.524592 0.157794
H56   H     H_    0.195105 0.899312 0.993228 0.141829
H57   H     H_    0.064671 0.239000 0.460182 0.129768
H58   H     H_    0.080277 0.148903 0.481574 0.124799
H59   H     H_    0.293045 0.860960 0.599579 0.172113
H60   H     H_    0.294612 0.775218 0.628889 0.129944
H61   H     H_    0.372625 0.802846 0.595681 0.138492
H62   H     H_    0.877536 0.783853 0.060063 0.079454
H63   H     H_    0.716890 0.189429 0.885854 0.127330
H64   H     H_    0.602105 0.307068 0.494870 0.143367
O1    O     O_3   0.500000 0.000000 0.000010 -0.462716
O2    O     O_R   0.500000 0.939270 0.393740 -0.528176
O3    O     O_R   0.060730 0.500000 0.393740 -0.528839
O4    O     O_R   0.500000 0.060730 0.393740 -0.514369
O5    O     O_R   0.500000 0.939230 0.106280 -0.531672
O6    O     O_R   0.060770 0.500000 0.106280 -0.535026
O7    O     O_R   0.500000 0.060770 0.106280 -0.538299
O8    O     O_R   0.939230 0.500000 0.106280 -0.538058
O9    O     O_R   0.000000 0.439230 0.606280 -0.531673
O10   O     O_R   0.560770 0.000000 0.606280 -0.535027
O11   O     O_R   0.000000 0.560770 0.606280 -0.538292
O12   O     O_3   1.000000 0.500000 0.000010 -0.461051
O13   O     O_R   0.439230 0.000000 0.606280 -0.538055
O14   O     O_R   0.646160 0.914520 0.972140 -0.496687
O15   O     O_R   0.085480 0.646160 0.972140 -0.487993
O16   O     O_R   0.353840 0.085480 0.972140 -0.486741
O17   O     O_R   0.914520 0.353840 0.972140 -0.507390
O18   O     O_R   0.646160 0.085480 0.972140 -0.509525
O19   O     O_R   0.085480 0.353840 0.972140 -0.495069
O20   O     O_R   0.353840 0.914520 0.972140 -0.494481
O21   O     O_R   0.914520 0.646160 0.972140 -0.486280
O22   O     O_R   0.146160 0.414520 0.472140 -0.496679
O23   O     O_3   0.000000 0.500000 0.500010 -0.462719
O24   O     O_R   0.585480 0.146160 0.472140 -0.487992
O25   O     O_R   0.853840 0.585480 0.472140 -0.486743
O26   O     O_R   0.414520 0.853840 0.472140 -0.507422
O27   O     O_R   0.146160 0.585480 0.472140 -0.509555
O28   O     O_R   0.585480 0.853840 0.472140 -0.495062
O29   O     O_R   0.853840 0.414520 0.472140 -0.494480
O30   O     O_R   0.414520 0.146160 0.472140 -0.486283
O31   O     O_R   0.414550 0.146120 0.027860 -0.549358
O32   O     O_R   0.853880 0.414550 0.027860 -0.548999
O33   O     O_R   0.585450 0.853880 0.027860 -0.561340
O34   O     O_3   0.500000 0.000000 0.500010 -0.461054
O35   O     O_R   0.146120 0.585450 0.027860 -0.565901
O36   O     O_R   0.414550 0.853880 0.027860 -0.554702
O37   O     O_R   0.853880 0.585450 0.027860 -0.550523
O38   O     O_R   0.585450 0.146120 0.027860 -0.542285
O39   O     O_R   0.146120 0.414550 0.027860 -0.561516
O40   O     O_R   0.914550 0.646120 0.527860 -0.549353
O41   O     O_R   0.353880 0.914550 0.527860 -0.548941
O42   O     O_R   0.085450 0.353880 0.527860 -0.561341
O43   O     O_R   0.646120 0.085450 0.527860 -0.565900
O44   O     O_R   0.914550 0.353880 0.527860 -0.554702
O45   O     O_R   0.439270 0.000000 0.893740 -0.514235
O46   O     O_R   0.353880 0.085450 0.527860 -0.550514
O47   O     O_R   0.085450 0.646120 0.527860 -0.542235
O48   O     O_R   0.646120 0.914550 0.527860 -0.561516
O49   O     O_R   0.000000 0.439270 0.893740 -0.528158
O50   O     O_R   0.560730 0.000000 0.893740 -0.528821
O51   O     O_R   0.000000 0.560730 0.893740 -0.514376
O52   O     O_R   0.939270 0.500000 0.393740 -0.514228
Zn1   Zn    Zn3+2 0.500000 0.913210 0.039810 0.925975
Zn2   Zn    Zn3+2 0.000000 0.586760 0.960200 1.029136
Zn3   Zn    Zn3+2 0.413240 0.000000 0.960200 1.026504
Zn4   Zn    Zn3+2 0.000000 0.413240 0.960200 1.005235
Zn5   Zn    Zn3+2 0.086760 0.500000 0.460200 1.002075
Zn6   Zn    Zn3+2 0.500000 0.086760 0.460200 1.029134
Zn7   Zn    Zn3+2 0.913240 0.500000 0.460200 1.026502
Zn8   Zn    Zn3+2 0.500000 0.913240 0.460200 1.005212
Zn9   Zn    Zn3+2 0.086790 0.500000 0.039810 0.921354
Zn10  Zn    Zn3+2 0.500000 0.086790 0.039810 0.950790
Zn11  Zn    Zn3+2 0.913210 0.500000 0.039810 0.946640
Zn12  Zn    Zn3+2 0.000000 0.413210 0.539810 0.925976
Zn13  Zn    Zn3+2 0.586790 0.000000 0.539810 0.921353
Zn14  Zn    Zn3+2 0.000000 0.586790 0.539810 0.950819
Zn15  Zn    Zn3+2 0.413210 0.000000 0.539810 0.946672
Zn16  Zn    Zn3+2 0.586760 0.000000 0.960200 1.002096

loop_
_geom_bond_atom_site_label_1
_geom_bond_atom_site_label_2
_ccdc_geom_bond_type
C3    C104  A    
C53   O19   A    
C30   H64   S    
O12   Zn11  S    
O12   Zn4   S    
C45   O6    A    
C40   O49   A    
O32   Zn11  S    
C80   C97   A    
C43   O5    A    
C34   C37   S    
C84   C102  A    
C52   C90   S    
C8    H9    S    
C24   Cl11  S    
C14   H28   S    
C54   O36   A    
C86   C104  A    
C8    C105  S    
C53   O39   A    
C23   H55   S    
C17   H36   S    
C6    C88   T    
C21   H50   S    
C51   O17   A    
O34   Zn8   S    
O45   Zn3   S    
C9    H13   S    
C60   O41   A    
C21   C118  S    
O8    Zn11  S    
C48   C94   S    
C28   Cl14  S    
C101  C118  A    
C13   C29   S    
C64   O30   A    
C90   C107  A    
C36   Cl6   S    
C3    C116  A    
C43   C66   S    
C110  Cl1   S    
C54   C87   S    
C62   O28   A    
C92   C109  A    
O37   Zn11  S    
C81   C98   A    
C28   C73   S    
C2    H12   S    
C46   O11   A    
O20   Zn3   S    
C35   C80   S    
C2    Cl9   S    
C47   C99   S    
C23   H58   S    
C74   C92   A    
C14   H27   S    
C35   Cl5   S    
C83   C101  A    
C36   H6    S    
C107  C113  A    
O23   Zn14  S    
C72   C78   A    
C76   C94   A    
C12   H25   S    
C39   O45   A    
O47   Zn14  S    
C98   C116  A    
C16   H33   S    
C56   C91   S    
C103  C120  A    
C27   C110  S    
C39   C67   S    
C29   H63   S    
C87   C105  A    
C89   C106  A    
C13   C78   S    
C1    C65   T    
C13   Cl10  S    
O41   Zn15  S    
C15   H30   S    
C16   H35   S    
O44   Zn12  S    
O1    Zn16  S    
C32   C38   S    
O36   Zn1   S    
C97   C115  A    
C24   C28   S    
C48   O33   A    
C85   C103  A    
C11   H19   S    
C20   H48   S    
C29   C72   S    
C10   H16   S    
C18   H39   S    
C105  C111  A    
O16   Zn3   S    
O35   Zn9   S    
C42   O2    A    
C16   C113  S    
C42   C68   S    
C26   C71   S    
C7    C33   S    
C32   Cl3   S    
C15   H31   S    
C10   C107  S    
C14   C111  S    
O25   Zn7   S    
O4    Zn6   S    
C80   C83   A    
C70   C87   A    
C15   C112  S    
C10   H17   S    
C12   C109  S    
C17   H37   S    
C17   C114  S    
C21   H51   S    
C22   H54   S    
C46   C88   S    
C57   O22   A    
C22   C119  S    
C57   C103  S    
O6    Zn9   S    
C48   O14   A    
O12   Zn9   S    
O19   Zn4   S    
C43   O7    A    
C1    C6    S    
C59   C101  S    
O40   Zn14  S    
C56   O37   A    
C3    C25   S    
O1    Zn10  S    
C18   H41   S    
C32   H3    S    
C117  C120  A    
O26   Zn8   S    
C23   C120  S    
O23   Zn5   S    
C40   O51   A    
C58   O24   A    
C24   C76   S    
O34   Zn13  S    
O48   Zn13  S    
C4    C44   S    
C9    C106  S    
O1    Zn3   S    
C63   C96   S    
O11   Zn14  S    
C28   H62   S    
C108  C112  A    
C22   H53   S    
C34   C85   S    
C27   Cl13  S    
O43   Zn13  S    
C14   H26   S    
C30   C84   S    
C57   O42   A    
O2    Zn8   S    
C62   C97   S    
C72   C90   A    
C62   O48   A    
C15   H29   S    
C71   C89   A    
C50   O16   A    
C78   C95   A    
C115  C118  A    
C32   C86   S    
C23   H57   S    
C31   C83   S    
O17   Zn4   S    
C81   C86   A    
C50   O31   A    
C2    C26   S    
C61   O27   A    
C12   H24   S    
C31   H2    S    
C21   H49   S    
C25   H60   S    
C19   H42   S    
C73   C91   A    
C55   C69   T    
C27   C70   S    
C7    C99   T    
C11   H20   S    
C35   H5    S    
C20   H47   S    
C58   C102  S    
O29   Zn7   S    
C50   C92   S    
C29   Cl15  S    
O31   Zn10  S    
C93   C111  A    
O10   Zn13  S    
C30   Cl16  S    
C40   C65   S    
C38   C81   S    
C53   C89   S    
C73   C76   A    
C31   C35   S    
C37   C82   S    
O38   Zn10  S    
C8    H11   S    
C61   O47   A    
C27   H56   S    
C5    C77   T    
C9    H14   S    
C82   C85   A    
C19   H43   S    
C70   C75   A    
C26   Cl12  S    
C17   H38   S    
C11   H21   S    
O9    Zn12  S    
C20   H46   S    
O34   Zn6   S    
O7    Zn10  S    
O13   Zn15  S    
O21   Zn2   S    
C9    H15   S    
C75   C110  S    
C34   Cl4   S    
C52   O18   A    
C37   H7    S    
C79   C84   A    
C51   O32   A    
C38   H8    S    
C91   C108  A    
C5    C55   S    
C110  H1    S    
C8    H10   S    
C114  C119  A    
C31   Cl2   S    
O51   Zn2   S    
C36   C79   S    
C2    C74   S    
C18   C115  S    
C71   C74   A    
C38   Cl8   S    
O28   Zn8   S    
O12   Zn2   S    
C54   O20   A    
C25   H59   S    
O5    Zn1   S    
O33   Zn1   S    
C52   O38   A    
C45   O8    A    
C46   O9    A    
C42   O4    A    
C49   O15   A    
O24   Zn6   S    
O23   Zn12  S    
C30   C36   S    
C82   C100  A    
C49   C93   S    
C24   H34   S    
C59   O40   A    
C64   C100  S    
O50   Zn16  S    
O18   Zn16  S    
C49   O35   A    
C33   C67   T    
O42   Zn12  S    
C95   C113  A    
O23   Zn7   S    
C10   H18   S    
C61   C98   S    
O34   Zn15  S    
C56   O21   A    
C39   O50   A    
C19   C116  S    
C16   H32   S    
C75   C93   A    
O1    Zn1   S    
C63   O44   A    
C47   O13   A    
C41   O52   A    
C34   H4    S    
C41   O3    A    
C63   O29   A    
C60   O26   A    
O15   Zn2   S    
C22   H52   S    
C58   O43   A    
C59   O25   A    
C96   C114  A    
O22   Zn5   S    
C25   H61   S    
O27   Zn5   S    
O14   Zn16  S    
C26   H45   S    
O3    Zn5   S    
C79   C96   A    
C64   O46   A    
C4    C66   T    
O49   Zn4   S    
C47   O10   A    
C11   C108  S    
O30   Zn6   S    
C44   C68   T    
O39   Zn9   S    
C45   C77   S    
C100  C117  A    
C12   H22   S    
C60   C104  S    
C41   C69   S    
C20   C117  S    
C19   H44   S    
C13   H23   S    
C94   C112  A    
C102  C119  A    
O46   Zn15  S    
O52   Zn7   S    
C51   C95   S    
C37   Cl7   S    
C106  C109  A    
C18   H40   S    
