data_mof_unit_38162.cif
_audit_creation_date              2012-12-10T18:29:09-0500
_audit_creation_method            fapswitch 2.2
_symmetry_space_group_name_H-M    P1
_symmetry_Int_Tables_number       1
_space_group_crystal_system       triclinic
_cell_length_a                    27.331651
_cell_length_b                    27.331883
_cell_length_c                    18.005226
_cell_angle_alpha                 90.049282
_cell_angle_beta                  90.096943
_cell_angle_gamma                 90.003671
_cell_volume                      13450.3384701

loop_
_atom_site_label
_atom_site_type_symbol
_atom_type_description
_atom_site_fract_x
_atom_site_fract_y
_atom_site_fract_z
_atom_type_partial_charge
C1    C     C_R   0.066432 0.433509 0.500073 0.813776
C2    C     C_R   0.000342 0.500476 0.840504 0.008505
C3    C     C_3   0.942525 0.665497 0.873563 -0.842443
C4    C     C_3   0.507722 0.094356 0.163567 -0.425035
C5    C     C_3   0.560387 0.102945 0.137337 -0.327298
C6    C     C_3   0.565895 0.153181 0.101429 -0.852410
C7    C     C_3   0.504060 0.906351 0.837494 -0.415391
C8    C     C_3   0.556143 0.885514 0.838181 -0.321290
C9    C     C_3   0.557901 0.836201 0.877728 -0.844688
C10   C     C_3   0.494933 0.906634 0.161496 -0.423055
C11   C     C_3   0.443282 0.897784 0.130852 -0.324847
C12   C     C_3   0.439896 0.848410 0.091573 -0.854240
C13   C     C_R   0.500737 0.000550 0.159629 0.018906
C14   C     C_3   0.496258 0.094613 0.836334 -0.414018
C15   C     C_3   0.444241 0.115634 0.835295 -0.324323
C16   C     C_3   0.442287 0.165415 0.873561 -0.842391
C17   C     C_3   0.818616 0.325918 0.640203 -0.417209
C18   C     C_3   0.768382 0.349193 0.654099 -0.330260
C19   C     C_3   0.746757 0.332007 0.727646 -0.850693
C20   C     C_3   0.179286 0.672338 0.354436 -0.408906
C21   C     C_3   0.142452 0.704588 0.312765 -0.328713
C22   C     C_3   0.161784 0.719032 0.236421 -0.849571
C23   C     C_3   0.174577 0.681100 0.640240 -0.411379
C24   C     C_R   0.500344 0.000481 0.840505 0.008521
C25   C     C_3   0.210056 0.645818 0.678761 -0.322255
C26   C     C_3   0.228696 0.666985 0.751953 -0.847721
C27   C     C_3   0.825983 0.321035 0.354675 -0.414833
C28   C     C_3   0.848882 0.270897 0.338736 -0.334016
C29   C     C_3   0.832448 0.251251 0.263370 -0.850420
C30   C     C_3   0.175829 0.320904 0.358966 -0.411488
C31   C     C_3   0.211610 0.356602 0.322189 -0.322550
C32   C     C_3   0.230715 0.336295 0.248810 -0.845043
C33   C     C_3   0.826969 0.679830 0.644757 -0.416334
C34   C     C_3   0.850576 0.729663 0.660624 -0.333490
C35   C     C_R   0.002835 0.544927 0.200791 -0.021111
C36   C     C_3   0.833730 0.750085 0.735207 -0.847928
C37   C     C_3   0.819360 0.674908 0.359234 -0.416858
C38   C     C_3   0.769031 0.651913 0.344790 -0.330554
C39   C     C_3   0.747554 0.669476 0.271237 -0.849007
C40   C     C_3   0.178956 0.326225 0.644819 -0.410851
C41   C     C_3   0.142953 0.291591 0.683392 -0.324427
C42   C     C_3   0.163198 0.273948 0.757697 -0.850228
C43   C     C_3   0.318250 0.826299 0.640177 -0.417183
C44   C     C_3   0.267962 0.849576 0.653615 -0.330282
C45   C     C_3   0.246182 0.832632 0.727188 -0.850683
C46   C     C_R   0.002821 0.455854 0.799917 -0.018734
C47   C     C_3   0.678983 0.172639 0.354392 -0.408923
C48   C     C_3   0.642057 0.204978 0.313071 -0.328740
C49   C     C_3   0.661221 0.219590 0.236704 -0.849589
C50   C     C_3   0.674942 0.180751 0.640257 -0.411395
C51   C     C_3   0.710524 0.145371 0.678350 -0.322282
C52   C     C_3   0.729365 0.166353 0.751545 -0.847698
C53   C     C_3   0.326326 0.820684 0.354715 -0.414810
C54   C     C_3   0.349222 0.770483 0.339222 -0.334014
C55   C     C_3   0.332964 0.750648 0.263882 -0.850413
C56   C     C_3   0.675646 0.820728 0.358967 -0.411497
C57   C     C_R   0.998382 0.455844 0.199913 -0.020565
C58   C     C_3   0.711376 0.856381 0.321972 -0.322524
C59   C     C_3   0.730382 0.835980 0.248594 -0.845041
C60   C     C_3   0.326772 0.179635 0.644775 -0.416354
C61   C     C_3   0.350384 0.229432 0.660890 -0.333479
C62   C     C_3   0.333399 0.249778 0.735446 -0.847912
C63   C     C_3   0.319547 0.175099 0.359220 -0.416886
C64   C     C_3   0.269245 0.152111 0.344537 -0.330538
C65   C     C_3   0.247861 0.169785 0.270983 -0.848999
C66   C     C_3   0.679113 0.826379 0.644799 -0.410841
C67   C     C_3   0.643171 0.791758 0.683530 -0.324372
C68   C     C_R   0.997620 0.544840 0.799440 -0.019293
C69   C     C_3   0.663502 0.774199 0.757827 -0.850232
C70   C     C_R   0.502756 0.044937 0.200795 -0.021105
C71   C     C_R   0.502884 0.955862 0.799922 -0.018757
C72   C     C_R   0.498468 0.955846 0.199910 -0.020551
C73   C     C_R   0.933598 0.566528 0.500045 0.814292
C74   C     C_R   0.497560 0.044840 0.799438 -0.019309
C75   C     C_R   0.002109 0.543251 0.279183 0.034002
C76   C     C_R   0.002708 0.457025 0.721474 0.033088
C77   C     C_R   0.998313 0.456979 0.278388 0.032549
C78   C     C_R   0.997455 0.543183 0.721037 0.034432
C79   C     C_R   0.502035 0.043256 0.279187 0.034052
C80   C     C_R   0.502765 0.957030 0.721478 0.033050
C81   C     C_R   0.498390 0.956978 0.278385 0.032588
C82   C     C_R   0.497399 0.043180 0.721035 0.034398
C83   C     C_R   0.876005 0.377989 0.565998 -0.219132
C84   C     C_R   0.933545 0.433518 0.499879 0.814532
C85   C     C_R   0.123178 0.621396 0.431806 -0.217648
C86   C     C_R   0.122010 0.624210 0.566092 -0.219600
C87   C     C_R   0.878293 0.376754 0.431664 -0.217315
C88   C     C_R   0.122638 0.376735 0.433672 -0.219645
C89   C     C_R   0.878757 0.623640 0.568032 -0.216578
C90   C     C_R   0.876341 0.622360 0.433679 -0.219607
C91   C     C_R   0.122898 0.377906 0.568054 -0.217386
C92   C     C_R   0.375840 0.878159 0.565991 -0.219165
C93   C     C_R   0.623040 0.121532 0.431791 -0.217594
C94   C     C_R   0.622166 0.124060 0.566097 -0.219631
C95   C     C_R   0.066425 0.566486 0.499977 0.813899
C96   C     C_R   0.378450 0.876593 0.431679 -0.217292
C97   C     C_R   0.622559 0.876659 0.433670 -0.219632
C98   C     C_R   0.378667 0.123550 0.568039 -0.216598
C99   C     C_R   0.376425 0.122445 0.433676 -0.219595
C100  C     C_R   0.622967 0.877974 0.568049 -0.217430
C101  C     C_R   0.839503 0.342053 0.566134 0.086442
C102  C     C_R   0.159442 0.657450 0.429750 0.086164
C103  C     C_R   0.158071 0.660572 0.566051 0.087558
C104  C     C_R   0.842084 0.340593 0.429736 0.084832
C105  C     C_R   0.158844 0.340536 0.433372 0.086732
C106  C     C_R   0.566431 0.933509 0.500073 0.813770
C107  C     C_R   0.842777 0.660016 0.569798 0.085483
C108  C     C_R   0.840078 0.658532 0.433392 0.086093
C109  C     C_R   0.159417 0.342077 0.569719 0.086345
C110  C     C_R   0.339326 0.842235 0.566130 0.086427
C111  C     C_R   0.659306 0.157585 0.429730 0.086153
C112  C     C_R   0.658241 0.160408 0.566051 0.087542
C113  C     C_R   0.342243 0.840430 0.429756 0.084838
C114  C     C_R   0.658760 0.840454 0.433367 0.086745
C115  C     C_R   0.342683 0.159922 0.569807 0.085483
C116  C     C_R   0.340165 0.158620 0.433390 0.086104
C117  C     C_R   0.433597 0.066527 0.500046 0.814286
C118  C     C_R   0.659488 0.842147 0.569709 0.086337
C119  C     C_R   0.822495 0.322998 0.497487 0.024215
C120  C     C_R   0.177067 0.677299 0.497391 0.017875
C121  C     C_R   0.177518 0.323105 0.501886 0.017680
C122  C     C_R   0.823203 0.677662 0.501971 0.023738
C123  C     C_R   0.322484 0.823009 0.497498 0.024250
C124  C     C_R   0.677084 0.177283 0.497379 0.017907
C125  C     C_R   0.677512 0.823099 0.501877 0.017662
C126  C     C_R   0.323199 0.177660 0.501975 0.023713
C127  C     C_R   0.000570 0.500713 0.924084 0.401573
C128  C     C_R   0.433545 0.933518 0.499879 0.814531
C129  C     C_R   0.000857 0.500868 0.076090 0.409684
C130  C     C_R   0.500573 0.000721 0.924084 0.401570
C131  C     C_R   0.500862 0.000878 0.076089 0.409681
C132  C     C_R   0.895443 0.395500 0.499265 -0.090687
C133  C     C_R   0.104395 0.604580 0.499431 -0.092436
C134  C     C_R   0.104491 0.395483 0.500530 -0.091981
C135  C     C_R   0.895694 0.604730 0.500497 -0.090106
C136  C     C_R   0.395442 0.895502 0.499268 -0.090683
C137  C     C_R   0.604399 0.104578 0.499428 -0.092455
C138  C     C_R   0.604488 0.895481 0.500528 -0.091964
C139  C     C_R   0.566426 0.066486 0.499977 0.813903
C140  C     C_R   0.395692 0.104727 0.500498 -0.090103
C141  C     C_R   0.215030 0.715018 0.496477 0.380655
C142  C     C_R   0.784739 0.284922 0.496647 0.389563
C143  C     C_R   0.785410 0.715690 0.502696 0.390250
C144  C     C_R   0.215528 0.285414 0.502545 0.381791
C145  C     C_R   0.715045 0.215003 0.496458 0.380665
C146  C     C_R   0.284727 0.784934 0.496665 0.389528
C147  C     C_R   0.285408 0.215688 0.502702 0.390274
C148  C     C_R   0.715525 0.785410 0.502533 0.381794
C149  C     C_3   0.007894 0.594336 0.163559 -0.425041
C150  C     C_R   0.000733 0.500543 0.159629 0.018909
C151  C     C_3   0.060577 0.602824 0.137331 -0.327296
C152  C     C_3   0.066180 0.653047 0.101415 -0.852382
C153  C     C_3   0.003922 0.406338 0.837482 -0.415384
C154  C     C_3   0.055971 0.385417 0.838152 -0.321304
C155  C     C_3   0.057652 0.336094 0.877681 -0.844682
C156  C     C_3   0.994744 0.406638 0.161506 -0.423050
C157  C     C_3   0.943068 0.397889 0.130891 -0.324868
C158  C     C_3   0.939570 0.348511 0.091645 -0.854215
C159  C     C_3   0.996391 0.594615 0.836338 -0.414005
C160  C     C_3   0.944406 0.615712 0.835300 -0.324304
Cu1   Cu    Cu3+1 1.000000 0.500000 0.573360 0.927436
Cu2   Cu    Cu3+1 1.000000 0.500000 0.426640 0.928352
Cu3   Cu    Cu3+1 0.500000 0.000000 0.573360 0.927405
Cu4   Cu    Cu3+1 0.500000 0.000000 0.426640 0.928389
H1    H     H_    0.003936 0.576845 0.310939 0.123527
H2    H     H_    0.109971 0.606067 0.379964 0.153119
H3    H     H_    0.192177 0.717470 0.633930 0.211442
H4    H     H_    0.142035 0.687091 0.676143 0.187918
H5    H     H_    0.792064 0.246675 0.262281 0.253908
H6    H     H_    0.843612 0.276675 0.218363 0.253584
H7    H     H_    0.849700 0.215089 0.253197 0.243074
H8    H     H_    0.889430 0.274220 0.339027 0.218292
H9    H     H_    0.838213 0.244166 0.382165 0.235342
H10   H     H_    0.785491 0.318900 0.351737 0.218948
H11   H     H_    0.837138 0.346709 0.309859 0.190389
H12   H     H_    0.251336 0.301870 0.258481 0.253848
H13   H     H_    0.107457 0.611494 0.618615 0.152369
H14   H     H_    0.199881 0.329035 0.210064 0.251853
H15   H     H_    0.255692 0.363340 0.222833 0.242962
H16   H     H_    0.192971 0.392058 0.311439 0.213763
H17   H     H_    0.243163 0.363455 0.359823 0.239317
H18   H     H_    0.193337 0.284438 0.364637 0.211030
H19   H     H_    0.143533 0.315386 0.322219 0.188497
H20   H     H_    0.793481 0.755729 0.734850 0.253673
H21   H     H_    0.843615 0.724586 0.780826 0.251396
H22   H     H_    0.851811 0.785822 0.745622 0.243432
H23   H     H_    0.891056 0.725614 0.661545 0.219025
H24   H     H_    0.893533 0.390005 0.379914 0.150015
H25   H     H_    0.840829 0.756292 0.616496 0.235104
H26   H     H_    0.786511 0.682519 0.647523 0.219255
H27   H     H_    0.837807 0.654061 0.689685 0.189820
H28   H     H_    0.742237 0.709748 0.272457 0.252922
H29   H     H_    0.772217 0.659730 0.224535 0.253985
H30   H     H_    0.711500 0.651777 0.261854 0.243655
H31   H     H_    0.772644 0.611405 0.343168 0.221049
H32   H     H_    0.743185 0.661580 0.389951 0.235454
H33   H     H_    0.817085 0.715405 0.356935 0.218296
H34   H     H_    0.844342 0.664003 0.313388 0.190086
H35   H     H_    0.108395 0.390028 0.381209 0.153393
H36   H     H_    0.197365 0.252706 0.749042 0.255595
H37   H     H_    0.170981 0.305582 0.794643 0.250569
H38   H     H_    0.135892 0.249972 0.785174 0.243210
H39   H     H_    0.107659 0.310729 0.693248 0.210637
H40   H     H_    0.135836 0.259306 0.647361 0.238856
H41   H     H_    0.215187 0.308154 0.639942 0.211638
H42   H     H_    0.184908 0.359160 0.680038 0.190552
H43   H     H_    0.240691 0.792380 0.726564 0.253068
H44   H     H_    0.270738 0.842612 0.774032 0.253180
H45   H     H_    0.210176 0.850546 0.735829 0.243797
H46   H     H_    0.893992 0.610365 0.619851 0.146497
H47   H     H_    0.271722 0.890080 0.654609 0.220965
H48   H     H_    0.242226 0.839670 0.608290 0.235274
H49   H     H_    0.315789 0.785826 0.642922 0.218416
H50   H     H_    0.343088 0.837337 0.686259 0.189247
H51   H     H_    0.695714 0.240777 0.242324 0.254818
H52   H     H_    0.668022 0.186525 0.202310 0.253479
H53   H     H_    0.633661 0.242735 0.208057 0.242233
H54   H     H_    0.606931 0.185015 0.305698 0.211626
H55   H     H_    0.634859 0.238626 0.346025 0.237418
H56   H     H_    0.714391 0.192293 0.359137 0.210879
H57   H     H_    0.889127 0.607478 0.381386 0.151871
H58   H     H_    0.686532 0.139168 0.321135 0.191733
H59   H     H_    0.750166 0.200596 0.741389 0.254110
H60   H     H_    0.698384 0.174116 0.789633 0.251064
H61   H     H_    0.754122 0.139489 0.778544 0.242946
H62   H     H_    0.691793 0.110045 0.689624 0.213342
H63   H     H_    0.742217 0.138117 0.641326 0.239407
H64   H     H_    0.692526 0.217136 0.634048 0.211414
H65   H     H_    0.642497 0.186651 0.676394 0.187942
H66   H     H_    0.292579 0.746108 0.262578 0.253911
H67   H     H_    0.344272 0.775937 0.218783 0.253566
H68   H     H_    0.109199 0.392430 0.620067 0.149770
H69   H     H_    0.350207 0.714442 0.254040 0.243074
H70   H     H_    0.389772 0.773772 0.339734 0.218288
H71   H     H_    0.338417 0.743877 0.382749 0.235339
H72   H     H_    0.285841 0.818580 0.351538 0.218970
H73   H     H_    0.337626 0.846226 0.309810 0.190378
H74   H     H_    0.751017 0.801568 0.258304 0.253853
H75   H     H_    0.699497 0.828670 0.209965 0.251837
H76   H     H_    0.755324 0.862992 0.222459 0.242971
H77   H     H_    0.692721 0.891822 0.311173 0.213768
H78   H     H_    0.742979 0.863284 0.359488 0.239321
H79   H     H_    0.388610 0.893100 0.618320 0.151408
H80   H     H_    0.693163 0.784270 0.364689 0.211040
H81   H     H_    0.643301 0.815163 0.322335 0.188469
H82   H     H_    0.293157 0.255472 0.734899 0.253673
H83   H     H_    0.343151 0.224209 0.781040 0.251383
H84   H     H_    0.351500 0.285480 0.746059 0.243434
H85   H     H_    0.390859 0.225350 0.661993 0.219021
H86   H     H_    0.340750 0.256119 0.616787 0.235111
H87   H     H_    0.286312 0.182343 0.647409 0.219272
H88   H     H_    0.337527 0.153795 0.689654 0.189799
H89   H     H_    0.242521 0.210052 0.272340 0.252916
H90   H     H_    0.609714 0.106321 0.379938 0.153104
H91   H     H_    0.272594 0.160130 0.224324 0.253982
H92   H     H_    0.211829 0.152083 0.261417 0.243661
H93   H     H_    0.272872 0.111608 0.342779 0.221058
H94   H     H_    0.243336 0.161699 0.389654 0.235456
H95   H     H_    0.317264 0.215599 0.357051 0.218290
H96   H     H_    0.344597 0.164268 0.313420 0.190060
H97   H     H_    0.697680 0.752979 0.749141 0.255605
H98   H     H_    0.671292 0.805873 0.794691 0.250565
H99   H     H_    0.636244 0.750224 0.785412 0.243206
H100  H     H_    0.607875 0.810883 0.693424 0.210645
H101  H     H_    0.607734 0.111228 0.618632 0.152449
H102  H     H_    0.636038 0.759434 0.647587 0.238880
H103  H     H_    0.715351 0.808328 0.639874 0.211643
H104  H     H_    0.685080 0.859350 0.679933 0.190530
H105  H     H_    0.004398 0.423143 0.690397 0.125206
H106  H     H_    0.393820 0.889714 0.379942 0.149965
H107  H     H_    0.608255 0.889893 0.381211 0.153339
H108  H     H_    0.393833 0.110207 0.619864 0.146515
H109  H     H_    0.389280 0.107633 0.381376 0.151825
H110  H     H_    0.609328 0.892555 0.620061 0.149775
H111  H     H_    0.041732 0.656173 0.052280 0.255322
H112  H     H_    0.057103 0.682348 0.141914 0.253816
H113  H     H_    0.104600 0.658115 0.083006 0.241634
H114  H     H_    0.085932 0.600400 0.185578 0.214827
H115  H     H_    0.071184 0.574407 0.096274 0.233379
H116  H     H_    0.996457 0.423175 0.309524 0.122355
H117  H     H_    0.981928 0.597514 0.116398 0.223704
H118  H     H_    0.997934 0.623961 0.203168 0.184639
H119  H     H_    0.044965 0.339986 0.935982 0.256063
H120  H     H_    0.034127 0.309145 0.848298 0.250253
H121  H     H_    0.095793 0.322172 0.878275 0.243332
H122  H     H_    0.069199 0.380580 0.780237 0.202341
H123  H     H_    0.081027 0.411196 0.867108 0.240089
H124  H     H_    0.989609 0.408422 0.895059 0.217348
H125  H     H_    0.979167 0.380874 0.807193 0.183871
H126  H     H_    0.965345 0.347181 0.044025 0.255149
H127  H     H_    0.995706 0.576886 0.689603 0.125836
H128  H     H_    0.948275 0.318392 0.130896 0.252408
H129  H     H_    0.901799 0.343104 0.070362 0.240828
H130  H     H_    0.916303 0.398700 0.177331 0.212330
H131  H     H_    0.933023 0.427024 0.090741 0.234334
H132  H     H_    0.022283 0.403977 0.116495 0.224081
H133  H     H_    0.003587 0.376777 0.201284 0.183979
H134  H     H_    0.954283 0.662172 0.932445 0.256949
H135  H     H_    0.966725 0.691918 0.844531 0.250450
H136  H     H_    0.904488 0.679725 0.872186 0.237564
H137  H     H_    0.931637 0.619956 0.776976 0.202475
H138  H     H_    0.503805 0.076852 0.310945 0.123457
H139  H     H_    0.919064 0.590317 0.864287 0.239281
H140  H     H_    0.010128 0.592946 0.894321 0.217482
H141  H     H_    0.021527 0.619741 0.806316 0.184054
H142  H     H_    0.541438 0.156266 0.052299 0.255328
H143  H     H_    0.556768 0.182462 0.141935 0.253844
H144  H     H_    0.604305 0.158321 0.083014 0.241588
H145  H     H_    0.585748 0.100565 0.185582 0.214821
H146  H     H_    0.571047 0.074551 0.096275 0.233378
H147  H     H_    0.481749 0.097487 0.116405 0.223700
H148  H     H_    0.497706 0.123961 0.203177 0.184620
H149  H     H_    0.504500 0.923148 0.690404 0.125272
H150  H     H_    0.545198 0.840080 0.936024 0.256051
H151  H     H_    0.534427 0.809208 0.848346 0.250268
H152  H     H_    0.596066 0.822344 0.878344 0.243347
H153  H     H_    0.569384 0.880691 0.780271 0.202338
H154  H     H_    0.581155 0.911338 0.867133 0.240096
H155  H     H_    0.489737 0.908416 0.895067 0.217338
H156  H     H_    0.479350 0.880844 0.807203 0.183907
H157  H     H_    0.465682 0.847150 0.043961 0.255148
H158  H     H_    0.448661 0.818299 0.130806 0.252374
H159  H     H_    0.402141 0.842928 0.070272 0.240846
H160  H     H_    0.496591 0.923169 0.309519 0.122272
H161  H     H_    0.416506 0.898526 0.177281 0.212312
H162  H     H_    0.433182 0.926909 0.090717 0.234345
H163  H     H_    0.522488 0.904029 0.116501 0.224097
H164  H     H_    0.503825 0.876788 0.201275 0.183949
H165  H     H_    0.454052 0.162106 0.932441 0.256929
H166  H     H_    0.466446 0.191873 0.844527 0.250463
H167  H     H_    0.404229 0.179586 0.872188 0.237584
H168  H     H_    0.431467 0.119860 0.776971 0.202499
H169  H     H_    0.418937 0.090201 0.864281 0.239269
H170  H     H_    0.509996 0.092964 0.894318 0.217474
H171  H     H_    0.495606 0.076881 0.689600 0.125909
H172  H     H_    0.521357 0.119777 0.806313 0.184071
H173  H     H_    0.741196 0.291767 0.726698 0.253067
H174  H     H_    0.771447 0.341764 0.774437 0.253172
H175  H     H_    0.710803 0.349947 0.736653 0.243799
H176  H     H_    0.772182 0.389689 0.655405 0.220948
H177  H     H_    0.742533 0.339474 0.608828 0.235287
H178  H     H_    0.816133 0.285440 0.642694 0.218431
H179  H     H_    0.843584 0.336806 0.686204 0.189187
H180  H     H_    0.196269 0.740224 0.242106 0.254823
H181  H     H_    0.168652 0.685891 0.202224 0.253445
H182  H     H_    0.888899 0.392801 0.618343 0.151345
H183  H     H_    0.134290 0.742120 0.207522 0.242247
H184  H     H_    0.107341 0.684611 0.305316 0.211640
H185  H     H_    0.135185 0.738310 0.345511 0.237426
H186  H     H_    0.214686 0.691999 0.359260 0.210895
H187  H     H_    0.186905 0.638795 0.321385 0.191715
H188  H     H_    0.249522 0.701204 0.741731 0.254113
H189  H     H_    0.197611 0.674842 0.789800 0.251039
H190  H     H_    0.253380 0.640191 0.779264 0.242945
H191  H     H_    0.191296 0.610520 0.690122 0.213331
H192  H     H_    0.241852 0.638474 0.641980 0.239413
N1    N     N_R   1.000000 0.500000 0.316380 -0.186305
N2    N     N_R   0.463408 0.021646 0.963004 -0.246508
N3    N     N_R   0.463546 0.021708 0.037258 -0.257035
N4    N     N_R   0.537903 0.979918 0.962931 -0.246517
N5    N     N_R   0.739409 0.294709 0.469781 -0.255890
N6    N     N_R   0.260271 0.705262 0.523598 -0.244626
N7    N     N_R   0.205134 0.760177 0.469267 -0.244073
N8    N     N_R   0.794720 0.239604 0.523211 -0.256058
N9    N     N_R   0.205576 0.240040 0.528819 -0.244482
N10   N     N_R   0.795326 0.761091 0.476444 -0.256002
N11   N     N_R   0.740046 0.705710 0.529018 -0.255822
N12   N     N_R   1.000000 0.500000 0.683620 -0.187520
N13   N     N_R   0.260926 0.295480 0.476520 -0.244654
N14   N     N_R   0.239477 0.794642 0.469421 -0.255896
N15   N     N_R   0.760367 0.205168 0.523198 -0.244635
N16   N     N_R   0.705067 0.260243 0.469627 -0.244045
N17   N     N_R   0.294625 0.739697 0.523611 -0.256058
N18   N     N_R   0.705618 0.740078 0.529010 -0.244510
N19   N     N_R   0.295368 0.261130 0.476653 -0.255995
N20   N     N_R   0.240002 0.205670 0.528824 -0.255828
N21   N     N_R   0.760881 0.795437 0.476309 -0.244657
N22   N     N_R   0.500000 0.000000 0.316380 -0.186284
N23   N     N_R   0.500000 0.000000 0.683620 -0.187538
N24   N     N_R   0.037997 0.479909 0.037183 -0.256105
N25   N     N_R   0.963445 0.521708 0.963004 -0.246507
N26   N     N_R   0.963582 0.521770 0.037258 -0.257039
N27   N     N_R   0.037859 0.479837 0.962931 -0.246515
N28   N     N_R   0.538041 0.979991 0.037182 -0.256095
O1    O     O_R   0.049930 0.450080 0.561970 -0.587875
O2    O     O_R   0.450070 0.049920 0.438030 -0.584754
O3    O     O_R   0.450070 0.049920 0.561970 -0.587957
O4    O     O_R   0.549930 0.950080 0.438030 -0.585048
O5    O     O_R   0.450070 0.950080 0.438030 -0.586630
O6    O     O_R   0.549930 0.049920 0.561970 -0.585030
O7    O     O_R   0.549930 0.049920 0.438030 -0.588179
O8    O     O_R   0.450070 0.950080 0.561970 -0.584415
O9    O     O_R   0.950070 0.549920 0.438030 -0.584732
O10   O     O_R   0.950070 0.549920 0.561970 -0.587914
O11   O     O_R   0.049930 0.450080 0.438030 -0.585025
O12   O     O_R   0.950070 0.450080 0.438030 -0.586692
O13   O     O_R   0.049930 0.549920 0.561970 -0.585041
O14   O     O_R   0.049930 0.549920 0.438030 -0.588223
O15   O     O_R   0.950070 0.450080 0.561970 -0.584424
O16   O     O_R   0.549930 0.950080 0.561970 -0.587905

loop_
_geom_bond_atom_site_label_1
_geom_bond_atom_site_label_2
_ccdc_geom_bond_type
C157  C158  S    
C50   H64   S    
C55   H66   S    
C158  H128  S    
C102  C120  A    
C6    H142  S    
C7    H155  S    
C73   O9    A    
C95   O13   A    
C5    C6    S    
C28   H9    S    
C13   C70   A    
C95   C133  S    
C38   H31   S    
C50   H65   S    
C30   H19   S    
N8    N15   A    
C23   C103  S    
C73   C135  S    
C145  N16   A    
C61   H86   S    
C65   H89   S    
C11   H161  S    
C43   C110  S    
C139  O7    A    
C155  H121  S    
C160  H137  S    
Cu1   O10   S    
C9    H152  S    
C144  N13   A    
C111  C124  A    
C21   C22   S    
C31   H17   S    
C30   H18   S    
C32   H14   S    
C15   H169  S    
C53   C113  S    
C130  N2    A    
C51   C52   S    
Cu3   O3    S    
C37   C108  S    
C152  H112  S    
Cu1   O1    S    
C99   C116  A    
C93   H90   S    
Cu2   O14   S    
C78   N12   A    
C49   H53   S    
C157  H130  S    
C43   C44   S    
C37   C38   S    
C110  C123  A    
C76   H105  S    
C75   H1    S    
C3    H135  S    
C154  C155  S    
C40   C109  S    
N7    N14   A    
C23   H3    S    
C144  N9    A    
C52   H60   S    
N25   N26   A    
C158  H126  S    
C77   H116  S    
C67   C69   S    
C54   C55   S    
C46   C153  S    
C131  N28   A    
C70   C79   A    
C20   H187  S    
C4    C5    S    
C125  C148  S    
C126  C147  S    
C112  C124  A    
C13   C72   A    
C22   H180  S    
C49   H51   S    
C31   H16   S    
C33   H27   S    
C15   H168  S    
C109  C121  A    
C47   C111  S    
C65   H91   S    
C159  H140  S    
C155  H119  S    
C79   N22   A    
C152  H113  S    
C16   H165  S    
Cu2   O11   S    
C20   C21   S    
C94   C137  A    
C149  H117  S    
C84   O15   A    
C29   H5    S    
C21   H184  S    
C4    H148  S    
C66   H103  S    
C48   H55   S    
N5    N16   A    
C76   N12   A    
Cu3   N23   S    
C129  N24   A    
C7    C8    S    
C69   H99   S    
C53   C54   S    
C117  O2    A    
C39   H29   S    
C26   H190  S    
C14   C74   S    
C88   H35   S    
C82   H171  S    
C36   H21   S    
C2    C68   A    
C149  C151  S    
C4    H147  S    
C38   C39   S    
C82   N23   A    
C58   H78   S    
C77   N1    A    
C28   H8    S    
C35   C150  A    
C12   H157  S    
C81   N22   A    
C104  C119  A    
C2    C127  S    
C66   C67   S    
C56   H80   S    
C128  O5    A    
C121  C144  S    
C122  C143  S    
C27   H10   S    
C160  H139  S    
C57   C156  S    
C156  H133  S    
C84   O12   A    
C90   H57   S    
C53   H73   S    
C25   C26   S    
C84   C132  S    
C142  N5    A    
C45   H45   S    
C23   H4    S    
C100  H110  S    
Cu3   O8    S    
C63   H95   S    
C16   H167  S    
Cu2   O9    S    
C62   H84   S    
C31   C32   S    
N4    N28   A    
C51   H62   S    
C17   C18   S    
C147  N19   A    
C37   H34   S    
C29   H7    S    
C41   H40   S    
C53   H72   S    
N24   N27   A    
C5    H145  S    
C45   H44   S    
C1    O1    A    
C30   C105  S    
C42   H38   S    
C73   O10   A    
C54   H70   S    
C69   H97   S    
C64   H93   S    
C94   H101  S    
C40   H41   S    
C83   C101  A    
C120  C141  S    
C158  H129  S    
C18   H176  S    
C14   H172  S    
C6    H143  S    
C19   H174  S    
C47   H56   S    
C107  C122  A    
C44   H47   S    
Cu4   O5    S    
C59   H76   S    
C90   C108  A    
C90   C135  A    
C92   C110  A    
C98   C115  A    
C91   C134  A    
C127  N27   A    
C94   C112  A    
C56   C58   S    
C154  H122  S    
C34   C36   S    
C61   C62   S    
C12   H159  S    
C18   H177  S    
C10   C11   S    
C63   C64   S    
C24   C130  S    
C145  N15   A    
C61   H85   S    
C14   C15   S    
C97   C114  A    
C43   H50   S    
C85   C102  A    
C9    H151  S    
C10   C72   S    
C89   C135  A    
C41   C42   S    
C25   H192  S    
C103  C120  A    
C4    C70   S    
Cu1   Cu2   S    
C78   H127  S    
C96   C136  A    
C48   H54   S    
C129  N26   A    
C137  C139  S    
C115  C126  A    
N11   N18   A    
Cu3   O6    S    
C28   C29   S    
C151  H114  S    
C128  C136  S    
C30   C31   S    
C92   H79   S    
C62   H82   S    
C18   C19   S    
C83   H182  S    
C17   H179  S    
C153  H125  S    
C60   H87   S    
C151  C152  S    
C106  O16   A    
C118  C125  A    
Cu4   O2    S    
C72   C81   A    
C141  N7    A    
C92   C136  A    
C74   C82   A    
C14   H170  S    
C68   C78   A    
C7    H156  S    
Cu4   O7    S    
C57   C77   A    
C59   H74   S    
C95   O14   A    
C27   H11   S    
C75   N1    A    
C67   H102  S    
C97   H107  S    
C98   H108  S    
C58   C59   S    
C127  N25   A    
C86   H13   S    
C8    H154  S    
C33   H26   S    
C80   H149  S    
C55   H67   S    
C86   C133  A    
C159  C160  S    
C113  C123  A    
C123  C146  S    
C89   C107  A    
C142  N8    A    
C50   C51   S    
C13   C131  S    
C11   H162  S    
C106  O4    A    
C143  N10   A    
C89   H46   S    
C100  C138  A    
C159  H141  S    
C16   H166  S    
C63   C116  S    
Cu2   O12   S    
C48   C49   S    
C51   H63   S    
C96   C113  A    
C117  C140  S    
C100  C118  A    
C66   H104  S    
C44   C45   S    
C56   H81   S    
C152  H111  S    
Cu4   N22   S    
C22   H183  S    
C69   H98   S    
C64   C65   S    
C157  H131  S    
C83   C132  A    
Cu1   N12   S    
C10   H163  S    
C39   H28   S    
C146  N17   A    
C148  N21   A    
C19   H175  S    
Cu4   O4    S    
C26   H188  S    
C3    H136  S    
C88   C134  A    
C87   C104  A    
C52   H59   S    
C119  C142  S    
C60   C61   S    
C35   C149  S    
C12   H158  S    
N9    N20   A    
C85   C133  A    
C88   C105  A    
C27   C104  S    
Cu3   Cu4   S    
C33   C107  S    
Cu3   O16   S    
C46   C76   A    
C67   H100  S    
C99   H109  S    
C2    C46   A    
C81   H160  S    
C32   H12   S    
C49   H52   S    
C35   C75   A    
C85   H2    S    
C156  C157  S    
N10   N21   A    
C7    C71   S    
C106  C138  S    
C20   C102  S    
C96   H106  S    
C15   C16   S    
C65   H92   S    
C139  O6    A    
C155  H120  S    
C17   C101  S    
C20   H186  S    
Cu1   O13   S    
N13   N19   A    
C38   H32   S    
C8    C9    S    
C149  H118  S    
C32   H15   S    
C36   H20   S    
C37   H33   S    
C29   H6    S    
C41   H39   S    
C68   C159  S    
C146  N14   A    
C148  N18   A    
C45   H43   S    
C116  C126  A    
C34   H23   S    
C21   H185  S    
C54   H71   S    
C55   H69   S    
C86   C103  A    
C71   C80   A    
C22   H181  S    
C64   H94   S    
C79   H138  S    
C117  O3    A    
C39   H30   S    
C40   H42   S    
C156  H132  S    
C26   H189  S    
C101  C119  A    
C8    H153  S    
C114  C125  A    
C6    H144  S    
C19   H173  S    
C98   C140  A    
C44   H48   S    
C80   N23   A    
C10   H164  S    
C87   C132  A    
C58   H77   S    
C59   H75   S    
C3    H134  S    
C5    H146  S    
C47   C48   S    
C57   C150  A    
C153  H124  S    
C50   C112  S    
C33   C34   S    
C105  C121  A    
C154  H123  S    
C40   C41   S    
C47   H58   S    
C93   C111  A    
C128  O8    A    
N6    N17   A    
C3    C160  S    
C99   C140  A    
C1    C134  S    
C43   H49   S    
C143  N11   A    
C97   C138  A    
C9    H150  S    
C25   H191  S    
C34   H25   S    
C108  C122  A    
C42   H37   S    
C11   C12   S    
C87   H24   S    
C151  H115  S    
C124  C145  S    
C1    O11   A    
C130  N4    A    
C91   H68   S    
C91   C109  A    
C42   H36   S    
C129  C150  S    
C63   H96   S    
Cu1   O15   S    
C24   C74   A    
C62   H83   S    
C147  N20   A    
C36   H22   S    
C23   C25   S    
N2    N3    A    
C93   C137  A    
C17   H178  S    
Cu2   N1    S    
C52   H61   S    
C66   C118  S    
C131  N3    A    
C27   C28   S    
C60   H88   S    
C56   C114  S    
C60   C115  S    
C153  C154  S    
C24   C71   A    
C141  N6    A    
