data_mof_unit_31469.cif
_audit_creation_date              2012-12-10T19:01:20-0500
_audit_creation_method            fapswitch 2.2
_symmetry_space_group_name_H-M    P1
_symmetry_Int_Tables_number       1
_space_group_crystal_system       triclinic
_cell_length_a                    9.548288
_cell_length_b                    10.842018
_cell_length_c                    15.513354
_cell_angle_alpha                 90.019623
_cell_angle_beta                  73.910047
_cell_angle_gamma                 90.486271
_cell_volume                      1543.01550783

loop_
_atom_site_label
_atom_site_type_symbol
_atom_type_description
_atom_site_fract_x
_atom_site_fract_y
_atom_site_fract_z
_atom_type_partial_charge
C1    C     C_R   0.000086 0.262479 0.498615 0.809497
C2    C     C_R   0.666312 0.549189 0.902981 0.090822
C3    C     C_R   0.765363 0.593659 0.949160 0.163836
C4    C     C_R   0.514007 0.544211 0.947405 -0.059201
C5    C     C_R   0.467210 0.561294 0.042060 0.012498
C6    C     C_R   0.569857 0.604973 0.085913 -0.196187
C7    C     C_R   0.715244 0.623507 0.039618 -0.233183
C8    C     C_R   0.405881 0.526896 0.900766 0.402867
C9    C     C_R   0.262527 0.499526 0.947887 -0.311940
C10   C     C_R   0.218823 0.500501 0.041118 0.086697
C11   C     C_R   0.319306 0.534648 0.089308 0.089557
C12   C     C_R   0.917721 0.503135 0.672069 0.791586
C13   C     C_R   0.074047 0.470196 0.086711 -0.179345
C14   C     C_R   0.028284 0.470451 0.180079 -0.191538
C15   C     C_R   0.269077 0.536231 0.183485 -0.228854
C16   C     C_R   0.126438 0.065598 0.496102 0.054432
C17   C     C_R   0.003001 0.129564 0.491217 -0.094963
C18   C     C_R   0.884635 0.063225 0.476710 -0.215402
C19   C     C_R   0.884900 0.934549 0.478085 -0.208241
C20   C     C_R   0.003403 0.871104 0.494155 -0.137589
C21   C     C_R   0.127252 0.938445 0.497712 0.110098
C22   C     C_3   0.216502 0.939350 0.564102 0.293679
C23   C     C_R   0.000474 0.737733 0.499929 0.798516
C24   C     C_3   0.215133 0.079733 0.560982 -0.445617
C25   C     C_R   0.595627 0.588447 0.453946 0.256554
C26   C     C_R   0.549991 0.420492 0.552506 -0.052814
C27   C     C_R   0.400972 0.420806 0.552762 -0.072314
C28   C     C_R   0.448863 0.586996 0.452840 0.248311
C29   C     C_3   0.490348 0.607192 0.354091 -0.515042
C30   C     C_3   0.648001 0.612628 0.355780 -0.496912
C31   C     C_R   0.082038 0.500401 0.327722 0.799418
C32   C     C_R   0.871177 0.523585 0.769291 -0.078942
C33   C     C_R   0.126231 0.502533 0.229019 -0.054929
C34   C     C_R   0.914178 0.606698 0.904416 -0.222097
C35   C     C_R   0.966519 0.573783 0.814424 -0.200501
C36   C     C_R   0.724181 0.506125 0.815021 -0.204984
Cu1   Cu    Cu3+1 0.140670 0.499980 0.500000 0.934685
Cu2   Cu    Cu3+1 0.859330 0.500020 0.500000 0.934500
H1    H     H_    0.789823 0.658081 0.075655 0.146985
H2    H     H_    0.996620 0.444694 0.050091 0.144330
H3    H     H_    0.789739 0.110154 0.468051 0.164598
H4    H     H_    0.790214 0.885379 0.469846 0.166854
H5    H     H_    0.153435 0.123969 0.624778 0.175208
H6    H     H_    0.323169 0.122769 0.528893 0.186806
H7    H     H_    0.586604 0.354590 0.593715 0.145047
H8    H     H_    0.325765 0.355403 0.594350 0.142798
H9    H     H_    0.467707 0.524258 0.318100 0.212526
H10   H     H_    0.339264 0.561902 0.223440 0.136107
H11   H     H_    0.449582 0.696158 0.335366 0.200690
H12   H     H_    0.713353 0.535945 0.317945 0.213727
H13   H     H_    0.698151 0.705857 0.340677 0.194721
H14   H     H_    0.917220 0.443620 0.213766 0.144140
H15   H     H_    0.184218 0.480251 0.910622 0.169836
H16   H     H_    0.989573 0.644038 0.938794 0.138501
H17   H     H_    0.080560 0.589236 0.779985 0.165608
H18   H     H_    0.657292 0.456138 0.780980 0.205423
H19   H     H_    0.541197 0.629289 0.155800 0.146106
N1    N     N_R   0.648210 0.500930 0.499430 -0.194776
N2    N     N_R   0.352300 0.500890 0.499430 -0.193005
O1    O     O_R   0.118810 0.319640 0.500000 -0.576492
O2    O     O_R   0.881230 0.319680 0.499990 -0.589449
O3    O     O_R   0.055580 0.499970 0.629840 -0.587892
O4    O     O_R   0.818000 0.500010 0.629830 -0.581834
O5    O     O_R   0.118770 0.680320 0.500010 -0.588246
O6    O     O_R   0.881190 0.680360 0.500000 -0.583827
O7    O     O_R   0.182000 0.499990 0.370170 -0.578277
O8    O     O_R   0.944420 0.500030 0.370160 -0.584567
N3    N     N_3   0.142374 0.888452 0.653018 -0.598100
H20   H     H_    0.134040 0.792705 0.647985 0.221614
H21   H     H_    0.035790 0.921826 0.674168 0.211017
N4    N     N_3   0.362508 0.889642 0.526519 -0.586350
H22   H     H_    0.356367 0.794065 0.533798 0.225480
H23   H     H_    0.429157 0.921815 0.565108 0.217822
O9    O     O_3   0.434622 0.544803 0.809327 -0.598647
C37   C     C_3   0.429332 0.672578 0.793037 0.067794
H24   H     H_    0.510337 0.724536 0.818982 0.148929
H25   H     H_    0.318126 0.709038 0.824677 0.146208
C38   C     C_3   0.465735 0.695047 0.692663 -0.783286
H26   H     H_    0.383121 0.649496 0.664922 0.242195
H27   H     H_    0.466025 0.795605 0.679784 0.197303
H28   H     H_    0.575371 0.658267 0.658937 0.269415

loop_
_geom_bond_atom_site_label_1
_geom_bond_atom_site_label_2
_ccdc_geom_bond_type
C8    C9    A    
C31   O7    A    
C30   H13   S    
C16   C21   A    
C19   C20   A    
C4    C8    A    
C14   C33   A    
Cu1   O3    S    
C29   H11   S    
C25   C28   A    
C31   O8    A    
C26   C27   A    
Cu1   Cu2   S    
C29   H9    S    
C32   C36   A    
C28   C29   S    
C5    C11   A    
C3    C7    A    
C5    C6    A    
C38   H27   S    
C34   C35   A    
C13   H2    S    
C26   H7    S    
Cu2   N1    S    
C11   C15   A    
C26   N1    A    
C14   H14   S    
C16   C17   A    
C31   C33   S    
C9    C10   A    
C19   H4    S    
Cu2   O2    S    
C30   H12   S    
C16   C24   S    
C13   C14   A    
C12   C32   S    
C6    H19   S    
C15   H10   S    
O9    C37   S    
C35   H17   S    
C32   C35   A    
C18   H3    S    
N4    H23   S    
C12   O4    A    
C38   H26   S    
C18   C19   A    
C3    C34   A    
C2    C4    A    
C37   H24   S    
C29   C30   S    
C36   H18   S    
C12   O3    A    
C20   C23   S    
Cu1   O7    S    
C8    O9    S    
C17   C18   A    
C20   C21   A    
C37   H25   S    
C22   N3    S    
Cu1   N2    S    
C27   H8    S    
C23   O5    A    
C34   H16   S    
C24   H6    S    
C22   C24   S    
C1    O1    A    
C9    H15   S    
C25   N1    A    
C22   N4    S    
Cu1   O5    S    
Cu2   O4    S    
C28   N2    A    
C2    C36   A    
C25   C30   S    
N3    H20   S    
C4    C5    A    
C10   C13   A    
C1    O2    A    
C6    C7    A    
C1    C17   S    
C23   O6    A    
C2    C3    A    
N4    H22   S    
C27   N2    A    
C38   H28   S    
C37   C38   S    
Cu1   O1    S    
C10   C11   A    
Cu2   O8    S    
N3    H21   S    
C24   H5    S    
C7    H1    S    
C21   C22   S    
Cu2   O6    S    
C15   C33   A    
