data_mof_unit_16531.cif
_audit_creation_date              2012-12-10T17:05:24-0500
_audit_creation_method            fapswitch 2.2
_symmetry_space_group_name_H-M    P1
_symmetry_Int_Tables_number       1
_space_group_crystal_system       triclinic
_cell_length_a                    10.058437
_cell_length_b                    10.714702
_cell_length_c                    15.534102
_cell_angle_alpha                 90.85634
_cell_angle_beta                  68.103933
_cell_angle_gamma                 90.853265
_cell_volume                      1553.13660468

loop_
_atom_site_label
_atom_site_type_symbol
_atom_type_description
_atom_site_fract_x
_atom_site_fract_y
_atom_site_fract_z
_atom_type_partial_charge
C1    C     C_R   0.499689 0.737225 0.502366 0.882623
C2    C     C_R   0.738843 0.499173 0.029420 -0.009709
C3    C     C_R   0.595822 0.462333 0.083091 0.014609
C4    C     C_R   0.410522 0.498818 0.675611 0.856244
C5    C     C_R   0.835558 0.533619 0.072728 0.503869
C6    C     C_R   0.788369 0.526291 0.170282 -0.336459
C7    C     C_R   0.551459 0.465135 0.179431 -0.224177
C8    C     C_2   0.615870 0.067740 0.491135 -0.321982
C9    C     C_2   0.510362 0.131514 0.479592 0.468440
C10   C     C_2   0.619668 0.933796 0.484132 -0.130485
C11   C     C_2   0.497262 0.868952 0.511354 -0.246263
C12   C     C_R   0.431994 0.447864 0.904777 0.103016
C13   C     C_2   0.103184 0.417409 0.453085 0.539938
C14   C     C_2   0.943926 0.409240 0.466924 -0.118673
C15   C     C_R   0.501669 0.262662 0.495972 0.822461
C16   C     C_R   0.589671 0.499547 0.324240 0.900609
C17   C     C_R   0.357735 0.478453 0.775194 -0.104349
C18   C     C_R   0.645703 0.496183 0.222959 -0.112351
C19   C     C_R   0.195228 0.377226 0.912821 -0.127322
C20   C     C_R   0.226908 0.417895 0.822388 -0.188676
C21   C     C_R   0.453884 0.500362 0.819081 -0.205819
C22   C     C_3   0.035296 0.659097 0.059455 0.076715
C23   C     C_R   0.296649 0.392601 0.954555 0.153897
C24   C     C_3   0.155674 0.728961 0.984315 -0.316962
C25   C     C_3   0.232644 0.820676 0.026427 -0.960527
C26   C     C_3   0.156988 0.248041 0.345112 0.048255
C27   C     C_3   0.095943 0.129504 0.401237 -0.321796
C28   C     C_3   0.027620 0.042933 0.350151 -0.966443
C29   C     C_3   0.839468 0.663428 0.590428 0.168155
C30   C     C_3   0.909637 0.788375 0.598121 -0.405562
C31   C     C_3   0.839929 0.845600 0.694959 -0.940505
C32   C     C_R   0.538874 0.454342 0.943719 -0.051712
C33   C     C_R   0.498241 0.431065 0.039431 0.030486
C34   C     C_R   0.361729 0.376595 0.088001 -0.191936
C35   C     C_R   0.264265 0.354831 0.045347 -0.239151
C36   C     C_R   0.685291 0.479555 0.890263 0.543406
C37   C     C_R   0.782671 0.501932 0.932912 -0.274664
F1    F     F_    0.416268 0.077764 0.445554 -0.683773
F2    F     F_    0.739403 0.471601 0.796286 -0.715126
H1    H     H_    0.161595 0.311741 0.084543 0.145112
H2    H     H_    0.092809 0.332183 0.949532 0.154092
H3    H     H_    0.151594 0.399222 0.788817 0.167243
H4    H     H_    0.546362 0.558852 0.784656 0.202707
H5    H     H_    0.328952 0.345390 0.158275 0.134247
H6    H     H_    0.081450 0.611058 0.104784 0.158246
H7    H     H_    0.954792 0.729116 0.100649 0.140364
H8    H     H_    0.234520 0.661257 0.939582 0.239956
H9    H     H_    0.110351 0.780689 0.940234 0.221622
H10   H     H_    0.156314 0.890653 0.070841 0.265514
H11   H     H_    0.318613 0.870326 0.970058 0.267611
H12   H     H_    0.699819 0.113642 0.508511 0.152806
H13   H     H_    0.282093 0.770092 0.068699 0.271613
H14   H     H_    0.251699 0.218684 0.284168 0.172631
H15   H     H_    0.083144 0.290204 0.315495 0.111492
H16   H     H_    0.183875 0.079205 0.412268 0.290832
H17   H     H_    0.015095 0.152684 0.470704 0.202938
H18   H     H_    0.935144 0.089276 0.341810 0.265666
H19   H     H_    0.988923 0.956270 0.390491 0.267662
H20   H     H_    0.107232 0.017324 0.280680 0.272919
H21   H     H_    0.848403 0.599043 0.643552 0.172511
H22   H     H_    0.724498 0.679046 0.606590 0.190443
H23   H     H_    0.723368 0.888611 0.459370 0.174409
H24   H     H_    0.025576 0.774596 0.582861 0.236924
H25   H     H_    0.899040 0.854024 0.546420 0.230465
H26   H     H_    0.724453 0.862669 0.710873 0.262114
H27   H     H_    0.893260 0.936022 0.698307 0.274254
H28   H     H_    0.851009 0.782308 0.747855 0.275597
H29   H     H_    0.392964 0.912302 0.542005 0.196207
H30   H     H_    0.074212 0.540365 0.555996 0.156496
H31   H     H_    0.901261 0.323179 0.450098 0.108154
H32   H     H_    0.441251 0.447509 0.222628 0.183461
H33   H     H_    0.860592 0.547138 0.205690 0.155449
H34   H     H_    0.892944 0.522599 0.889428 0.211184
N1    N     N_2   0.148330 0.498670 0.499030 -0.194035
N2    N     N_2   0.852680 0.498640 0.499000 0.065267
O1    O     O_R   0.386950 0.680940 0.500010 -0.609346
O2    O     O_3   0.206231 0.334577 0.396415 -0.601186
O3    O     O_3   0.908784 0.613437 0.500183 -0.586912
O4    O     O_R   0.613110 0.680900 0.499990 -0.615549
O5    O     O_R   0.322330 0.500030 0.632270 -0.624891
O6    O     O_R   0.548480 0.499990 0.632240 -0.614578
O7    O     O_R   0.386890 0.319100 0.500010 -0.534363
O8    O     O_R   0.613050 0.319060 0.499990 -0.664716
O9    O     O_R   0.451520 0.500010 0.367760 -0.575567
O10   O     O_R   0.677670 0.499970 0.367730 -0.609838
O11   O     O_3   0.974821 0.569236 0.016789 -0.667860
Zn1   Zn    Zn3+2 0.349000 0.500030 0.500020 1.004004
Zn2   Zn    Zn3+2 0.651000 0.499970 0.499980 0.978331

loop_
_geom_bond_atom_site_label_1
_geom_bond_atom_site_label_2
_ccdc_geom_bond_type
C31   H27   S    
C30   H25   S    
C19   C20   A    
C1    C11   S    
O9    Zn1   S    
C28   H18   S    
C6    H33   S    
C12   C23   A    
C26   C27   S    
C32   C36   A    
C36   C37   A    
C4    O5    A    
O5    Zn1   S    
C3    C7    A    
C7    H32   S    
C30   C31   S    
C27   H16   S    
C28   H20   S    
C3    C33   A    
O7    Zn1   S    
C16   O9    A    
C17   C20   A    
C34   C35   A    
C25   H11   S    
C21   H4    S    
C29   O3    S    
C8    C9    D    
N1    Zn1   S    
O8    Zn2   S    
C30   H24   S    
C12   C32   A    
C14   H31   S    
C10   H23   S    
C26   H15   S    
O4    Zn2   S    
C15   O7    A    
C13   O2    S    
C6    C18   A    
C29   H22   S    
C26   O2    S    
C4    O6    A    
C24   H9    S    
C34   H5    S    
C24   C25   S    
C27   H17   S    
C15   O8    A    
C12   C21   A    
C17   C21   A    
C19   C23   A    
C29   C30   S    
C8    H12   S    
C29   H21   S    
C7    C18   A    
C33   C34   A    
H30   N1    S    
O1    Zn1   S    
C5    O11   S    
C8    C10   S    
C22   H7    S    
C23   C35   A    
C16   O10   A    
C1    O4    A    
C22   C24   S    
C2    C5    A    
C4    C17   S    
C26   H14   S    
C11   H29   S    
O10   Zn2   S    
C31   H26   S    
C37   H34   S    
C24   H8    S    
C36   F2    S    
C20   H3    S    
C28   H19   S    
C32   C33   A    
C2    C3    A    
C9    C15   S    
C25   H13   S    
C14   N2    D    
C2    C37   A    
C5    C6    A    
C9    F1    S    
C1    O1    A    
C35   H1    S    
C22   O11   S    
N2    O3    S    
C25   H10   S    
O6    Zn2   S    
C10   C11   D    
C31   H28   S    
N2    Zn2   S    
C22   H6    S    
C13   N1    D    
C16   C18   S    
C27   C28   S    
C13   C14   S    
C19   H2    S    
