data_mof_unit_59893.cif
_audit_creation_date              2012-12-10T16:59:20-0500
_audit_creation_method            fapswitch 2.2
_symmetry_space_group_name_H-M    P1
_symmetry_Int_Tables_number       1
_space_group_crystal_system       triclinic
_cell_length_a                    8.15224
_cell_length_b                    8.61281
_cell_length_c                    27.566622
_cell_angle_alpha                 102.138041
_cell_angle_beta                  81.891141
_cell_angle_gamma                 92.085543
_cell_volume                      1873.31818744

loop_
_atom_site_label
_atom_site_type_symbol
_atom_type_description
_atom_site_fract_x
_atom_site_fract_y
_atom_site_fract_z
_atom_type_partial_charge
C1    C     C_R   0.542754 0.793177 0.499180 0.931535
C2    C     C_R   0.643425 0.560809 0.125257 -0.015053
C3    C     C_R   0.485758 0.515313 0.648121 -0.026716
C4    C     C_R   0.514241 0.484705 0.351882 -0.026663
C5    C     C_R   0.600596 0.607575 0.029583 0.078581
C6    C     C_R   0.399362 0.392493 0.970432 0.078581
C7    C     C_R   0.431264 0.363926 0.017000 0.023458
C8    C     C_R   0.568689 0.636145 0.983016 0.023458
C9    C     C_R   0.526324 0.474459 0.047097 0.069614
C10   C     C_R   0.473632 0.525610 0.952918 0.069616
C11   C     C_R   0.708930 0.705123 0.058740 -0.235052
C12   C     C_R   0.457246 0.206823 0.500819 0.931530
C13   C     C_R   0.291034 0.294942 0.941274 -0.235071
C14   C     C_R   0.729884 0.681696 0.105732 -0.187362
C15   C     C_R   0.270093 0.318358 0.894281 -0.187354
C16   C     C_R   0.495625 0.503295 0.593990 0.820831
C17   C     C_R   0.504374 0.496709 0.406010 0.820804
C18   C     C_R   0.622139 0.776161 0.966567 -0.264768
C19   C     C_R   0.377810 0.223911 0.033449 -0.264760
C20   C     C_2   0.565635 0.955869 0.498775 -0.382450
C21   C     C_2   0.434365 0.044130 0.501223 -0.382461
C22   C     C_R   0.556101 0.657514 0.832272 0.476736
C23   C     C_R   0.455407 0.546337 0.904390 -0.066307
C24   C     C_R   0.443856 0.342560 0.167743 0.476740
C25   C     C_R   0.354443 0.449267 0.824972 0.489042
C26   C     C_R   0.645558 0.550769 0.175038 0.489068
C27   C     C_R   0.613308 0.487098 0.719994 -0.110104
C28   C     C_R   0.386780 0.513236 0.280025 -0.110138
C29   C     C_R   0.621840 0.472593 0.668481 -0.222469
C30   C     C_R   0.378253 0.527730 0.331538 -0.222373
C31   C     C_R   0.341824 0.574153 0.680077 -0.224595
C32   C     C_R   0.658073 0.425577 0.319914 -0.224560
C33   C     C_R   0.334215 0.589859 0.731607 -0.102266
C34   C     C_R   0.544556 0.453728 0.095624 -0.066301
C35   C     C_R   0.665675 0.409892 0.268385 -0.102319
C36   C     C_R   0.469650 0.545937 0.751653 0.310804
C37   C     C_R   0.530337 0.454113 0.248355 0.310940
C38   C     C_R   0.993280 0.308503 0.448398 0.247554
C39   C     C_R   0.867067 0.220397 0.423442 -0.144871
C40   C     C_R   0.885984 0.066899 0.393976 -0.206032
C41   C     C_R   0.038591 0.994791 0.384161 -0.050988
C42   C     C_R   0.171992 0.081711 0.401128 -0.206900
C43   C     C_R   0.149425 0.235570 0.430378 -0.137567
C44   C     C_R   0.006723 0.691509 0.551597 0.247495
C45   C     C_R   0.541961 0.669324 0.884576 -0.081697
C46   C     C_R   0.132938 0.779623 0.576550 -0.144847
C47   C     C_R   0.114034 0.933154 0.605996 -0.205990
C48   C     C_R   0.961436 0.005280 0.615797 -0.051014
C49   C     C_R   0.828027 0.918342 0.598842 -0.206853
C50   C     C_R   0.850582 0.764451 0.569612 -0.137609
C51   C     C_R   0.668796 0.950316 0.904405 0.167164
C52   C     C_R   0.581171 0.021754 0.874378 -0.054916
C53   C     C_R   0.639004 0.162559 0.860222 -0.096512
C54   C     C_R   0.770985 0.245333 0.881027 -0.095800
C55   C     C_R   0.850479 0.182933 0.914142 -0.150637
C56   C     C_R   0.457994 0.330747 0.115439 -0.081710
C57   C     C_R   0.804897 0.033784 0.924172 -0.168293
C58   C     C_R   0.331160 0.049756 0.095613 0.167165
C59   C     C_R   0.195068 0.966275 0.075845 -0.168293
C60   C     C_R   0.149497 0.817124 0.085874 -0.150644
C61   C     C_R   0.228997 0.754731 0.118991 -0.095774
C62   C     C_R   0.360970 0.837516 0.139797 -0.096540
C63   C     C_R   0.418787 0.978328 0.125642 -0.054944
C64   C     C_R   0.613790 0.794381 0.917572 0.033015
C65   C     C_R   0.386159 0.205692 0.082445 0.033022
C66   C     C_R   0.356554 0.439245 0.874755 -0.015040
H1    H     H_    0.282627 0.549432 0.264682 0.149608
H2    H     H_    0.295282 0.032047 0.390293 0.138682
H3    H     H_    0.261812 0.288021 0.433529 0.204731
H4    H     H_    0.250512 0.736544 0.576126 0.204108
H5    H     H_    0.218443 0.994664 0.621976 0.150141
H6    H     H_    0.944911 0.123632 0.638743 0.139264
H7    H     H_    0.704740 0.968017 0.609672 0.138704
H8    H     H_    0.738192 0.711981 0.566474 0.204720
H9    H     H_    0.222710 0.634909 0.756014 0.155353
H10   H     H_    0.777096 0.364618 0.243967 0.155289
H11   H     H_    0.470560 0.966671 0.860628 0.127812
H12   H     H_    0.717541 0.451128 0.735347 0.149709
H13   H     H_    0.579153 0.208988 0.833798 0.143154
H14   H     H_    0.810524 0.358302 0.871862 0.148816
H15   H     H_    0.948244 0.249632 0.931847 0.140704
H16   H     H_    0.875702 0.984910 0.947752 0.118036
H17   H     H_    0.124260 0.015141 0.052263 0.118035
H18   H     H_    0.051738 0.750416 0.068168 0.140706
H19   H     H_    0.189469 0.641759 0.128155 0.148833
H20   H     H_    0.420829 0.791090 0.166220 0.143125
H21   H     H_    0.529394 0.033420 0.139393 0.127786
H22   H     H_    0.266045 0.573879 0.355375 0.165671
H23   H     H_    0.779693 0.800939 0.046221 0.133441
H24   H     H_    0.734132 0.426680 0.644655 0.165708
H25   H     H_    0.807365 0.764397 0.127881 0.192900
H26   H     H_    0.192619 0.235650 0.872131 0.192912
H27   H     H_    0.664914 0.876136 0.992389 0.140394
H28   H     H_    0.335035 0.123934 0.007628 0.140391
H29   H     H_    0.691608 0.002748 0.496449 0.205852
H30   H     H_    0.308392 0.997250 0.503549 0.205853
H31   H     H_    0.220269 0.199126 0.953794 0.133442
H32   H     H_    0.235786 0.609382 0.665381 0.166086
H33   H     H_    0.764026 0.390099 0.334600 0.166052
H34   H     H_    0.749480 0.263456 0.423877 0.204105
H35   H     H_    0.781577 0.005399 0.377992 0.150134
H36   H     H_    0.055128 0.876465 0.361200 0.139261
N1    N     N_R   0.458056 0.553127 0.804318 -0.350703
N2    N     N_R   0.541928 0.446925 0.195693 -0.350730
N3    N     N_2   0.950320 0.457960 0.486880 -0.111925
N4    N     N_2   0.049680 0.542040 0.513120 -0.111931
O1    O     O_R   0.389250 0.738570 0.503220 -0.632110
O2    O     O_2   0.328732 0.256474 0.190925 -0.560105
O3    O     O_2   0.743414 0.649913 0.203427 -0.571340
O4    O     O_2   0.256626 0.350083 0.796580 -0.571385
O5    O     O_R   0.610750 0.261430 0.496780 -0.632112
O6    O     O_R   0.678390 0.711630 0.494810 -0.633781
O7    O     O_R   0.321610 0.288370 0.505190 -0.633805
O8    O     O_R   0.355440 0.513440 0.575450 -0.647430
O9    O     O_R   0.644560 0.486560 0.424550 -0.647394
O10   O     O_R   0.644590 0.486500 0.567040 -0.642565
O11   O     O_R   0.355410 0.513500 0.432960 -0.642546
O12   O     O_2   0.671203 0.743631 0.809094 -0.560170
Zn1   Zn    Zn3+2 0.306940 0.517990 0.505620 0.908178
Zn2   Zn    Zn3+2 0.693060 0.482010 0.494380 0.908195

loop_
_geom_bond_atom_site_label_1
_geom_bond_atom_site_label_2
_ccdc_geom_bond_type
C34   C56   A    
C23   C45   A    
N4    Zn1   S    
C27   C29   A    
C41   C42   A    
C54   C55   A    
C27   H12   S    
C53   C54   A    
C62   H20   S    
C36   N1    S    
C23   C66   A    
C35   C37   A    
C59   H17   S    
C5    C11   A    
C50   H8    S    
C1    O6    A    
C38   C39   A    
C11   C14   A    
C56   C65   A    
C33   C36   A    
C41   H36   S    
C53   H13   S    
C22   O12   S    
C31   H32   S    
C3    C29   A    
C26   N2    A    
C40   H35   S    
O7    Zn1   S    
C33   H9    S    
C31   C33   A    
N3    Zn2   S    
C51   C57   A    
C55   H15   S    
O8    Zn1   S    
C17   O11   A    
C2    C34   A    
C15   H26   S    
C59   C60   A    
C43   H3    S    
C42   H2    S    
C48   H6    S    
C16   O10   A    
O1    Zn1   S    
C29   H24   S    
C44   C46   A    
C54   H14   S    
C35   H10   S    
C25   C66   A    
C51   C52   A    
C32   C35   A    
C28   H1    S    
C39   C40   A    
O6    Zn2   S    
C25   N1    A    
C58   C59   A    
C15   C66   A    
C12   C21   S    
C8    C18   A    
C22   N1    A    
O10   Zn2   S    
O5    Zn2   S    
C24   N2    A    
C5    C9    A    
C62   C63   A    
C5    C8    A    
C11   H23   S    
C58   C65   S    
C47   C48   A    
C13   C15   A    
C2    C26   A    
C3    C31   A    
C26   O3    S    
C47   H5    S    
C4    C32   A    
C19   H28   S    
C61   H19   S    
C25   O4    S    
C1    O1    A    
C24   O2    S    
C4    C17   S    
C48   C49   A    
C20   H29   S    
C49   C50   A    
C7    C19   A    
C55   C57   A    
C9    C34   A    
C10   C23   A    
C49   H7    S    
C42   C43   A    
C30   H22   S    
C52   H11   S    
C52   C53   A    
C17   O9    A    
C12   O7    A    
C44   C50   A    
C58   C63   A    
C7    C9    A    
C46   C47   A    
C40   C41   A    
C1    C20   S    
C63   H21   S    
C51   C64   S    
C16   O8    A    
C6    C10   A    
C37   N2    S    
C6    C7    A    
C21   H30   S    
C44   N4    S    
C27   C36   A    
C24   C56   A    
N3    N4    D    
C45   C64   A    
C32   H33   S    
C38   N3    S    
O11   Zn1   S    
C38   C43   A    
C6    C13   A    
C60   H18   S    
C18   C64   A    
C39   H34   S    
C28   C37   A    
C28   C30   A    
C19   C65   A    
C13   H31   S    
C61   C62   A    
C2    C14   A    
C14   H25   S    
C46   H4    S    
C22   C45   A    
C20   C21   D    
C8    C10   A    
O9    Zn2   S    
C18   H27   S    
C57   H16   S    
C60   C61   A    
C12   O5    A    
C4    C30   A    
C3    C16   S    
