data_mof_unit_67023.cif
_audit_creation_date              2013-03-05T15:58:14-0500
_audit_creation_method            fapswitch 2.2
_symmetry_space_group_name_H-M    P1
_symmetry_Int_Tables_number       1
_space_group_crystal_system       triclinic
_cell_length_a                    8.217222
_cell_length_b                    12.69314
_cell_length_c                    14.373476
_cell_angle_alpha                 92.541785
_cell_angle_beta                  90.868893
_cell_angle_gamma                 98.443311
_cell_volume                      1481.1231083

loop_
_atom_site_label
_atom_site_type_symbol
_atom_site_description
_atom_site_fract_x
_atom_site_fract_y
_atom_site_fract_z
_atom_type_partial_charge
P1    P     P_3+3 0.054400 0.427280 0.286870 0.475318
O1    O     O_2   0.887370 0.460630 0.272300 -0.358109
O2    O     O_3   0.129410 0.451380 0.388510 -0.416090
O3    O     O_3   0.670210 0.653170 0.329170 -0.386485
O4    O     O_2   0.792666 0.594525 0.167762 -0.335006
O5    O     O_3   0.009897 0.289177 0.265764 -0.532665
O6    O     O_3   0.714240 0.785156 0.174667 -0.514295
H1    H     H_    0.728393 0.884978 0.292431 0.135701
C1    C     C_3   0.604811 0.948707 0.178739 -0.947233
H2    H     H_    0.545333 0.004486 0.223973 0.238418
H3    H     H_    0.720469 0.991494 0.151213 0.287715
P2    P     P_3+3 0.668300 0.742890 0.573060 0.442966
P3    P     P_3+3 0.135657 0.843641 0.383012 0.453176
O7    O     O_2   0.845380 0.761330 0.544970 -0.352553
O8    O     O_3   0.088930 0.704860 0.376040 -0.382107
O9    O     O_2   0.012721 0.888800 0.448199 -0.372262
O10   O     O_3   0.687471 0.764656 0.694425 -0.591202
O11   O     O_3   0.095535 0.894349 0.275911 -0.564911
C2    C     C_3   0.133806 0.822563 0.205939 0.261078
H4    H     H_    0.040818 0.749508 0.203764 0.178896
H5    H     H_    0.258176 0.800237 0.216784 0.017777
C3    C     C_3   0.130740 0.875169 0.113451 -0.085263
H6    H     H_    0.011202 0.904558 0.103618 0.152948
C4    C     C_3   0.253972 0.758965 0.656034 0.391255
H7    H     H_    0.385414 0.755037 0.666414 0.104907
H8    H     H_    0.210188 0.720850 0.587431 0.127139
C5    C     C_3   0.230436 0.875509 0.654794 -0.937968
H9    H     H_    0.245075 0.913270 0.725190 0.276771
H10   H     H_    0.323065 0.920860 0.611553 0.225284
H11   H     H_    0.106358 0.882127 0.627194 0.279194
Ba1   Ba    Ba6+2 0.855630 0.555280 0.454520 1.562714
C6    C     C_3   0.967900 0.240021 0.348992 0.407747
H12   H     H_    0.859691 0.270305 0.378786 0.093014
H13   H     H_    0.071245 0.254796 0.400232 0.136322
C7    C     C_3   0.927917 0.120611 0.328332 -0.911987
H14   H     H_    0.811840 0.103077 0.286786 0.263232
H15   H     H_    0.913318 0.077818 0.393802 0.236945
H16   H     H_    0.028875 0.091818 0.288653 0.283510
C8    C     C_3   0.692609 0.669671 0.740221 0.388998
H17   H     H_    0.822623 0.661353 0.754442 0.087452
H18   H     H_    0.632175 0.596549 0.701574 0.141921
C9    C     C_3   0.604341 0.677241 0.831878 -0.943203
H19   H     H_    0.665488 0.743005 0.878739 0.256608
H20   H     H_    0.598638 0.601091 0.867514 0.225681
H21   H     H_    0.478917 0.695249 0.817803 0.280157
P4    P     P_3+3 0.135310 0.572810 0.713130 0.467837
O12   O     O_2   0.302330 0.539400 0.727760 -0.389295
O13   O     O_3   0.060300 0.548700 0.611500 -0.391540
O14   O     O_3   0.519500 0.346920 0.670840 -0.385798
O15   O     O_3   0.170194 0.711589 0.731289 -0.569881
P5    P     P_3+3 0.060647 0.156443 0.627485 0.459622
O16   O     O_3   0.614310 0.373510 0.452640 -0.386070
O17   O     O_3   0.100780 0.295230 0.623970 -0.369669
O18   O     O_2   0.186301 0.112575 0.563061 -0.375063
O19   O     O_3   0.115757 0.119888 0.738181 -0.502232
Ba2   Ba    Ba6+2 0.334200 0.444810 0.545490 1.553513
P6    P     P_3+3 0.656539 0.654199 0.207650 0.500248
C10   C     C_3   0.641366 0.855155 0.233959 0.402082
H22   H     H_    0.523909 0.817883 0.263614 0.033057
H23   H     H_    0.520565 0.919388 0.119117 0.284680
O20   O     O_3   0.575400 0.626570 0.547370 -0.409493
C11   C     C_3   0.459303 0.295915 0.260735 0.356859
H24   H     H_    0.372323 0.336202 0.303110 0.094678
H25   H     H_    0.563887 0.356279 0.241707 0.143013
C12   C     C_3   0.367444 0.247575 0.173139 -0.734885
H26   H     H_    0.254728 0.194413 0.192391 0.254667
H27   H     H_    0.333278 0.311508 0.129901 0.246114
H28   H     H_    0.445384 0.198800 0.132631 0.289783
P7    P     P_3+3 0.528011 0.240930 0.426042 0.423105
O21   O     O_2   0.344320 0.238700 0.455090 -0.381594
O22   O     O_3   0.520552 0.213685 0.305895 -0.583695
H29   H     H_    0.230533 0.944503 0.112840 0.137862
C13   C     C_3   0.043194 0.179865 0.806407 0.130841
H30   H     H_    0.085776 0.266648 0.800839 0.091716
H31   H     H_    0.907513 0.165320 0.797798 0.026210
C14   C     C_3   0.094422 0.147445 0.903760 0.527397
H32   H     H_    0.217974 0.193606 0.919643 0.139210
P8    P     P_3+3 0.531736 0.343244 0.791243 0.507680
C15   C     C_3   0.530175 0.142117 0.754992 0.515261
H33   H     H_    0.657550 0.172768 0.734715 -0.001300
O23   O     O_2   0.397228 0.404117 0.831526 -0.392109
O24   O     O_3   0.467134 0.211375 0.819220 -0.469532
H34   H     H_    0.449550 0.129413 0.691553 0.128047
H35   H     H_    0.621436 0.045880 0.858442 0.286398
C16   C     C_3   0.532147 0.035958 0.799504 -0.938149
H36   H     H_    0.566177 0.975840 0.747717 0.216218
H37   H     H_    0.410279 0.007714 0.828510 0.303194
C17   C     C_R   0.984329 0.444948 0.061588 0.072300
C18   C     C_R   0.183118 0.496519 0.195141 0.234198
C19   C     C_R   0.338279 0.547666 0.224891 -0.523030
C20   C     C_R   0.450949 0.594947 0.162378 0.275445
C21   C     C_R   0.406738 0.596568 0.068063 -0.146748
C22   C     C_R   0.250548 0.547112 0.034812 0.093443
C23   C     C_R   0.137740 0.495154 0.097918 -0.054256
H38   H     H_    0.374110 0.547832 0.297668 0.175495
C24   C     C_R   0.052260 0.500582 0.902686 -0.055576
C25   C     C_R   0.938295 0.449039 0.966174 -0.101142
C26   C     C_R   0.007093 0.500178 0.805233 0.261453
C27   C     C_R   0.853700 0.445686 0.775348 -0.559546
C28   C     C_R   0.738777 0.399787 0.837932 0.093326
C29   C     C_R   0.779204 0.401925 0.933512 0.271560
C30   C     C_R   0.206651 0.549764 0.939303 0.037014
H39   H     H_    0.494822 0.635810 0.020932 0.156781
H40   H     H_    0.819489 0.443908 0.702241 0.188870
H41   H     H_    0.900512 0.400554 0.107529 0.199827
H42   H     H_    0.293364 0.591991 0.894269 0.146844
C31   C     C_R   0.760829 0.177209 0.543628 -0.510153
C32   C     C_R   0.436479 0.813533 0.460338 -0.522567
C33   C     C_R   0.408006 0.995364 0.432310 -0.209073
C34   C     C_R   0.345920 0.887672 0.425644 0.225931
C35   C     C_R   0.580119 0.846771 0.513069 0.285338
C36   C     C_R   0.642393 0.957438 0.525330 -0.062167
C37   C     C_R   0.556182 0.032110 0.481860 -0.071783
C38   C     C_R   0.617739 0.141855 0.491264 0.274448
C39   C     C_R   0.850515 0.105149 0.583172 0.207025
C40   C     C_R   0.788626 0.996113 0.577489 -0.208082
H43   H     H_    0.334817 0.049105 0.401439 0.196398
H44   H     H_    0.858070 0.943099 0.611875 0.176369
H45   H     H_    0.808907 0.261398 0.548082 0.169483
H46   H     H_    0.387398 0.729624 0.452861 0.174797
N1    N     N_R   0.985209 0.176378 0.977296 0.181053
O25   O     O_R   0.827375 0.146077 0.970741 -0.434944
O26   O     O_R   0.048037 0.220659 0.055456 -0.436205
O27   O     O_3   0.115396 0.038531 0.905283 -0.623207
C41   C     C_3   0.965535 0.967987 0.893800 0.315119
H47   H     H_    0.874053 0.997688 0.848267 0.091415
H48   H     H_    0.910494 0.953379 0.962907 0.139843
C42   C     C_3   0.999685 0.863334 0.849082 -0.724234
H49   H     H_    0.130647 0.854425 0.858671 0.312418
H50   H     H_    0.926120 0.795573 0.881170 0.233266
H51   H     H_    0.967782 0.859752 0.773761 0.237225
N2    N     N_R   0.656366 0.361086 0.997778 0.241032
O28   O     O_R   0.584206 0.263007 0.989095 -0.333474
O29   O     O_R   0.612992 0.423065 0.064185 -0.465583
N3    N     N_R   0.151824 0.797927 0.038800 0.227306
O30   O     O_R   0.290058 0.804142 0.995007 -0.442642
O31   O     O_R   0.035184 0.718667 0.019691 -0.431102

loop_
_geom_bond_atom_site_label_1
_geom_bond_atom_site_label_2
_geom_bond_distance
_ccdc_geom_bond_type
O5    C6    1.398202 S    
C22   C23   1.419870 A    
C17   H41   1.077387 S    
C24   C30   1.412184 A    
C5    H10   1.102016 S    
C13   H30   1.112537 S    
C32   H46   1.082119 S    
C35   C36   1.424901 A    
C4    C5    1.520625 S    
C15   C16   1.519175 S    
Ba1   O16   2.811679 S    
C42   H49   1.105664 S    
C33   H43   1.078477 S    
N3    O30   1.300951 A    
C8    H18   1.107791 S    
C16   H36   1.110475 S    
P3    C34   1.824001 S    
P3    O11   1.739993 S    
C14   N1    1.465792 S    
C7    H15   1.106611 S    
C4    H8    1.109799 S    
O11   C2    1.397537 S    
C39   C40   1.401001 A    
P1    Ba1   3.415500 S    
O14   P8    1.735103 S    
N3    O31   1.300216 A    
C1    C10   1.520321 S    
O10   C8    1.404704 S    
C31   H45   1.082270 S    
C18   C23   1.439546 A    
P7    O22   1.744487 S    
Ba1   O20   2.915547 S    
C21   C22   1.409937 A    
C11   H25   1.110310 S    
O16   P7    1.750802 S    
C21   H39   1.081593 S    
H1    C10   1.111351 S    
C2    H4    1.110561 S    
C40   H44   1.075381 S    
N2    O28   1.297777 A    
C12   H27   1.109033 S    
C24   C26   1.443225 A    
P2    O10   1.755084 S    
C41   C42   1.515145 S    
Ba1   Ba2   4.557034 S    
C1    H2    1.110545 S    
O7    Ba1   2.881694 S    
O6    C10   1.406731 S    
O19   C13   1.407687 S    
C17   C25   1.422297 A    
C33   C37   1.408827 A    
C27   H40   1.082026 S    
P4    C26   1.891522 S    
C5    H11   1.104450 S    
C13   H31   1.107154 S    
C9    H20   1.109136 S    
C3    H29   1.111755 S    
C36   C37   1.423688 A    
C8    C9    1.519591 S    
C17   C23   1.408034 A    
C14   H32   1.110222 S    
C16   H37   1.107104 S    
C4    O15   1.401532 S    
P4    O13   1.576416 S    
P7    C38   1.832987 S    
P1    O5    1.749245 S    
C14   O27   1.419130 S    
C6    C7    1.517999 S    
C19   H38   1.082223 S    
C2    C3    1.515386 S    
C4    H7    1.096781 S    
C20   C21   1.399964 A    
C10   H22   1.110553 S    
P5    C39   1.846842 S    
O1    Ba1   2.864422 S    
P1    O2    1.576535 S    
C9    H21   1.105597 S    
C6    H13   1.104885 S    
O3    P6    1.749329 S    
C31   C38   1.392355 A    
C11   H24   1.111862 S    
O2    Ba2   2.805822 S    
P8    O24   1.746552 S    
C27   C28   1.396819 A    
C12   H28   1.108266 S    
C24   C25   1.427132 A    
C7    H16   1.109939 S    
H35   C16   1.102906 S    
O2    Ba1   2.919883 S    
C1    H3    1.110687 S    
C31   C39   1.390731 A    
N1    O25   1.298263 A    
P2    O7    1.503768 D    
C12   H26   1.109315 S    
Ba2   O21   2.881896 S    
Ba1   O13   2.805258 S    
P3    O8    1.745035 S    
P2    Ba1   3.426312 S    
P8    C28   1.850395 S    
C41   H47   1.107125 S    
C13   C14   1.545524 S    
C9    H19   1.104373 S    
C42   H51   1.107428 S    
C36   C40   1.419069 A    
C37   C38   1.410291 A    
O17   Ba2   2.782518 S    
O13   Ba2   2.920644 S    
P4    O12   1.509214 D    
P1    C18   1.871253 S    
P6    C20   1.842065 S    
C11   C12   1.515953 S    
C2    H5    1.110490 S    
C3    H6    1.109985 S    
C42   H50   1.099490 S    
C22   C30   1.417202 A    
C15   O24   1.403456 S    
O8    Ba1   2.781931 S    
O14   Ba2   2.789171 S    
P4    O15   1.749856 S    
C32   C35   1.394230 A    
O4    P6    1.543834 D    
C3    N3    1.450799 S    
C1    H23   1.109147 S    
C6    H12   1.104133 S    
P5    O18   1.544574 D    
C33   C34   1.385681 A    
C15   H34   1.110699 S    
P2    O20   1.584663 S    
P8    O23   1.544157 D    
C19   C20   1.390896 A    
P1    O1    1.508854 D    
C28   C29   1.406645 A    
C32   C34   1.387090 A    
C11   O22   1.403039 S    
C30   H42   1.070791 S    
P5    O19   1.748505 S    
P7    O21   1.568795 D    
N1    O26   1.298355 A    
O3    Ba1   2.789765 S    
C15   H33   1.109751 S    
C8    H17   1.105775 S    
C29   N2    1.434547 S    
N2    O29   1.297331 A    
C26   C27   1.397461 A    
P3    O9    1.542105 D    
P4    Ba2   3.415952 S    
C5    H9    1.097440 S    
C41   H48   1.109472 S    
Ba2   O20   2.811012 S    
O12   Ba2   2.864944 S    
C7    H14   1.106583 S    
P5    O17   1.747134 S    
C18   C19   1.394883 A    
O6    P6    1.748685 S    
P2    C35   1.835677 S    
C25   C29   1.419131 A    
O16   Ba2   2.914768 S    
O27   C41   1.415059 S    
