data_mof_unit_60704.cif
_audit_creation_date              2012-12-10T18:10:05-0500
_audit_creation_method            fapswitch 2.2
_symmetry_space_group_name_H-M    P1
_symmetry_Int_Tables_number       1
_space_group_crystal_system       triclinic
_cell_length_a                    18.346177
_cell_length_b                    18.346177
_cell_length_c                    59.701132
_cell_angle_alpha                 90.07003
_cell_angle_beta                  90.07003
_cell_angle_gamma                 90.030797
_cell_volume                      20094.3060409

loop_
_atom_site_label
_atom_site_type_symbol
_atom_type_description
_atom_site_fract_x
_atom_site_fract_y
_atom_site_fract_z
_atom_type_partial_charge
Br1   Br    Br    0.398673 0.128202 0.614676 -0.270585
Br2   Br    Br    0.964284 0.339526 0.882999 -0.228814
Br3   Br    Br    0.421495 0.868873 0.114111 -0.229076
Br4   Br    Br    0.621711 0.911930 0.888171 -0.265360
Br5   Br    Br    0.088070 0.378289 0.111829 -0.265361
Br6   Br    Br    0.131127 0.578504 0.885889 -0.229077
Br7   Br    Br    0.660473 0.035715 0.117001 -0.228814
Br8   Br    Br    0.371799 0.101328 0.885324 -0.270585
Br9   Br    Br    0.684778 0.115615 0.557652 -0.166612
Br10  Br    Br    0.348318 0.821094 0.438201 -0.155452
Br11  Br    Br    0.785618 0.423015 0.561351 -0.158488
Br12  Br    Br    0.464283 0.839527 0.382999 -0.228814
Br13  Br    Br    0.103944 0.716597 0.437160 -0.161363
Br14  Br    Br    0.283403 0.896057 0.562840 -0.161363
Br15  Br    Br    0.576985 0.214381 0.438649 -0.158488
Br16  Br    Br    0.178907 0.651681 0.561799 -0.155453
Br17  Br    Br    0.884384 0.315222 0.442348 -0.166612
Br18  Br    Br    0.184777 0.615617 0.057652 -0.166612
Br19  Br    Br    0.848320 0.321092 0.938201 -0.155453
Br20  Br    Br    0.285618 0.923015 0.061351 -0.158487
Br21  Br    Br    0.603944 0.216597 0.937160 -0.161362
Br22  Br    Br    0.783404 0.396055 0.062840 -0.161363
Br23  Br    Br    0.921496 0.368873 0.614111 -0.229077
Br24  Br    Br    0.076983 0.714382 0.938649 -0.158488
Br25  Br    Br    0.678907 0.151681 0.061799 -0.155452
Br26  Br    Br    0.384384 0.815222 0.942348 -0.166612
Br27  Br    Br    0.121711 0.411930 0.388171 -0.265360
Br28  Br    Br    0.588070 0.878288 0.611829 -0.265360
Br29  Br    Br    0.631127 0.078503 0.385889 -0.229077
Br30  Br    Br    0.160473 0.535717 0.617001 -0.228814
Br31  Br    Br    0.871799 0.601328 0.385324 -0.270585
Br32  Br    Br    0.898672 0.628201 0.114676 -0.270585
C1    C     C_R   0.500006 0.000092 0.810407 0.803722
C2    C     C_R   0.425728 0.961820 0.440776 -0.189718
C3    C     C_R   0.859856 0.640144 0.750000 0.816623
C4    C     C_R   0.359875 0.859835 0.249993 0.815062
C5    C     C_R   0.640129 0.140165 0.750008 0.817262
C6    C     C_R   0.859837 0.640163 0.250000 0.815376
C7    C     C_R   0.140165 0.359835 0.750000 0.818117
C8    C     C_R   0.769359 0.177010 0.754639 0.434843
C9    C     C_R   0.230655 0.822995 0.245360 0.435576
C10   C     C_R   0.823073 0.769441 0.754568 0.433285
C11   C     C_R   0.176921 0.230572 0.245428 0.435193
C12   C     C_R   0.230628 0.823037 0.754610 0.434447
C13   C     C_R   0.925932 0.502682 0.559331 -0.188927
C14   C     C_R   0.769360 0.176955 0.245382 0.437296
C15   C     C_R   0.176964 0.230594 0.754571 0.434305
C16   C     C_R   0.823041 0.769395 0.245425 0.436462
C17   C     C_R   0.769406 0.823036 0.245429 0.434305
C18   C     C_R   0.230605 0.176959 0.754575 0.436461
C19   C     C_R   0.822990 0.230641 0.245361 0.434843
C20   C     C_R   0.177005 0.769345 0.754640 0.435577
C21   C     C_R   0.230559 0.176927 0.245432 0.433285
C22   C     C_R   0.769428 0.823079 0.754572 0.435193
C23   C     C_R   0.176963 0.769372 0.245390 0.434447
C24   C     C_R   0.030405 0.572570 0.440497 -0.187422
C25   C     C_R   0.823045 0.230640 0.754618 0.437296
C26   C     C_R   0.269359 0.677010 0.254639 0.434843
C27   C     C_R   0.730655 0.322995 0.745360 0.435576
C28   C     C_R   0.323073 0.269441 0.254568 0.433285
C29   C     C_R   0.676921 0.730572 0.745428 0.435193
C30   C     C_R   0.730628 0.323037 0.254610 0.434447
C31   C     C_R   0.269360 0.676955 0.745382 0.437296
C32   C     C_R   0.676964 0.730594 0.254571 0.434305
C33   C     C_R   0.323041 0.269395 0.745425 0.436462
C34   C     C_R   0.269406 0.323036 0.745429 0.434303
C35   C     C_R   0.427430 0.969595 0.559503 -0.187422
C36   C     C_R   0.730605 0.676959 0.254575 0.436462
C37   C     C_R   0.322990 0.730641 0.745361 0.434843
C38   C     C_R   0.677005 0.269345 0.254640 0.435576
C39   C     C_R   0.730559 0.676927 0.745432 0.433285
C40   C     C_R   0.269428 0.323079 0.254572 0.435193
C41   C     C_R   0.676963 0.269372 0.745390 0.434447
C42   C     C_R   0.323045 0.730640 0.254618 0.437296
C43   C     C_R   0.803899 0.303838 0.749976 -0.424462
C44   C     C_R   0.196110 0.696167 0.250026 -0.427715
C45   C     C_R   0.696135 0.803865 0.750000 -0.424989
C46   C     C_R   0.497319 0.074068 0.440669 -0.188927
C47   C     C_R   0.303859 0.196141 0.250000 -0.428196
C48   C     C_R   0.196162 0.696101 0.750024 -0.424462
C49   C     C_R   0.803833 0.303890 0.249974 -0.427715
C50   C     C_R   0.303856 0.196144 0.750000 -0.424127
C51   C     C_R   0.696149 0.803851 0.250000 -0.428480
C52   C     C_R   0.803856 0.696144 0.250000 -0.424127
C53   C     C_R   0.196149 0.303851 0.750000 -0.428480
C54   C     C_R   0.696162 0.196101 0.250024 -0.424462
C55   C     C_R   0.303833 0.803890 0.749974 -0.427715
C56   C     C_R   0.196134 0.303865 0.250000 -0.424989
C57   C     C_R   0.038180 0.574272 0.559224 -0.189718
C58   C     C_R   0.803859 0.696141 0.750000 -0.428195
C59   C     C_R   0.303899 0.803838 0.249976 -0.424462
C60   C     C_R   0.696110 0.196167 0.750026 -0.427715
C61   C     C_R   0.541353 0.041652 0.581839 0.666581
C62   C     C_R   0.423574 0.966662 0.417184 0.655174
C63   C     C_R   0.927104 0.507759 0.582971 0.654684
C64   C     C_R   0.033336 0.564894 0.416935 0.666074
C65   C     C_R   0.435106 0.966664 0.583065 0.666074
C66   C     C_R   0.492241 0.072896 0.417029 0.654684
C67   C     C_R   0.033338 0.576426 0.582816 0.655173
C68   C     C_R   0.957214 0.459983 0.441842 -0.187723
C69   C     C_R   0.958348 0.458647 0.418161 0.666580
C70   C     C_R   0.041353 0.541653 0.081839 0.666580
C71   C     C_R   0.923574 0.466661 0.917184 0.655173
C72   C     C_R   0.427103 0.007759 0.082971 0.654683
C73   C     C_R   0.533337 0.064894 0.916935 0.666074
C74   C     C_R   0.935107 0.466663 0.083065 0.666074
C75   C     C_R   0.992241 0.572896 0.917029 0.654684
C76   C     C_R   0.533339 0.076426 0.082816 0.655172
C77   C     C_R   0.458348 0.958647 0.918161 0.666580
C78   C     C_R   0.535513 0.950216 0.628788 0.311729
C79   C     C_R   0.040016 0.542786 0.058158 -0.187722
C80   C     C_R   0.544687 0.041574 0.371155 0.326049
C81   C     C_R   0.064002 0.532078 0.630011 0.330811
C82   C     C_R   0.944737 0.544901 0.370025 0.306729
C83   C     C_R   0.455099 0.055263 0.629975 0.306728
C84   C     C_R   0.467922 0.935998 0.369989 0.330811
C85   C     C_R   0.958426 0.455313 0.628845 0.326049
C86   C     C_R   0.049784 0.464486 0.371212 0.311728
C87   C     C_R   0.035514 0.450216 0.128788 0.311728
C88   C     C_R   0.044687 0.541574 0.871155 0.326049
C89   C     C_R   0.564002 0.032077 0.130011 0.330812
C90   C     C_R   0.925728 0.461819 0.940776 -0.189718
C91   C     C_R   0.444737 0.044901 0.870025 0.306729
C92   C     C_R   0.955099 0.555263 0.129975 0.306729
C93   C     C_R   0.967922 0.435997 0.869989 0.330812
C94   C     C_R   0.458425 0.955313 0.128845 0.326049
C95   C     C_R   0.549784 0.964486 0.871212 0.311729
C96   C     C_R   0.537658 0.948052 0.652265 0.364428
C97   C     C_R   0.543285 0.046962 0.347740 0.356375
C98   C     C_R   0.061825 0.533140 0.653532 0.361967
C99   C     C_R   0.943846 0.541355 0.346586 0.367772
C100  C     C_R   0.458645 0.056154 0.653414 0.367773
C101  C     C_R   0.425932 0.002681 0.059331 -0.188926
C102  C     C_R   0.466859 0.938174 0.346468 0.361967
C103  C     C_R   0.953038 0.456715 0.652260 0.356375
C104  C     C_R   0.051948 0.462341 0.347735 0.364428
C105  C     C_R   0.037659 0.448052 0.152265 0.364428
C106  C     C_R   0.043285 0.546962 0.847740 0.356374
C107  C     C_R   0.561826 0.033140 0.153532 0.361967
C108  C     C_R   0.443846 0.041355 0.846586 0.367772
C109  C     C_R   0.958645 0.556154 0.153414 0.367771
C110  C     C_R   0.966860 0.438174 0.846468 0.361966
C111  C     C_R   0.453037 0.956715 0.152260 0.356374
C112  C     C_R   0.499679 0.999922 0.189594 0.805445
C113  C     C_R   0.530405 0.072570 0.940497 -0.187421
C114  C     C_R   0.551948 0.962341 0.847735 0.364428
C115  C     C_R   0.493678 0.002915 0.617639 -0.050973
C116  C     C_R   0.493351 0.996888 0.382484 -0.117874
C117  C     C_R   0.003112 0.506649 0.617516 -0.117874
C118  C     C_R   0.997085 0.506322 0.382360 -0.050973
C119  C     C_R   0.993678 0.502915 0.117639 -0.050973
C120  C     C_R   0.993351 0.496888 0.882484 -0.117874
C121  C     C_R   0.503112 0.006649 0.117516 -0.117874
C122  C     C_R   0.497085 0.006322 0.882361 -0.050974
C123  C     C_R   0.481397 0.007331 0.547033 -0.136827
C124  C     C_R   0.927430 0.469595 0.059503 -0.187421
C125  C     C_R   0.465186 0.015740 0.452567 -0.142770
C126  C     C_R   0.984260 0.534814 0.547433 -0.142770
C127  C     C_R   0.992669 0.518603 0.452967 -0.136827
C128  C     C_R   0.981397 0.507331 0.047033 -0.136828
C129  C     C_R   0.965186 0.515740 0.952567 -0.142770
C130  C     C_R   0.484260 0.034814 0.047433 -0.142769
C131  C     C_R   0.492669 0.018603 0.952967 -0.136827
C132  C     C_R   0.997318 0.574067 0.940669 -0.188927
C133  C     C_R   0.538180 0.074271 0.059224 -0.189719
C134  C     C_R   0.457214 0.959983 0.941842 -0.187723
C135  C     C_R   0.595585 0.076341 0.545170 0.326396
C136  C     C_R   0.392380 0.904271 0.452793 0.329147
C137  C     C_R   0.868538 0.468851 0.547225 0.330281
C138  C     C_R   0.061349 0.633083 0.452002 0.327020
C139  C     C_R   0.366917 0.938651 0.547998 0.327021
C140  C     C_R   0.000078 0.500321 0.810406 0.805446
C141  C     C_R   0.531150 0.131462 0.452775 0.330281
C142  C     C_R   0.095729 0.607619 0.547207 0.329148
C143  C     C_R   0.923658 0.404415 0.454830 0.326396
C144  C     C_R   0.095585 0.576342 0.045170 0.326395
C145  C     C_R   0.892381 0.404270 0.952793 0.329148
C146  C     C_R   0.368537 0.968851 0.047225 0.330280
C147  C     C_R   0.561349 0.133083 0.952002 0.327020
C148  C     C_R   0.866917 0.438650 0.047998 0.327021
C149  C     C_R   0.031148 0.631462 0.952775 0.330281
C150  C     C_R   0.595729 0.107619 0.047207 0.329148
C151  C     C_R   0.999908 0.499994 0.189593 0.803721
C152  C     C_R   0.423658 0.904414 0.954830 0.326396
C153  C     C_R   0.499255 0.001591 0.664854 -0.343260
C154  C     C_R   0.500515 0.997240 0.335129 -0.348786
C155  C     C_R   0.002760 0.499485 0.664871 -0.348787
C156  C     C_R   0.998409 0.500745 0.335146 -0.343259
C157  C     C_R   0.999255 0.501591 0.164854 -0.343260
C158  C     C_R   0.000515 0.497240 0.835129 -0.348785
C159  C     C_R   0.502760 0.999485 0.164871 -0.348787
C160  C     C_R   0.498409 0.000745 0.835146 -0.343259
C161  C     C_R   0.010883 0.565690 0.987892 -0.098373
C162  C     C_R   0.000006 0.500092 0.310407 0.803722
C163  C     C_R   0.922148 0.469721 0.011966 -0.097816
C164  C     C_R   0.447410 0.973818 0.989070 -0.097997
C165  C     C_R   0.538713 0.071772 0.011725 -0.097504
C166  C     C_R   0.928227 0.461286 0.988274 -0.097503
C167  C     C_R   0.026182 0.552589 0.010930 -0.097997
C168  C     C_R   0.530278 0.077852 0.988034 -0.097817
C169  C     C_R   0.434310 0.989117 0.012108 -0.098373
C170  C     C_R   0.510883 0.065690 0.487892 -0.098372
C171  C     C_R   0.422148 0.969722 0.511966 -0.097815
C172  C     C_R   0.947411 0.473818 0.489070 -0.097997
C173  C     C_R   0.999679 0.499922 0.689594 0.805445
C174  C     C_R   0.038713 0.571773 0.511726 -0.097503
C175  C     C_R   0.428227 0.961287 0.488274 -0.097504
C176  C     C_R   0.526182 0.052589 0.510930 -0.097997
C177  C     C_R   0.030278 0.577852 0.488034 -0.097815
C178  C     C_R   0.934310 0.489117 0.512108 -0.098373
C179  C     C_R   0.968299 0.514043 0.976220 0.050545
C180  C     C_R   0.976660 0.509756 0.023347 0.049781
C181  C     C_R   0.490243 0.023340 0.976653 0.049782
C182  C     C_R   0.485957 0.031701 0.023780 0.050546
C183  C     C_R   0.468299 0.014043 0.476220 0.050545
C184  C     C_R   0.500078 0.000321 0.310406 0.805447
C185  C     C_R   0.476660 0.009757 0.523347 0.049781
C186  C     C_R   0.990243 0.523340 0.476653 0.049781
C187  C     C_R   0.985957 0.531701 0.523780 0.050545
C188  C     C_R   0.035263 0.628662 0.976220 0.357335
C189  C     C_R   0.862872 0.441753 0.024569 0.357112
C190  C     C_R   0.421403 0.910016 0.978229 0.358536
C191  C     C_R   0.597983 0.103111 0.023756 0.357050
C192  C     C_R   0.896889 0.402017 0.976244 0.357049
C193  C     C_R   0.089983 0.578597 0.021771 0.358536
C194  C     C_R   0.558246 0.137128 0.975431 0.357111
C195  C     C_R   0.499908 0.999994 0.689593 0.803721
C196  C     C_R   0.371337 0.964736 0.023780 0.357333
C197  C     C_R   0.535264 0.128662 0.476220 0.357334
C198  C     C_R   0.362871 0.941754 0.524569 0.357111
C199  C     C_R   0.921403 0.410017 0.478229 0.358536
C200  C     C_R   0.097983 0.603111 0.523756 0.357051
C201  C     C_R   0.396889 0.902018 0.476244 0.357050
C202  C     C_R   0.589984 0.078596 0.521771 0.358537
C203  C     C_R   0.058246 0.637129 0.475431 0.357111
C204  C     C_R   0.871338 0.464736 0.523780 0.357333
C205  C     C_R   0.640142 0.859858 0.750000 0.814198
C206  C     C_R   0.540017 0.042786 0.558158 -0.187723
C207  C     C_R   0.359856 0.140144 0.250000 0.816623
C208  C     C_R   0.140165 0.640125 0.750007 0.815063
C209  C     C_R   0.859834 0.359871 0.249992 0.817262
C210  C     C_R   0.359837 0.140163 0.750000 0.815376
C211  C     C_R   0.640165 0.859835 0.250000 0.818117
C212  C     C_R   0.859875 0.359835 0.749993 0.815062
C213  C     C_R   0.140129 0.640166 0.250008 0.817262
C214  C     C_R   0.640165 0.140125 0.250007 0.815062
C215  C     C_R   0.359834 0.859871 0.749992 0.817262
C216  C     C_R   0.140142 0.359858 0.250000 0.814198
H1    H     H_    0.748639 0.077666 0.764899 0.329745
H2    H     H_    0.251273 0.077559 0.764786 0.329452
H3    H     H_    0.922334 0.251361 0.235101 0.329744
H4    H     H_    0.077696 0.748612 0.764926 0.328933
H5    H     H_    0.251118 0.077431 0.235231 0.329628
H6    H     H_    0.748852 0.922539 0.764801 0.329648
H7    H     H_    0.077426 0.748628 0.235213 0.329521
H8    H     H_    0.922537 0.251406 0.764828 0.330105
H9    H     H_    0.248639 0.577666 0.264899 0.329744
H10   H     H_    0.751388 0.422304 0.735074 0.328932
H11   H     H_    0.422569 0.248882 0.264769 0.329629
H12   H     H_    0.251388 0.922304 0.235074 0.328933
H13   H     H_    0.577461 0.751148 0.735199 0.329648
H14   H     H_    0.751372 0.422574 0.264786 0.329522
H15   H     H_    0.248594 0.577462 0.735172 0.330105
H16   H     H_    0.577528 0.751246 0.264755 0.330080
H17   H     H_    0.422441 0.248727 0.735214 0.329452
H18   H     H_    0.248754 0.422472 0.735245 0.330080
H19   H     H_    0.751273 0.577559 0.264786 0.329452
H20   H     H_    0.422333 0.751361 0.735101 0.329744
H21   H     H_    0.577696 0.248612 0.264926 0.328933
H22   H     H_    0.751118 0.577431 0.735231 0.329628
H23   H     H_    0.922569 0.748882 0.764769 0.329628
H24   H     H_    0.248852 0.422539 0.264801 0.329649
H25   H     H_    0.577426 0.248628 0.735213 0.329522
H26   H     H_    0.422537 0.751406 0.264828 0.330106
H27   H     H_    0.443123 0.118458 0.679550 0.337806
H28   H     H_    0.451683 0.878769 0.319501 0.337157
H29   H     H_    0.888151 0.433102 0.677104 0.341315
H30   H     H_    0.114230 0.438589 0.322161 0.341233
H31   H     H_    0.561411 0.885770 0.677839 0.341233
H32   H     H_    0.566898 0.111849 0.322896 0.341315
H33   H     H_    0.121231 0.548316 0.680499 0.337157
H34   H     H_    0.077461 0.251148 0.235199 0.329649
H35   H     H_    0.881542 0.556877 0.320450 0.337806
H36   H     H_    0.943123 0.618458 0.179550 0.337806
H37   H     H_    0.951684 0.378769 0.819501 0.337157
H38   H     H_    0.388150 0.933103 0.177104 0.341315
H39   H     H_    0.614230 0.938589 0.822161 0.341233
H40   H     H_    0.061411 0.385770 0.177839 0.341233
H41   H     H_    0.066897 0.611849 0.822896 0.341315
H42   H     H_    0.621231 0.048316 0.180499 0.337157
H43   H     H_    0.381542 0.056877 0.820450 0.337806
H44   H     H_    0.035841 0.692531 0.002127 0.362405
H45   H     H_    0.251371 0.922574 0.764786 0.329522
H46   H     H_    0.791199 0.451029 0.000836 0.362163
H47   H     H_    0.423615 0.848781 0.004700 0.361919
H48   H     H_    0.667972 0.095189 0.999573 0.362931
H49   H     H_    0.904811 0.332027 0.000427 0.362932
H50   H     H_    0.151218 0.576386 0.995300 0.361920
H51   H     H_    0.548970 0.208801 0.999164 0.362163
H52   H     H_    0.307469 0.964157 0.997873 0.362406
H53   H     H_    0.535843 0.192531 0.502127 0.362406
H54   H     H_    0.291198 0.951031 0.500836 0.362164
H55   H     H_    0.923615 0.348782 0.504700 0.361919
H56   H     H_    0.748594 0.077463 0.235172 0.330105
H57   H     H_    0.167972 0.595190 0.499573 0.362932
H58   H     H_    0.404810 0.832028 0.500427 0.362932
H59   H     H_    0.651219 0.076385 0.495300 0.361919
H60   H     H_    0.048969 0.708801 0.499164 0.362164
H61   H     H_    0.807469 0.464158 0.497873 0.362406
H62   H     H_    0.077528 0.251246 0.764755 0.330081
H63   H     H_    0.922441 0.748727 0.235214 0.329452
H64   H     H_    0.748754 0.922472 0.235245 0.330080
N1    N     N_R   0.490210 0.003397 0.593529 -0.323021
N2    N     N_R   0.472610 0.010017 0.406063 -0.317354
N3    N     N_R   0.989983 0.527390 0.593937 -0.317354
N4    N     N_R   0.996603 0.509790 0.406471 -0.323021
N5    N     N_R   0.990210 0.503397 0.093529 -0.323021
N6    N     N_R   0.972610 0.510016 0.906063 -0.317354
N7    N     N_R   0.489983 0.027390 0.093937 -0.317354
N8    N     N_R   0.496603 0.009790 0.906471 -0.323021
O1    O     O_3   0.500000 0.000000 0.750000 -0.525990
O2    O     O_R   0.500000 0.060550 0.200300 -0.612838
O3    O     O_3   0.393219 0.709000 0.259983 -0.618045
O4    O     O_3   0.422313 0.111678 0.664404 -0.658373
O5    O     O_3   0.436682 0.879057 0.335391 -0.658046
O6    O     O_3   0.899832 0.413932 0.662045 -0.650516
O7    O     O_3   0.108009 0.423399 0.337917 -0.658952
O8    O     O_3   0.576601 0.891991 0.662083 -0.658952
O9    O     O_3   0.586068 0.100167 0.337955 -0.650516
O10   O     O_3   0.120943 0.563318 0.664609 -0.658046
O11   O     O_3   0.888322 0.577687 0.335596 -0.658372
O12   O     O_3   0.922313 0.611678 0.164404 -0.658372
O13   O     O_R   0.060550 0.500000 0.799700 -0.613154
O14   O     O_3   0.936683 0.379056 0.835391 -0.658047
O15   O     O_3   0.399831 0.913933 0.162045 -0.650517
O16   O     O_3   0.608009 0.923399 0.837917 -0.658952
O17   O     O_3   0.076601 0.391991 0.162083 -0.658952
O18   O     O_3   0.086068 0.600168 0.837955 -0.650516
O19   O     O_3   0.620944 0.063316 0.164609 -0.658047
O20   O     O_3   0.388322 0.077687 0.835596 -0.658372
O21   O     O_3   0.059512 0.690359 0.987235 -0.638142
O22   O     O_3   0.797714 0.421886 0.014657 -0.636792
O23   O     O_3   0.398072 0.849696 0.990071 -0.637455
O24   O     O_R   0.939450 0.500000 0.200300 -0.609748
O25   O     O_3   0.661528 0.124815 0.013315 -0.635979
O26   O     O_3   0.875186 0.338472 0.986685 -0.635981
O27   O     O_3   0.150303 0.601929 0.009929 -0.637457
O28   O     O_3   0.578113 0.202286 0.985343 -0.636791
O29   O     O_3   0.309641 0.940486 0.012765 -0.638142
O30   O     O_3   0.559514 0.190359 0.487235 -0.638143
O31   O     O_3   0.297714 0.921888 0.514657 -0.636793
O32   O     O_3   0.898072 0.349697 0.490071 -0.637455
O33   O     O_3   0.161527 0.624815 0.513315 -0.635981
O34   O     O_3   0.375185 0.838473 0.486685 -0.635981
O35   O     O_R   0.000000 0.560550 0.299700 -0.609749
O36   O     O_3   0.650304 0.101927 0.509929 -0.637455
O37   O     O_3   0.078113 0.702286 0.485343 -0.636792
O38   O     O_3   0.809641 0.440487 0.512765 -0.638143
O39   O     O_R   0.000000 0.439450 0.700300 -0.613154
O40   O     O_R   0.439450 0.000000 0.299700 -0.612838
O41   O     O_R   0.560550 0.000000 0.700300 -0.614773
O42   O     O_R   0.000000 0.439450 0.299700 -0.614775
O43   O     O_R   0.000000 0.560550 0.700300 -0.612838
O44   O     O_R   0.560550 0.000000 0.299700 -0.613154
O45   O     O_3   0.500000 0.000000 0.250000 -0.525570
O46   O     O_R   0.439450 0.000000 0.700300 -0.609748
O47   O     O_R   0.585450 0.853690 0.762850 -0.613593
O48   O     O_R   0.414550 0.146310 0.237150 -0.613469
O49   O     O_R   0.146310 0.585450 0.762850 -0.613762
O50   O     O_R   0.853690 0.414550 0.237150 -0.612869
O51   O     O_R   0.414550 0.146310 0.762850 -0.612828
O52   O     O_R   0.585450 0.853690 0.237150 -0.612759
O53   O     O_R   0.853690 0.414550 0.762850 -0.612598
O54   O     O_R   0.146310 0.585450 0.237150 -0.612642
O55   O     O_R   0.585450 0.146310 0.237150 -0.612599
O56   O     O_3   0.000000 0.500000 0.750000 -0.525570
O57   O     O_R   0.414550 0.853690 0.762850 -0.612640
O58   O     O_R   0.146310 0.414550 0.237150 -0.613593
O59   O     O_R   0.853690 0.585450 0.762850 -0.613468
O60   O     O_R   0.414550 0.853690 0.237150 -0.613763
O61   O     O_R   0.585450 0.146310 0.762850 -0.612868
O62   O     O_R   0.853690 0.585450 0.237150 -0.612828
O63   O     O_R   0.146310 0.414550 0.762850 -0.612757
O64   O     O_R   0.085450 0.353690 0.262850 -0.613593
O65   O     O_R   0.914550 0.646310 0.737150 -0.613468
O66   O     O_R   0.646310 0.085450 0.262850 -0.613762
O67   O     O_3   1.000000 0.500000 0.250000 -0.525990
O68   O     O_R   0.353690 0.914550 0.737150 -0.612869
O69   O     O_R   0.914550 0.646310 0.262850 -0.612828
O70   O     O_R   0.085450 0.353690 0.737150 -0.612759
O71   O     O_R   0.353690 0.914550 0.262850 -0.612597
O72   O     O_R   0.646310 0.085450 0.737150 -0.612641
O73   O     O_R   0.085450 0.646310 0.737150 -0.612598
O74   O     O_R   0.914550 0.353690 0.262850 -0.612641
O75   O     O_R   0.646310 0.914550 0.737150 -0.613593
O76   O     O_R   0.353690 0.085450 0.262850 -0.613468
O77   O     O_R   0.914550 0.353690 0.737150 -0.613763
O78   O     O_R   0.500000 0.060550 0.799700 -0.609749
O79   O     O_R   0.085450 0.646310 0.262850 -0.612868
O80   O     O_R   0.353690 0.085450 0.737150 -0.612828
O81   O     O_R   0.646310 0.914550 0.262850 -0.612757
O82   O     O_2   0.592386 0.078856 0.593373 -0.457592
O83   O     O_2   0.368315 0.935468 0.405845 -0.446467
O84   O     O_2   0.864939 0.500349 0.594691 -0.452363
O85   O     O_2   0.072526 0.611382 0.404328 -0.457319
O86   O     O_2   0.388618 0.927475 0.595672 -0.457319
O87   O     O_2   0.499652 0.135061 0.405309 -0.452363
O88   O     O_2   0.064533 0.631684 0.594155 -0.446467
O89   O     O_R   0.500000 0.939450 0.200300 -0.613153
O90   O     O_2   0.921143 0.407614 0.406627 -0.457592
O91   O     O_2   0.092386 0.578857 0.093373 -0.457592
O92   O     O_2   0.868316 0.435467 0.905845 -0.446467
O93   O     O_2   0.364938 0.000349 0.094691 -0.452362
O94   O     O_2   0.572526 0.111382 0.904328 -0.457319
O95   O     O_2   0.888618 0.427474 0.095672 -0.457319
O96   O     O_2   0.999651 0.635061 0.905309 -0.452363
O97   O     O_2   0.564533 0.131684 0.094155 -0.446467
O98   O     O_2   0.421143 0.907613 0.906627 -0.457592
O99   O     O_3   0.791006 0.106874 0.760011 -0.619065
O100  O     O_R   0.939450 0.500000 0.799700 -0.612838
O101  O     O_3   0.209021 0.893128 0.239980 -0.619585
O102  O     O_3   0.893290 0.791191 0.759879 -0.619870
O103  O     O_3   0.106706 0.208836 0.240107 -0.619137
O104  O     O_3   0.208969 0.893216 0.759962 -0.619559
O105  O     O_3   0.791000 0.106781 0.240017 -0.618044
O106  O     O_3   0.106787 0.208890 0.759883 -0.618786
O107  O     O_3   0.893214 0.791085 0.240104 -0.618716
O108  O     O_3   0.791110 0.893213 0.240117 -0.618786
O109  O     O_3   0.208915 0.106786 0.759896 -0.618716
O110  O     O_3   0.893126 0.208994 0.239988 -0.619065
O111  O     O_R   0.060550 0.500000 0.200300 -0.614773
O112  O     O_3   0.106872 0.790979 0.760020 -0.619586
O113  O     O_3   0.208809 0.106710 0.240121 -0.619871
O114  O     O_3   0.791164 0.893293 0.759892 -0.619136
O115  O     O_3   0.106784 0.791031 0.240037 -0.619559
O116  O     O_3   0.893219 0.209000 0.759983 -0.618044
O117  O     O_3   0.291006 0.606874 0.260012 -0.619064
O118  O     O_3   0.709020 0.393128 0.739980 -0.619585
O119  O     O_3   0.393290 0.291191 0.259879 -0.619871
O120  O     O_3   0.606707 0.708836 0.740108 -0.619136
O121  O     O_3   0.708969 0.393215 0.259962 -0.619559
O122  O     O_R   0.500000 0.939450 0.799700 -0.614774
O123  O     O_3   0.291000 0.606781 0.740017 -0.618044
O124  O     O_3   0.606787 0.708890 0.259883 -0.618786
O125  O     O_3   0.393214 0.291085 0.740104 -0.618716
O126  O     O_3   0.291110 0.393213 0.740117 -0.618785
O127  O     O_3   0.708915 0.606786 0.259896 -0.618716
O128  O     O_3   0.393126 0.708994 0.739989 -0.619065
O129  O     O_3   0.606872 0.290979 0.260020 -0.619585
O130  O     O_3   0.708809 0.606710 0.740121 -0.619870
O131  O     O_3   0.291164 0.393293 0.259893 -0.619137
O132  O     O_3   0.606784 0.291031 0.740037 -0.619560
Zn1   Zn    Zn3+2 0.586770 0.000000 0.731050 1.018498
Zn2   Zn    Zn3+2 0.913230 0.500000 0.768950 1.018564
Zn3   Zn    Zn3+2 0.500000 0.086770 0.231050 1.018564
Zn4   Zn    Zn3+2 0.500000 0.913230 0.768950 1.018498
Zn5   Zn    Zn3+2 0.913230 0.500000 0.231050 1.021408
Zn6   Zn    Zn3+2 0.086770 0.500000 0.768950 1.019597
Zn7   Zn    Zn3+2 0.500000 0.913230 0.231050 1.019597
Zn8   Zn    Zn3+2 0.500000 0.086770 0.768950 1.021408
Zn9   Zn    Zn3+2 0.413230 0.000000 0.268950 1.018565
Zn10  Zn    Zn3+2 1.000000 0.586770 0.731050 1.018564
Zn11  Zn    Zn3+2 1.000000 0.413230 0.268950 1.018498
Zn12  Zn    Zn3+2 0.413230 0.000000 0.731050 1.021408
Zn13  Zn    Zn3+2 0.586770 0.000000 0.268950 1.019597
Zn14  Zn    Zn3+2 1.000000 0.413230 0.731050 1.019596
Zn15  Zn    Zn3+2 1.000000 0.586770 0.268950 1.021408
Zn16  Zn    Zn3+2 0.086770 0.500000 0.231050 1.018498

loop_
_geom_bond_atom_site_label_1
_geom_bond_atom_site_label_2
_ccdc_geom_bond_type
C161  C188  A    
C28   C47   A    
C137  C204  A    
C16   O107  S    
C19   C49   A    
O122  Zn4   S    
C34   C53   A    
O44   Zn13  S    
H16   O124  S    
H14   O121  S    
C150  C191  A    
C32   O124  S    
C90   C129  A    
C57   C67   A    
O55   Zn3   S    
C207  O76   A    
C31   O123  S    
C203  O37   S    
H32   O9    S    
C161  C179  A    
C28   C40   A    
C94   C111  A    
C50   C210  S    
C114  O16   S    
Br6   C88   S    
O43   Zn10  S    
C40   C56   A    
C23   O115  S    
C135  C206  A    
H54   O31   S    
C105  O17   S    
C17   O108  S    
O56   Zn2   S    
C214  O66   A    
C80   C97   A    
H45   O104  S    
C76   O97   S    
C27   C41   A    
O48   Zn3   S    
C207  O48   A    
C31   C48   A    
C163  C166  A    
C29   C39   A    
H49   O26   S    
C139  C198  A    
O13   Zn6   S    
C14   C54   A    
C151  O111  A    
C70   C79   A    
C57   C142  A    
C128  C180  A    
C151  C157  S    
O100  Zn2   S    
O62   Zn5   S    
C118  N4    S    
C125  C183  A    
H58   O34   S    
C171  C185  A    
C77   N8    A    
C96   C153  A    
C134  C152  A    
C163  C189  A    
C67   O88   S    
O79   Zn15  S    
C140  C158  S    
C161  C167  A    
C10   O102  S    
C79   C128  A    
C177  C203  A    
H4    O112  S    
H2    O109  S    
C99   O11   S    
C2    C136  A    
O45   Zn7   S    
C65   O86   S    
C113  C147  A    
C68   C143  A    
C75   O96   S    
C66   N2    A    
C204  O38   S    
O111  Zn16  S    
C190  O23   S    
O1    Zn1   S    
C4    C59   S    
C184  O40   A    
C30   C49   A    
Br5   C87   S    
Br11  C137  S    
C215  O57   A    
H44   O21   S    
H28   O5    S    
C88   C106  A    
C7    C53   S    
H36   O12   S    
H30   O7    S    
C151  O24   A    
C86   C104  A    
C176  C185  A    
C100  O4    S    
H41   O18   S    
C140  O100  A    
Br4   C95   S    
C42   O3    S    
C195  O46   A    
C2    C62   A    
Br8   C91   S    
C55   C215  S    
C112  C159  S    
C174  C187  A    
C138  C203  A    
C3    O65   A    
H29   O6    S    
C147  C194  A    
C110  O14   S    
C6    C52   S    
C124  C148  A    
C33   C50   A    
C14   C19   A    
C213  O79   A    
C198  O31   S    
C66   O87   S    
C145  C192  A    
O67   Zn5   S    
C169  C182  A    
C77   C134  A    
C116  N2    S    
C16   C52   A    
Br21  C147  S    
Br10  C136  S    
C111  C159  A    
C104  O7    S    
C85   C117  A    
Br1   C83   S    
C142  C200  A    
O77   Zn14  S    
C165  C182  A    
Br17  C143  S    
C78   C96   A    
C136  C201  A    
C91   C122  A    
C153  C195  S    
C90   C145  A    
O70   Zn14  S    
C83   C115  A    
C199  O32   S    
C102  C154  A    
O59   Zn2   S    
H47   O23   S    
C5    O72   A    
C26   C44   A    
O1    Zn12  S    
H40   O17   S    
C30   C38   A    
H18   O126  S    
C32   C36   A    
C167  C180  A    
C4    O60   A    
C101  C146  A    
O54   Zn16  S    
H50   O27   S    
H10   O118  S    
C62   O83   S    
C132  C149  A    
C63   O84   S    
C31   C37   A    
C123  C206  A    
C29   C45   A    
C61   N1    A    
C102  O5    S    
H23   O102  S    
O64   Zn11  S    
C1    O78   A    
C93   C110  A    
C22   C45   A    
C12   C20   A    
O41   Zn1   S    
C215  O68   A    
H22   O130  S    
C71   N6    A    
C104  C156  A    
Br7   C89   S    
C64   O85   S    
C95   C122  A    
C103  C155  A    
C15   C18   A    
C83   C100  A    
C205  O47   A    
H5    O113  S    
H20   O128  S    
C81   C98   A    
C211  O52   A    
C124  C128  A    
C98   C155  A    
C113  C131  A    
Br28  C78   S    
H26   O3    S    
C201  O34   S    
C70   O91   S    
C111  O15   S    
C178  C187  A    
C172  C186  A    
C10   C58   A    
C94   C121  A    
C56   C216  S    
C211  O81   A    
C205  O75   A    
C127  C186  A    
C155  C173  S    
C40   O131  S    
O50   Zn5   S    
C188  O21   S    
C168  C194  A    
O40   Zn9   S    
C170  C197  A    
C9    C59   A    
C92   C119  A    
O68   Zn12  S    
C74   C124  A    
O24   Zn5   S    
O58   Zn16  S    
C92   C109  A    
H42   O19   S    
C212  O77   A    
C13   C63   A    
Br25  C150  S    
C175  C201  A    
C12   O104  S    
C6    O69   A    
Br16  C142  S    
C112  O89   A    
H53   O30   S    
Br31  C82   S    
C5    C60   S    
C24   C138  A    
Br24  C149  S    
C72   N7    A    
H31   O8    S    
O2    Zn3   S    
C41   C60   A    
Br14  C139  S    
C165  C191  A    
C9    O101  S    
C100  C153  A    
Br23  C85   S    
C171  C198  A    
O46   Zn12  S    
O74   Zn11  S    
O75   Zn1   S    
O56   Zn10  S    
C25   C43   A    
C67   N3    A    
C163  C180  A    
O65   Zn10  S    
C68   C127  A    
C57   C126  A    
C39   C58   A    
C196  O29   S    
O69   Zn15  S    
C68   C69   A    
C5    O61   A    
C7    O63   A    
H57   O33   S    
H56   O105  S    
H1    O99   S    
C2    C125  A    
C70   N5    A    
C8    O99   S    
C209  O50   A    
O67   Zn16  S    
Br9   C135  S    
C120  N6    S    
C164  C169  A    
Br30  C81   S    
C78   C115  A    
Br18  C144  S    
Br12  C84   S    
C197  O30   S    
C27   O118  S    
C216  O64   A    
C76   N7    A    
H8    O116  S    
C27   C43   A    
C169  C196  A    
C82   C99   A    
C44   C213  S    
C101  C130  A    
Br3   C94   S    
C200  O33   S    
O35   Zn15  S    
C213  O54   A    
C26   C42   A    
C89   C121  A    
H46   O22   S    
C30   O121  S    
C11   C56   A    
C15   C53   A    
H15   O123  S    
C24   C127  A    
C107  C159  A    
C130  C182  A    
O45   Zn13  S    
C84   C102  A    
C79   C144  A    
C110  C158  A    
C4    O71   A    
C51   C211  S    
C15   O106  S    
C35   C123  A    
H33   O10   S    
C49   C209  S    
C86   C118  A    
H62   O106  S    
C9    C23   A    
C43   C212  S    
C11   C21   A    
C126  C187  A    
C21   O113  S    
C46   C141  A    
C178  C204  A    
C170  C183  A    
C12   C55   A    
C64   N4    A    
H13   O120  S    
C37   C55   A    
C14   O105  S    
C107  O19   S    
C103  O6    S    
C189  O22   S    
O67   Zn11  S    
C97   C154  A    
C45   C205  S    
C38   O129  S    
H17   O125  S    
O39   Zn14  S    
O81   Zn13  S    
O73   Zn10  S    
O56   Zn14  S    
H60   O37   S    
O60   Zn7   S    
C174  C200  A    
C36   C52   A    
C71   O92   S    
C61   O82   S    
C131  C134  A    
C109  C157  A    
Br22  C148  S    
C84   C116  A    
Br15  C141  S    
C115  N1    S    
Br20  C146  S    
C62   N2    A    
C13   C137  A    
O78   Zn8   S    
C42   C59   A    
C165  C168  A    
C166  C192  A    
C32   C51   A    
C69   N4    A    
H48   O25   S    
C98   O10   S    
C72   O93   S    
C73   C113  A    
C175  C183  A    
H27   O4    S    
C73   N8    A    
C26   O117  S    
H38   O15   S    
C75   N6    A    
C16   C17   A    
C216  O58   A    
H6    O114  S    
C202  O36   S    
O45   Zn3   S    
C108  C160  A    
C173  O43   A    
C129  C132  A    
C18   C50   A    
Br27  C86   S    
C24   C64   A    
H9    O117  S    
C8    C25   A    
H43   O20   S    
C85   C103  A    
C1    O122  A    
C109  O12   S    
C17   C51   A    
C172  C199  A    
C63   N3    A    
H24   O131  S    
C10   C22   A    
C131  C181  A    
C89   C107  A    
C123  C185  A    
C112  O2    A    
C35   C65   A    
C95   C114  A    
C3    C58   S    
C39   O130  S    
C36   O127  S    
C20   C48   A    
C71   C90   A    
C22   O114  S    
C19   O110  S    
C76   C133  A    
O61   Zn8   S    
O56   Zn6   S    
Br32  C92   S    
Br29  C80   S    
C73   O94   S    
C47   C207  S    
C97   O9    S    
H39   O16   S    
C152  C190  A    
C144  C193  A    
C129  C179  A    
C1    C160  S    
C177  C186  A    
C21   C47   A    
C33   O125  S    
C130  C133  A    
C119  N5    S    
H12   O101  S    
C29   O120  S    
C74   N5    A    
C154  C184  S    
C46   C66   A    
C25   O116  S    
H55   O32   S    
C193  O27   S    
H52   O29   S    
C11   O103  S    
H61   O38   S    
C146  C196  A    
O71   Zn9   S    
C99   C156  A    
C3    O59   A    
C210  O51   A    
C156  C162  S    
C54   C214  S    
C170  C176  A    
H64   O108  S    
C65   N1    A    
C114  C160  A    
C106  C158  A    
C69   O90   S    
C149  C188  A    
C34   O126  S    
H63   O107  S    
C140  O13   A    
C191  O25   S    
C117  N3    S    
C87   C119  A    
C184  O44   A    
H34   O103  S    
C88   C120  A    
C143  C199  A    
C72   C101  A    
H37   O14   S    
C87   C105  A    
C81   C117  A    
C148  C189  A    
H3    O110  S    
C212  O53   A    
C108  O20   S    
C121  N7    S    
C41   O132  S    
O42   Zn11  S    
C122  N8    S    
C214  O55   A    
C35   C139  A    
C171  C175  A    
C208  O73   A    
C80   C116  A    
C210  O80   A    
C7    O70   A    
Br2   C93   S    
O57   Zn4   S    
C93   C120  A    
C194  O28   S    
O47   Zn4   S    
O1    Zn4   S    
C46   C125  A    
C61   C206  A    
H7    O115  S    
O51   Zn8   S    
H35   O11   S    
C96   O8    S    
C168  C181  A    
O49   Zn6   S    
C8    C60   A    
O45   Zn9   S    
C166  C179  A    
C167  C193  A    
O72   Zn1   S    
C141  C197  A    
C162  O42   A    
C18   O109  S    
C105  C157  A    
C23   C44   A    
Br13  C138  S    
C77   O98   S    
O67   Zn15  S    
C195  O41   A    
C74   O95   S    
C38   C54   A    
C176  C202  A    
O52   Zn7   S    
H59   O36   S    
Br19  C145  S    
C209  O74   A    
C208  O49   A    
C106  O18   S    
C133  C150  A    
C13   C126  A    
O66   Zn13  S    
C162  O35   A    
C20   O112  S    
H51   O28   S    
C48   C208  S    
C28   O119  S    
C164  C181  A    
C174  C177  A    
O1    Zn8   S    
C192  O26   S    
C37   O128  S    
C6    O62   A    
O76   Zn9   S    
H19   O127  S    
O63   Zn6   S    
C173  O39   A    
C91   C108  A    
C75   C132  A    
C33   C34   A    
C172  C178  A    
C82   C118  A    
H25   O132  S    
H21   O129  S    
O89   Zn7   S    
C135  C202  A    
H11   O119  S    
C164  C190  A    
O53   Zn2   S    
O80   Zn12  S    
Br26  C152  S    
