data_mof_unit_7220.cif
_audit_creation_date              2012-12-10T18:11:42-0500
_audit_creation_method            fapswitch 2.2
_symmetry_space_group_name_H-M    P1
_symmetry_Int_Tables_number       1
_space_group_crystal_system       triclinic
_cell_length_a                    10.556228
_cell_length_b                    12.630019
_cell_length_c                    12.998663
_cell_angle_alpha                 83.360946
_cell_angle_beta                  90.482929
_cell_angle_gamma                 101.264973
_cell_volume                      1688.0870344

loop_
_atom_site_label
_atom_site_type_symbol
_atom_type_description
_atom_site_fract_x
_atom_site_fract_y
_atom_site_fract_z
_atom_type_partial_charge
C1    C     C_R   0.487821 0.439730 0.691548 0.876227
C2    C     C_3   0.059576 0.598674 0.518243 0.181206
C3    C     C_3   0.962673 0.524597 0.596910 -0.260504
C4    C     C_3   0.875355 0.494007 0.505036 -0.176141
C5    C     C_R   0.734812 0.668805 0.082151 -0.204457
C6    C     C_R   0.557303 0.592242 0.201224 -0.052292
C7    C     C_R   0.381275 0.312207 0.836355 -0.290772
C8    C     C_R   0.367265 0.273374 0.941458 0.220082
C9    C     C_R   0.444162 0.330357 0.014411 0.124769
C10   C     C_R   0.524850 0.432692 0.978662 0.022141
C11   C     C_R   0.559140 0.455959 0.873191 -0.001155
C12   C     C_R   0.741419 0.498259 0.502600 0.870664
C13   C     C_R   0.572068 0.513980 0.042487 0.067181
C14   C     C_R   0.685105 0.592719 0.013534 0.097666
C15   C     C_R   0.741352 0.595129 0.915181 0.168957
C16   C     C_R   0.672969 0.532572 0.843213 -0.227552
C17   C     C_R   0.502942 0.523527 0.130292 -0.217145
C18   C     C_R   0.671328 0.667963 0.175981 -0.218335
C19   C     C_R   0.479176 0.400833 0.801634 -0.125280
C20   C     C_R   0.309934 0.086437 0.352358 0.126025
C21   C     C_R   0.653094 0.797845 0.630673 -0.016278
C22   C     C_R   0.679204 0.899422 0.665087 -0.324068
C23   C     C_R   0.517172 0.559937 0.308491 0.843457
C24   C     C_R   0.614824 0.980449 0.622918 0.228327
C25   C     C_R   0.533909 0.962378 0.535173 -0.007640
C26   C     C_R   0.509838 0.855918 0.504343 0.200151
C27   C     C_R   0.473124 0.042248 0.478366 -0.053885
C28   C     C_R   0.381675 0.011522 0.400437 0.158624
C29   C     C_R   0.365673 0.907620 0.370363 -0.290089
C30   C     C_R   0.427399 0.831267 0.422331 -0.235561
C31   C     C_R   0.502328 0.152757 0.492233 -0.066264
C32   C     C_R   0.336757 0.192176 0.378362 -0.087554
C33   C     C_R   0.258135 0.500146 0.501564 0.886300
C34   C     C_3   0.938462 0.395669 0.492041 0.172562
C35   C     C_3   0.027297 0.427988 0.581868 0.242212
C36   C     C_3   0.123461 0.501264 0.504586 -0.167131
C37   C     C_3   0.035488 0.469482 0.413047 -0.297874
C38   C     C_3   0.971930 0.566437 0.428152 0.236930
H1    H     H_    0.407079 0.475836 0.146090 0.125922
H2    H     H_    0.317312 0.271153 0.781402 0.170004
H3    H     H_    0.711993 0.541145 0.765268 0.154356
H4    H     H_    0.282968 0.251760 0.344229 0.129387
H5    H     H_    0.303715 0.883683 0.306895 0.183355
H6    H     H_    0.580774 0.187843 0.537754 0.179465
H7    H     H_    0.698832 0.733814 0.666816 0.162568
H8    H     H_    0.744380 0.914292 0.728480 0.153748
H9    H     H_    0.404255 0.751570 0.399156 0.214142
H10   H     H_    0.068685 0.448486 0.338528 0.152618
H11   H     H_    0.929336 0.545278 0.671500 0.156259
H12   H     H_    0.714769 0.722192 0.230867 0.164859
H13   H     H_    0.823053 0.727842 0.065051 0.160026
N1    N     N_R   0.432930 0.222190 0.444670 -0.116196
N2    N     N_R   0.566370 0.776980 0.554790 -0.127948
O1    O     O_R   0.467970 0.366730 0.627150 -0.611645
O2    O     O_R   0.510820 0.544830 0.662520 -0.609706
O3    O     O_R   0.664630 0.410960 0.482340 -0.634429
O4    O     O_R   0.707470 0.589060 0.517710 -0.612982
O5    O     O_R   0.489180 0.455170 0.337480 -0.604819
O6    O     O_R   0.532030 0.633270 0.372850 -0.634374
O7    O     O_R   0.292530 0.410940 0.482290 -0.619140
O8    O     O_R   0.335370 0.589040 0.517660 -0.641216
Zn1   Zn    Zn3+2 0.471390 0.381080 0.476380 0.922904
Zn2   Zn    Zn3+2 0.528610 0.618920 0.523620 0.925865
N3    N     N_2   0.068147 0.357086 0.665972 -0.303855
H14   H     H_    0.125318 0.306421 0.643002 0.230783
C39   C     C_3   0.969690 0.304358 0.741624 -0.812881
H15   H     H_    0.015151 0.262918 0.807848 0.232968
H16   H     H_    0.898010 0.242737 0.706992 0.233511
H17   H     H_    0.920309 0.364783 0.771549 0.249109
C40   C     C_3   0.454158 0.273224 0.123750 -0.405530
C41   C     C_3   0.593330 0.266103 0.152196 -0.832296
H18   H     H_    0.638014 0.228616 0.092182 0.252028
H19   H     H_    0.652069 0.347621 0.160231 0.264338
H20   H     H_    0.593990 0.214903 0.227621 0.248019
H21   H     H_    0.410674 0.310966 0.183189 0.200285
H22   H     H_    0.399617 0.188393 0.130809 0.235386
N4    N     N_2   0.269666 0.181152 0.974273 -0.326095
H23   H     H_    0.179872 0.188247 0.945687 0.222684
C42   C     C_3   0.301654 0.077989 0.958333 -0.820405
H24   H     H_    0.228942 0.011067 0.998960 0.247518
H25   H     H_    0.398383 0.071674 0.990009 0.257711
H26   H     H_    0.300292 0.068486 0.874473 0.242792
N5    N     N_2   0.213611 0.057373 0.277443 -0.315813
H27   H     H_    0.198637 0.122056 0.225822 0.224643
C43   C     C_3   0.092905 0.992955 0.319933 -0.812677
H28   H     H_    0.049401 0.038347 0.373573 0.246059
H29   H     H_    0.107743 0.915260 0.362281 0.264915
H30   H     H_    0.024634 0.973852 0.256158 0.242094
C44   C     C_3   0.864998 0.281970 0.475948 -0.360844
C45   C     C_3   0.955156 0.204472 0.460536 -0.900211
H31   H     H_    0.020553 0.236479 0.392830 0.261248
H32   H     H_    0.013384 0.191747 0.530564 0.264807
H33   H     H_    0.896188 0.124701 0.446374 0.248741
H34   H     H_    0.801530 0.248733 0.544174 0.205162
H35   H     H_    0.803862 0.287934 0.406347 0.218916
N6    N     N_2   0.625105 0.074013 0.676016 -0.335859
H36   H     H_    0.712627 0.095642 0.711459 0.219234
C46   C     C_3   0.517332 0.071615 0.744696 -0.799408
H37   H     H_    0.530009 0.149846 0.778326 0.255537
H38   H     H_    0.512627 0.004464 0.808726 0.244577
H39   H     H_    0.425077 0.060502 0.701832 0.250811
N7    N     N_2   0.934807 0.639688 0.344474 -0.293739
H40   H     H_    0.849095 0.606571 0.311987 0.223280
C47   C     C_3   0.033947 0.685050 0.266940 -0.826323
H41   H     H_    0.002261 0.751080 0.215409 0.241735
H42   H     H_    0.050818 0.621376 0.219335 0.232530
H43   H     H_    0.125685 0.719605 0.303313 0.240647
C48   C     C_3   0.123173 0.713962 0.537023 -0.357517
C49   C     C_3   0.022912 0.782277 0.555245 -0.868843
H44   H     H_    0.959751 0.788436 0.486997 0.284112
H45   H     H_    0.961902 0.745158 0.623943 0.257929
H46   H     H_    0.072500 0.865372 0.568794 0.247929
H47   H     H_    0.186467 0.710638 0.605529 0.222724
H48   H     H_    0.182455 0.752487 0.468702 0.210125
N8    N     N_2   0.864517 0.660243 0.886612 -0.309533
H49   H     H_    0.936827 0.644590 0.936561 0.224288
C50   C     C_3   0.867670 0.775177 0.859100 -0.838705
H50   H     H_    0.900287 0.798471 0.777532 0.245720
H51   H     H_    0.937235 0.823775 0.908493 0.230099
H52   H     H_    0.771277 0.795933 0.869208 0.249012

loop_
_geom_bond_atom_site_label_1
_geom_bond_atom_site_label_2
_ccdc_geom_bond_type
O5    Zn1   S    
C23   O5    A    
C39   H16   S    
C50   H50   S    
C34   C37   S    
C35   C36   S    
C31   N1    A    
C50   H51   S    
C47   H42   S    
C3    H11   S    
C7    C8    A    
N4    H23   S    
C23   O6    A    
C11   C19   A    
C29   C30   A    
C22   C24   A    
C28   C29   A    
C24   N6    S    
C39   H17   S    
C15   C16   A    
C33   C36   S    
C48   C49   S    
O7    Zn1   S    
C34   C35   S    
C17   H1    S    
C48   H48   S    
C44   H34   S    
O8    Zn2   S    
C32   N1    A    
C7    C19   A    
C8    C9    A    
N8    C50   S    
O2    Zn2   S    
C7    H2    S    
C40   C41   S    
C4    C12   S    
C9    C10   A    
C43   H29   S    
C39   H15   S    
C21   C22   A    
C29   H5    S    
C47   H41   S    
O4    Zn2   S    
C21   H7    S    
N4    C42   S    
C6    C18   A    
C4    C34   S    
C1    C19   S    
C31   H6    S    
C27   C31   A    
C30   H9    S    
C24   C25   A    
C49   H46   S    
C42   H25   S    
C5    C18   A    
O1    Zn1   S    
C25   C26   A    
C43   H28   S    
N6    C46   S    
N3    C39   S    
C48   H47   S    
C44   H35   S    
C1    O1    A    
C37   C38   S    
C42   H26   S    
C11   C16   A    
C2    C38   S    
C45   H32   S    
N5    H27   S    
C3    C35   S    
N6    H36   S    
C9    C40   S    
C37   H10   S    
N7    C47   S    
C5    C14   A    
C12   O3    A    
C12   O4    A    
C22   H8    S    
C4    C38   S    
C26   C30   A    
C33   O7    A    
C46   H38   S    
C40   H22   S    
C8    N4    S    
O3    Zn1   S    
C35   N3    S    
C50   H52   S    
C3    C4    S    
C26   N2    A    
C27   C28   A    
C18   H12   S    
C45   H33   S    
C41   H19   S    
C20   C32   A    
C43   H30   S    
C2    C36   S    
C6    C17   A    
C36   C37   S    
N5    C43   S    
C10   C13   A    
C41   H20   S    
C25   C27   A    
C46   H39   S    
C20   C28   A    
O6    Zn2   S    
C13   C17   A    
N3    H14   S    
C49   H45   S    
C2    C3    S    
C1    O2    A    
C34   C44   S    
C41   H18   S    
C38   N7    S    
N1    Zn1   S    
C49   H44   S    
C21   N2    A    
N2    Zn2   S    
C45   H31   S    
C6    C23   S    
C2    C48   S    
C15   N8    S    
N7    H40   S    
C10   C11   A    
C42   H24   S    
C33   O8    A    
C46   H37   S    
C20   N5    S    
C40   H21   S    
C32   H4    S    
C14   C15   A    
C5    H13   S    
C44   C45   S    
C13   C14   A    
C16   H3    S    
C47   H43   S    
N8    H49   S    
