data_mof_unit_6650.cif
_audit_creation_date              2012-12-11T20:22:12-0500
_audit_creation_method            fapswitch 2.2
_symmetry_space_group_name_H-M    P1
_symmetry_Int_Tables_number       1
_space_group_crystal_system       triclinic
_cell_length_a                    8.21859
_cell_length_b                    17.443475
_cell_length_c                    26.997277
_cell_angle_alpha                 100.192927
_cell_angle_beta                  92.702395
_cell_angle_gamma                 81.459052
_cell_volume                      3766.15578909

loop_
_atom_site_label
_atom_site_type_symbol
_atom_type_description
_atom_site_fract_x
_atom_site_fract_y
_atom_site_fract_z
_atom_type_partial_charge
Ba1   Ba    Ba6+2 0.860160 0.462360 0.521850 1.664299
Ba2   Ba    Ba6+2 0.329680 0.537570 0.478140 1.662085
C1    C     C_3   0.646610 0.192048 0.651818 -0.362873
C2    C     C_R   0.912639 0.581399 0.182134 0.585503
C3    C     C_2   0.763079 0.555204 0.275321 -0.088226
C4    C     C_3   0.181305 0.254231 0.648387 0.312050
C5    C     C_3   0.737761 0.580585 0.331319 -0.085398
C6    C     C_1   0.989815 0.490214 0.343403 0.038642
C7    C     C_2   0.034112 0.487601 0.296056 -0.089410
C8    C     C_2   0.912840 0.519175 0.258151 0.196282
C9    C     C_R   0.032843 0.510066 0.103027 -0.080582
C10   C     C_R   0.082618 0.444418 0.126980 -0.035831
C11   C     C_R   0.171478 0.376612 0.099264 -0.057557
C12   C     C_3   0.633437 0.270315 0.633505 0.391398
C13   C     C_R   0.946049 0.578593 0.130941 -0.025882
C14   C     C_2   0.851941 0.531541 0.362469 -0.272092
C15   C     C_2   0.354502 0.481498 0.640252 -0.279411
C16   C     C_3   0.108426 0.247001 0.697781 -0.332672
C17   C     C_R   0.197552 0.435797 0.971889 0.019807
C18   C     C_R   0.053578 0.571651 0.976135 0.020252
C19   C     C_R   0.144246 0.502593 0.948477 0.049701
C20   C     C_R   0.286735 0.368688 0.942361 -0.098604
C21   C     C_R   0.322513 0.367272 0.892171 -0.062240
C22   C     C_R   0.271483 0.432603 0.868722 -0.033588
C23   C     C_3   0.485984 0.661183 0.634380 0.300181
C24   C     C_R   0.182051 0.500412 0.896796 -0.077992
C25   C     C_R   0.130624 0.566167 0.873189 -0.032910
C26   C     C_R   0.170623 0.563787 0.822426 0.586340
C27   C     C_R   0.307924 0.431381 0.817711 0.586870
C28   C     C_3   0.178349 0.286113 0.400831 0.231319
C29   C     C_2   0.459608 0.480541 0.728374 -0.079552
C30   C     C_3   0.502717 0.487319 0.675362 -0.067584
C31   C     C_1   0.209127 0.515617 0.657226 0.050310
C32   C     C_2   0.169359 0.516058 0.704532 -0.086843
C33   C     C_2   0.300429 0.496154 0.742968 0.209126
C34   C     C_3   0.462390 0.690965 0.690365 -0.371789
C35   C     C_R   0.160192 0.438169 0.023593 0.019548
C36   C     C_R   0.070055 0.507416 0.051238 0.049475
C37   C     C_R   0.016575 0.574163 0.027733 0.020403
C38   C     C_R   0.209902 0.373513 0.049032 -0.098632
C39   C     C_R   0.894050 0.643726 0.107295 -0.059468
C40   C     C_3   0.099760 0.211938 0.380358 -0.206340
C41   C     C_R   0.003257 0.636258 0.950923 -0.100007
C42   C     C_R   0.041091 0.633462 0.900873 -0.061410
C43   C     C_R   0.927364 0.641596 0.057043 -0.100902
C44   C     C_2   0.438110 0.277544 0.511126 -0.243213
C45   C     C_3   0.956478 0.725197 0.353579 0.343324
C46   C     C_3   0.371012 0.226459 0.542803 -0.068816
C47   C     C_2   0.415352 0.140269 0.522716 -0.087347
C48   C     C_2   0.551337 0.114707 0.494652 -0.031324
C49   C     C_2   0.638298 0.174918 0.477527 -0.083550
C50   C     C_1   0.571557 0.249971 0.484283 0.049842
C51   C     C_R   0.810132 0.864423 0.483013 -0.095921
C52   C     C_3   0.974512 0.703669 0.591551 0.306327
C53   C     C_R   0.863058 0.783911 0.474448 0.005489
C54   C     C_R   0.622964 0.761588 0.515319 0.045765
C55   C     C_R   0.567005 0.842664 0.523359 -0.095009
C56   C     C_3   0.913054 0.765523 0.308205 -0.334983
C57   C     C_R   0.657645 0.894241 0.505411 0.036565
C58   C     C_2   0.611404 0.028523 0.480809 -0.007562
C59   C     C_2   0.598611 0.979808 0.514190 -0.123155
C60   C     C_R   0.766431 0.732421 0.488666 -0.284305
C61   C     C_3   0.947198 0.792200 0.609651 -0.381478
C62   C     C_3   0.699604 0.363220 0.369525 0.301888
C63   C     C_3   0.706969 0.343070 0.312462 -0.337410
C64   C     C_2   0.180217 0.140845 0.400627 0.831758
C65   C     C_2   0.674132 0.996867 0.429337 0.854968
C66   C     C_3   0.453988 0.736574 0.346025 0.354235
C67   C     C_3   0.374319 0.800070 0.316912 -0.332658
C68   C     C_R   0.041522 0.447544 0.178001 0.596402
H1    H     H_    0.705050 0.260265 0.598334 0.065926
H2    H     H_    0.604520 0.415100 0.379889 0.088081
H3    H     H_    0.777832 0.169686 0.659066 0.131171
H4    H     H_    0.805163 0.292694 0.301229 0.124042
H5    H     H_    0.734108 0.394302 0.296842 0.070553
H6    H     H_    0.586921 0.327268 0.296567 0.145246
H7    H     H_    0.501917 0.291598 0.626105 -0.099443
H8    H     H_    0.594857 0.148295 0.622718 0.055262
H9    H     H_    0.366930 0.645665 0.617643 0.030646
H10   H     H_    0.580814 0.608186 0.629225 0.033181
H11   H     H_    0.374368 0.746407 0.696102 0.138773
H12   H     H_    0.109717 0.197974 0.338707 0.095350
H13   H     H_    0.412218 0.647017 0.708053 0.076231
H14   H     H_    0.581987 0.702159 0.708957 0.124163
H15   H     H_    0.577530 0.199466 0.687150 0.129491
H16   H     H_    0.202155 0.255866 0.728508 0.108814
H17   H     H_    0.011439 0.663059 0.340547 0.055443
H18   H     H_    0.840348 0.726674 0.373211 -0.068539
H19   H     H_    0.017774 0.753210 0.282147 0.135388
H20   H     H_    0.803966 0.743306 0.287842 0.130856
H21   H     H_    0.881867 0.830328 0.320715 0.128485
H22   H     H_    0.587496 0.729538 0.339173 -0.058861
H23   H     H_    0.966744 0.222910 0.388491 0.100062
H24   H     H_    0.431384 0.756635 0.386998 0.074191
H25   H     H_    0.434668 0.853927 0.327990 0.131263
H26   H     H_    0.241434 0.815614 0.325237 0.149820
H27   H     H_    0.207114 0.315901 0.651223 0.018360
H28   H     H_    0.389390 0.779040 0.275621 0.114085
H29   H     H_    0.159292 0.464470 0.285000 0.140027
H30   H     H_    0.212733 0.325064 0.116466 0.123623
H31   H     H_    0.557920 0.469401 0.755571 0.099564
H32   H     H_    0.391399 0.314186 0.871664 0.119583
H33   H     H_    0.331274 0.315556 0.956754 0.068998
H34   H     H_    0.855790 0.683397 0.579447 0.007894
H35   H     H_    0.279293 0.318847 0.031268 0.069403
H36   H     H_    0.667712 0.576120 0.249619 0.116391
H37   H     H_    0.825632 0.697217 0.127645 0.122442
H38   H     H_    0.933953 0.690708 0.968606 0.069459
H39   H     H_    0.297361 0.212358 0.643088 -0.019832
H40   H     H_    0.999364 0.684975 0.883838 0.122425
H41   H     H_    0.043022 0.533176 0.716146 0.123611
H42   H     H_    0.880805 0.694636 0.042587 0.069262
H43   H     H_    0.833733 0.543545 0.402806 0.079664
H44   H     H_    0.367216 0.450129 0.601802 0.070702
H45   H     H_    0.059339 0.690157 0.559427 0.061977
H46   H     H_    0.544348 0.003658 0.550574 0.067190
H47   H     H_    0.759363 0.157768 0.461347 0.165697
H48   H     H_    0.889235 0.903397 0.473027 0.092375
H49   H     H_    0.344110 0.099370 0.534635 0.083085
H50   H     H_    0.999246 0.292841 0.706668 0.164058
H51   H     H_    0.455659 0.865520 0.544199 0.075486
H52   H     H_    0.390861 0.339858 0.516972 0.069469
H53   H     H_    0.809264 0.669842 0.482519 0.061866
H54   H     H_    0.071317 0.187436 0.695512 0.109395
H55   H     H_    0.312799 0.270467 0.406809 0.027605
H56   H     H_    0.858314 0.807153 0.640827 0.136296
H57   H     H_    0.123938 0.314952 0.437410 0.055114
H58   H     H_    0.376633 0.057844 0.399979 0.326901
H59   H     H_    0.840847 0.997571 0.376932 0.322810
H60   H     H_    0.897766 0.823352 0.578747 0.054382
H61   H     H_    0.065671 0.812731 0.623286 0.122314
H62   H     H_    0.820684 0.377455 0.384603 -0.014455
N1    N     N_R   0.956383 0.515670 0.205375 -0.420803
N2    N     N_R   0.258334 0.496835 0.795086 -0.424856
O1    O     O_2   0.906370 0.542040 0.619810 -0.464696
O2    O     O_2   0.205486 0.778426 0.474725 -0.475596
O3    O     O_3   0.070825 0.764492 0.384768 -0.585190
O4    O     O_3   0.138370 0.541980 0.559630 -0.493839
O5    O     O_3   0.572820 0.404940 0.471170 -0.493411
O6    O     O_2   0.345130 0.693150 0.532000 -0.463367
O7    O     O_3   0.537585 0.720650 0.612833 -0.643243
O8    O     O_2   0.448932 0.513974 0.326254 -0.488910
O9    O     O_3   0.388583 0.665975 0.328964 -0.575713
O10   O     O_2   0.079775 0.389089 0.197615 -0.594327
O11   O     O_2   0.382884 0.371777 0.793367 -0.601873
O12   O     O_3   0.660819 0.298280 0.388073 -0.622386
O13   O     O_2   0.845671 0.643294 0.206171 -0.625965
O14   O     O_2   0.129451 0.621994 0.802833 -0.599571
O15   O     O_3   0.686580 0.398330 0.583860 -0.486485
O16   O     O_2   0.846670 0.442810 0.669233 -0.479278
O17   O     O_3   0.040989 0.667793 0.631639 -0.630055
O18   O     O_3   0.697356 0.324936 0.670956 -0.584916
O19   O     O_2   0.844570 0.306830 0.467970 -0.475945
O20   O     O_3   0.101900 0.357890 0.557750 -0.475340
O21   O     O_2   0.041666 0.217994 0.510503 -0.445725
O22   O     O_2   0.100904 0.107281 0.425128 -0.550920
O23   O     O_3   0.070491 0.234593 0.608546 -0.579439
O24   O     O_R   0.342898 0.110017 0.388335 -0.757188
O25   O     O_2   0.611547 0.944203 0.402752 -0.641481
O26   O     O_R   0.808826 0.024621 0.412193 -0.725161
O27   O     O_2   0.283330 0.457940 0.380160 -0.441260
O28   O     O_3   0.051340 0.457960 0.440360 -0.503154
O29   O     O_3   0.503130 0.601610 0.416130 -0.470462
O30   O     O_3   0.154900 0.333265 0.363417 -0.623836
O31   O     O_3   0.616890 0.595000 0.528820 -0.481005
O32   O     O_3   0.087820 0.642040 0.442240 -0.488294
P1    P     P_3+3 0.071770 0.565500 0.613330 0.996316
P2    P     P_3+3 0.664870 0.318630 0.453960 0.993347
P3    P     P_3+3 0.146672 0.256626 0.554070 0.978686
P4    P     P_3+3 0.117940 0.434440 0.386660 0.999080
P5    P     P_3+3 0.059882 0.743612 0.445287 0.987712
P6    P     P_3+3 0.681928 0.414920 0.649757 0.987748
P7    P     P_3+3 0.531566 0.694170 0.547272 0.952061
P8    P     P_3+3 0.519760 0.589430 0.350517 0.960289

loop_
_geom_bond_atom_site_label_1
_geom_bond_atom_site_label_2
_ccdc_geom_bond_type
C19   C24   A    
C53   C60   A    
C1    H15   S    
C40   H23   S    
C12   H1    S    
O30   P4    S    
C40   H12   S    
C8    N1    S    
C28   O30   S    
C67   H26   S    
C14   H43   S    
Ba2   O28   S    
C51   C57   A    
C43   H42   S    
H58   O24   S    
O8    P8    D    
C24   C25   A    
C16   H16   S    
C63   H6    S    
C26   N2    Am   
Ba2   O5    S    
C29   H31   S    
C52   H34   S    
C17   C19   A    
C22   C24   A    
C32   C33   S    
C35   C38   A    
C27   O11   D    
C36   C37   A    
O18   P6    S    
C55   C57   A    
C21   H32   S    
C52   C61   S    
Ba1   P1    S    
C34   H13   S    
O31   P7    S    
C23   H10   S    
C5    P8    S    
C44   C50   D    
C54   C55   A    
C33   N2    S    
C66   O9    S    
Ba1   Ba2   S    
C12   H7    S    
C22   C27   A    
O15   P6    S    
C10   C68   A    
C17   C35   A    
O23   P3    S    
C9    C13   A    
C25   C42   A    
O16   P6    D    
C62   H62   S    
C58   C65   S    
C66   C67   S    
C11   C38   A    
C68   N1    Am   
C21   C22   A    
Ba1   O15   S    
C65   O26   S    
C61   H61   S    
C7    C8    S    
Ba2   O32   S    
Ba1   O5    S    
C37   C43   A    
C67   H28   S    
C27   N2    Am   
C30   P6    S    
C28   H55   S    
O32   P5    S    
C7    H29   S    
C23   H9    S    
O7    P7    S    
C32   H41   S    
C31   P1    S    
Ba1   O20   S    
C15   C31   D    
Ba2   O27   S    
C53   P5    S    
C60   H53   S    
C6    P4    S    
C15   H44   S    
C48   C49   S    
C3    H36   S    
C51   C53   A    
C4    C16   S    
C44   C46   S    
C26   O14   D    
C57   C59   S    
C49   C50   D    
Ba2   O4    S    
C4    H27   S    
C17   C20   A    
C13   C39   A    
C61   H60   S    
C3    C5    S    
C18   C37   A    
C51   H48   S    
C6    C7    D    
Ba1   P2    S    
C2    O13   D    
C66   H24   S    
C63   H4    S    
O20   P3    S    
C58   C59   D    
C45   H17   S    
C9    C36   A    
C41   C42   A    
C35   C36   A    
O21   P3    D    
C29   C30   S    
O28   P4    S    
O2    P5    D    
Ba1   O31   S    
C34   H11   S    
C52   H45   S    
C45   O3    S    
C59   H46   S    
C31   C32   D    
C44   H52   S    
C18   C19   A    
Ba1   O19   S    
C56   H20   S    
Ba2   O31   S    
C1    C12   S    
Ba2   P4    S    
O27   P4    D    
C46   C47   S    
Ba1   O28   S    
O19   P2    D    
C49   H47   S    
C4    H39   S    
C54   C60   A    
C2    N1    Am   
C16   H50   S    
C64   O24   S    
C4    O23   S    
C56   H21   S    
O12   P2    S    
C28   H57   S    
C5    C14   S    
C39   C43   A    
C39   H37   S    
C62   O12   S    
O6    P7    D    
C28   C40   S    
C23   O7    S    
C34   H14   S    
C67   H25   S    
Ba2   O29   S    
C9    C10   A    
C52   O17   S    
C68   O10   D    
C63   H5    S    
C54   P7    S    
Ba2   O6    S    
C45   H18   S    
C2    C13   A    
C48   C58   S    
C3    C8    D    
C62   C63   S    
C45   C56   S    
C64   O22   D    
C1    H8    S    
C47   H49   S    
C11   H30   S    
O17   P1    S    
C66   H22   S    
C29   C33   D    
C41   H38   S    
C62   H2    S    
O5    P2    S    
C1    H3    S    
C56   H19   S    
C18   C41   A    
O3    P5    S    
C61   H56   S    
C20   H33   S    
C23   C34   S    
C55   H51   S    
C46   P3    S    
C10   C11   A    
C6    C14   D    
C47   C48   D    
C12   O18   S    
C25   C26   A    
C40   C64   S    
C15   C30   S    
O1    P1    D    
C20   C21   A    
O4    P1    S    
C65   O25   D    
O9    P8    S    
Ba1   O1    S    
O29   P8    S    
H59   O26   S    
C50   P2    S    
Ba1   O4    S    
C16   H54   S    
C38   H35   S    
C42   H40   S    
