data_mof_unit_58818.cif
_audit_creation_date              2013-03-05T15:48:49-0500
_audit_creation_method            fapswitch 2.2
_symmetry_space_group_name_H-M    P1
_symmetry_Int_Tables_number       1
_space_group_crystal_system       triclinic
_cell_length_a                    17.800157
_cell_length_b                    24.476389
_cell_length_c                    15.081268
_cell_angle_alpha                 89.907103
_cell_angle_beta                  126.020111
_cell_angle_gamma                 89.984854
_cell_volume                      5314.40716026

loop_
_atom_site_label
_atom_site_type_symbol
_atom_site_description
_atom_site_fract_x
_atom_site_fract_y
_atom_site_fract_z
_atom_type_partial_charge
C1    C     C_R   0.954491 0.846514 0.094223 0.301980
C2    C     C_R   0.954212 0.153777 0.092904 0.311403
C3    C     C_R   0.452979 0.346558 0.093003 0.270395
C4    C     C_R   0.453073 0.653524 0.092572 0.276596
N1    N     N_R   0.950530 0.896220 0.057200 -0.085757
N2    N     N_R   0.950530 0.103780 0.057200 -0.089886
N3    N     N_R   0.450530 0.396220 0.057200 -0.086945
N4    N     N_R   0.450530 0.603780 0.057200 -0.085961
C5    C     C_R   0.858246 0.154007 0.910989 0.264086
C6    C     C_R   0.859581 0.845631 0.912281 0.271086
C7    C     C_R   0.360354 0.654278 0.910611 0.222731
C8    C     C_R   0.359270 0.346006 0.910992 0.231057
N5    N     N_R   0.893330 0.103780 0.942800 -0.091320
N6    N     N_R   0.893330 0.896220 0.942800 -0.090110
N7    N     N_R   0.393330 0.603780 0.942800 -0.095881
N8    N     N_R   0.393330 0.396220 0.942800 -0.093489
C9    C     C_R   0.746514 0.954677 0.695353 -0.063658
C10   C     C_R   0.744237 0.044884 0.695146 -0.067419
C11   C     C_R   0.233713 0.454813 0.757135 -0.041223
C12   C     C_R   0.235345 0.546141 0.759141 -0.017887
H1    H     H_    0.737381 0.914034 0.665348 0.186766
H2    H     H_    0.726968 0.086019 0.665878 0.179848
H3    H     H_    0.211170 0.412893 0.743941 0.143317
H4    H     H_    0.216651 0.588579 0.752027 0.139282
N9    N     N_R   0.818150 0.971400 0.792440 -0.056909
N10   N     N_R   0.818150 0.028600 0.792440 -0.054932
N11   N     N_R   0.318150 0.471400 0.792440 -0.044186
N12   N     N_R   0.318150 0.528600 0.792440 -0.046401
C13   C     C_R   0.036147 0.046574 0.295297 0.079632
C14   C     C_R   0.032445 0.954975 0.295777 -0.073894
C15   C     C_R   0.482094 0.545512 0.249896 -0.081336
C16   C     C_R   0.482198 0.453608 0.248714 -0.068905
H5    H     H_    0.052042 0.088278 0.322007 0.179048
H6    H     H_    0.040141 0.913351 0.323376 0.167554
H7    H     H_    0.475407 0.587631 0.265330 0.159840
H8    H     H_    0.474071 0.411007 0.258479 0.159295
N13   N     N_R   0.025710 0.028600 0.207560 -0.068849
N14   N     N_R   0.025710 0.971400 0.207560 -0.047815
N15   N     N_R   0.525710 0.528600 0.207560 -0.057034
N16   N     N_R   0.525710 0.471400 0.207560 -0.061150
C17   C     C_R   0.896301 0.812858 0.005560 -0.053187
C18   C     C_R   0.894732 0.186919 0.003543 -0.052083
C19   C     C_R   0.392500 0.313645 0.003667 -0.002045
C20   C     C_R   0.393555 0.686680 0.002821 -0.007579
C21   C     C_R   0.699005 0.999503 0.632969 0.178183
C22   C     C_R   0.178110 0.501024 0.724467 0.119932
C23   C     C_R   0.037390 0.001655 0.350263 0.076572
C24   C     C_R   0.454662 0.499173 0.277625 0.216892
C25   C     C_R   0.267729 0.953732 0.261584 -0.013506
C26   C     C_R   0.268721 0.045755 0.266272 -0.080523
C27   C     C_R   0.758845 0.454765 0.300915 -0.032345
C28   C     C_R   0.757902 0.546126 0.298787 0.017224
H9    H     H_    0.287074 0.911502 0.278162 0.185005
H10   H     H_    0.289969 0.087382 0.291653 0.169306
H11   H     H_    0.772287 0.413133 0.330514 0.174405
H12   H     H_    0.769179 0.588197 0.324868 0.192695
N17   N     N_R   0.181850 0.971400 0.207560 -0.075823
N18   N     N_R   0.181850 0.028600 0.207560 -0.072584
N19   N     N_R   0.681850 0.471400 0.207560 -0.065633
N20   N     N_R   0.681850 0.528600 0.207560 -0.074821
C29   C     C_R   0.024859 0.045424 0.760175 0.007768
C30   C     C_R   0.025183 0.955371 0.758644 -0.017743
C31   C     C_R   0.441966 0.544633 0.691441 -0.053713
C32   C     C_R   0.443170 0.455151 0.692373 0.011720
H13   H     H_    0.038368 0.086981 0.755696 0.182448
H14   H     H_    0.041400 0.914315 0.753069 0.176637
H15   H     H_    0.415953 0.584637 0.662432 0.223627
H16   H     H_    0.422282 0.414132 0.665349 0.216360
N21   N     N_R   0.974290 0.028600 0.792440 -0.054137
N22   N     N_R   0.974290 0.971400 0.792440 -0.048621
N23   N     N_R   0.474290 0.528600 0.792440 -0.064547
N24   N     N_R   0.474290 0.471400 0.792440 -0.069561
C33   C     C_R   0.070903 0.852236 0.909861 0.264606
C34   C     C_R   0.070005 0.149088 0.911460 0.271167
C35   C     C_R   0.584018 0.360465 0.909670 0.314099
C36   C     C_R   0.587878 0.636683 0.909479 0.303180
N25   N     N_R   0.049470 0.896220 0.942800 -0.081045
N26   N     N_R   0.049470 0.103780 0.942800 -0.082263
N27   N     N_R   0.549470 0.396220 0.942800 -0.076081
N28   N     N_R   0.549470 0.603780 0.942800 -0.070735
C37   C     C_R   0.164466 0.145367 0.094266 -0.051010
C38   C     C_R   0.164938 0.854670 0.092845 -0.076849
C39   C     C_R   0.682075 0.632619 0.094395 -0.055302
C40   C     C_R   0.680507 0.365788 0.094462 -0.050473
H17   H     H_    0.211828 0.156636 0.179385 0.146583
H18   H     H_    0.211179 0.841760 0.177173 0.154870
H19   H     H_    0.735506 0.640527 0.179841 0.154221
H20   H     H_    0.734343 0.358159 0.180092 0.154571
N29   N     N_R   0.106670 0.103780 0.057200 -0.068919
N30   N     N_R   0.106670 0.896220 0.057200 -0.068892
N31   N     N_R   0.606670 0.603780 0.057200 -0.070005
N32   N     N_R   0.606670 0.396220 0.057200 -0.068676
Ni1   Ni    Ni4+2 0.065600 0.934400 0.131190 0.275999
Ni2   Ni    Ni4+2 0.065600 0.065600 0.131190 0.264129
Ni3   Ni    Ni4+2 0.565600 0.434400 0.131190 0.273326
Ni4   Ni    Ni4+2 0.565600 0.565600 0.131190 0.278646
Ni5   Ni    Ni4+2 0.934400 0.065600 0.868810 0.317314
Ni6   Ni    Ni4+2 0.934400 0.934400 0.868810 0.318032
Ni7   Ni    Ni4+2 0.434400 0.565600 0.868810 0.312672
Ni8   Ni    Ni4+2 0.434400 0.434400 0.868810 0.312148
C41   C     C_R   0.323954 0.999481 0.297889 0.206435
C42   C     C_R   0.810135 0.500842 0.356454 0.144146
C43   C     C_R   0.048965 0.000973 0.726137 0.108084
C44   C     C_R   0.422939 0.499867 0.625885 0.119843
C45   C     C_R   0.148893 0.829018 0.002146 0.020309
C46   C     C_R   0.147301 0.172585 0.004638 0.024960
C47   C     C_R   0.669769 0.344001 0.003435 -0.010867
C48   C     C_R   0.673705 0.652864 0.003689 -0.004121
C49   C     C_3   0.044662 0.062805 0.485271 0.645365
C50   C     C_3   0.952374 0.975803 0.423413 0.643131
C51   C     C_3   0.363079 0.542362 0.336899 0.675808
C52   C     C_3   0.401437 0.442523 0.370311 0.615686
H21   H     H_    0.110899 0.080960 0.507150 0.059064
H22   H     H_    0.938455 0.936959 0.378078 0.096934
H23   H     H_    0.391105 0.583023 0.337586 0.067531
H24   H     H_    0.442264 0.408429 0.370963 0.074038
C53   C     C_3   0.039788 0.063521 0.583293 0.363138
C54   C     C_3   0.964893 0.964655 0.531455 0.370848
C55   C     C_3   0.344764 0.540170 0.426479 0.362775
C56   C     C_3   0.409602 0.439169 0.477522 0.359435
H25   H     H_    0.193675 0.991258 0.556514 0.232785
H26   H     H_    0.128648 0.929397 0.523918 0.253835
H27   H     H_    0.560182 0.551837 0.464769 0.236120
H28   H     H_    0.581788 0.480526 0.495426 0.256201
H29   H     H_    0.200042 0.003643 0.711780 0.252006
H30   H     H_    0.155029 0.937163 0.692381 0.243545
H31   H     H_    0.523747 0.565615 0.582790 0.232991
H32   H     H_    0.574299 0.500970 0.638073 0.257246
C57   C     C_3   0.130886 0.973247 0.544529 -0.601098
C58   C     C_3   0.530168 0.513579 0.471750 -0.611333
C59   C     C_3   0.041482 0.003230 0.449334 -0.250203
C60   C     C_3   0.436399 0.499021 0.361423 -0.248807
C61   C     C_3   0.047798 0.002100 0.626216 -0.171393
C62   C     C_3   0.419468 0.499834 0.523520 -0.161890
C63   C     C_3   0.139426 0.977854 0.652341 -0.359239
C64   C     C_3   0.516614 0.521489 0.561821 -0.413346
C65   C     C_3   0.755976 0.203392 0.998712 0.123128
C66   C     C_3   0.754351 0.793939 0.991561 0.123865
C67   C     C_3   0.245915 0.693844 0.985934 0.127804
C68   C     C_3   0.243050 0.307206 0.982600 0.128283
H33   H     H_    0.717434 0.177058 0.924390 0.144565
H34   H     H_    0.716395 0.818350 0.914376 0.156631
H35   H     H_    0.211347 0.669988 0.908552 0.137975
H36   H     H_    0.208168 0.328513 0.902219 0.133676
C69   C     C_3   0.173896 0.733720 0.974057 -0.482660
C70   C     C_3   0.172017 0.268008 0.974714 -0.483940
C71   C     C_3   0.688961 0.247129 0.985770 -0.507772
C72   C     C_3   0.688867 0.749331 0.978753 -0.503972
H37   H     H_    0.669034 0.239297 0.042135 0.262946
H38   H     H_    0.664713 0.757987 0.030699 0.262990
H39   H     H_    0.152289 0.721527 0.027117 0.267335
H40   H     H_    0.151501 0.281369 0.028202 0.271334
H41   H     H_    0.110705 0.732180 0.888256 0.212816
H42   H     H_    0.108145 0.268836 0.889455 0.211124
H43   H     H_    0.624473 0.244014 0.901642 0.218576
H44   H     H_    0.626359 0.750434 0.892954 0.223172
H45   H     H_    0.243652 0.748590 0.830883 0.181976
H46   H     H_    0.246979 0.249116 0.835212 0.188264
H47   H     H_    0.744160 0.251835 0.833885 0.186667
H48   H     H_    0.755974 0.742004 0.837668 0.189155
H49   H     H_    0.168511 0.818025 0.837283 0.079280
H50   H     H_    0.169576 0.183557 0.844540 0.103056
H51   H     H_    0.686929 0.328749 0.840228 0.107634
H52   H     H_    0.701241 0.664902 0.847813 0.084425
C73   C     C_3   0.291534 0.768882 0.911160 -0.452237
C74   C     C_3   0.293578 0.230465 0.917432 -0.441821
C75   C     C_3   0.800074 0.271866 0.910641 -0.450767
C76   C     C_3   0.810623 0.724485 0.918161 -0.457487
C77   C     C_3   0.896312 0.265456 0.117368 0.301779
C78   C     C_3   0.897611 0.735697 0.122899 0.302099
C79   C     C_3   0.381059 0.757847 0.116276 0.307147
C80   C     C_3   0.379092 0.244875 0.120790 0.302688
C81   C     C_3   0.840052 0.231300 0.008675 -0.019414
C82   C     C_3   0.843054 0.767373 0.010703 -0.009714
C83   C     C_3   0.331026 0.726222 0.005201 -0.035439
C84   C     C_3   0.330087 0.274664 0.007390 -0.047944
H53   H     H_    0.928138 0.238593 0.190051 0.168541
H54   H     H_    0.925063 0.764195 0.192394 0.160561
H55   H     H_    0.413369 0.729135 0.186420 0.148995
H56   H     H_    0.409853 0.274819 0.188648 0.149162
C85   C     C_3   0.214641 0.791891 0.003609 0.019492
C86   C     C_3   0.213463 0.210030 0.007512 -0.007211
C87   C     C_3   0.733491 0.304511 0.007848 0.008536
C88   C     C_3   0.737619 0.692814 0.009106 0.012644
C89   C     C_3   0.233700 0.811822 0.920268 0.647461
C90   C     C_3   0.234649 0.188958 0.927175 0.685896
C91   C     C_3   0.751597 0.319841 0.922010 0.666213
C92   C     C_3   0.762800 0.676165 0.930225 0.669373
C93   C     C_3   0.309265 0.790551 0.119295 -0.386787
C94   C     C_3   0.306944 0.212658 0.124002 -0.395825
C95   C     C_3   0.829483 0.303243 0.121891 -0.369900
C96   C     C_3   0.830479 0.697388 0.125952 -0.366814
H57   H     H_    0.821205 0.287231 0.184867 0.188594
H58   H     H_    0.816970 0.714609 0.183710 0.188923
H59   H     H_    0.299873 0.771020 0.178951 0.187808
H60   H     H_    0.295843 0.232966 0.181519 0.190157
H61   H     H_    0.335316 0.832656 0.149389 0.270737
H62   H     H_    0.333691 0.170898 0.156735 0.268581
H63   H     H_    0.858895 0.345093 0.148103 0.264794
H64   H     H_    0.862411 0.656409 0.158168 0.269443
H65   H     H_    0.347524 0.788531 0.910530 0.268918
H66   H     H_    0.351002 0.209986 0.920884 0.273752
H67   H     H_    0.854294 0.286306 0.901265 0.270252
H68   H     H_    0.868824 0.710555 0.915626 0.266808
C97   C     C_3   0.465524 0.939938 0.396047 1.218403
C98   C     C_3   0.475626 0.039231 0.352096 1.245519
C99   C     C_3   0.966970 0.465002 0.432702 1.247055
C100  C     C_3   0.946438 0.561289 0.479593 1.237095
C101  C     C_3   0.571612 0.941853 0.478311 0.030326
C102  C     C_3   0.576654 0.046253 0.454187 0.050936
C103  C     C_3   0.063975 0.458215 0.539891 0.052137
C104  C     C_3   0.050842 0.560337 0.571313 0.017982
H69   H     H_    0.590284 0.909190 0.539267 0.141276
H70   H     H_    0.579982 0.085210 0.494409 0.129885
H71   H     H_    0.066456 0.417266 0.573912 0.133719
H72   H     H_    0.063462 0.590551 0.633753 0.131549
H73   H     H_    0.399486 0.991537 0.508015 0.256679
H74   H     H_    0.422598 0.059752 0.486640 0.227884
H75   H     H_    0.895213 0.435746 0.544611 0.234342
H76   H     H_    0.866375 0.501963 0.567148 0.262600
H77   H     H_    0.553167 0.973397 0.636126 0.241260
H78   H     H_    0.569000 0.045667 0.637116 0.218881
H79   H     H_    0.039090 0.447747 0.707616 0.220883
H80   H     H_    0.018272 0.518913 0.713096 0.246425
C105  C     C_3   0.442196 0.016128 0.490736 -0.514020
C106  C     C_3   0.914831 0.479685 0.556103 -0.495734
C107  C     C_3   0.424627 0.998751 0.381133 -0.368563
C108  C     C_3   0.907173 0.501585 0.454297 -0.377271
C109  C     C_3   0.601721 0.998825 0.537127 -0.199307
C110  C     C_3   0.080327 0.501974 0.625813 -0.188386
C111  C     C_3   0.544760 0.008669 0.584172 -0.483710
C112  C     C_3   0.015722 0.486511 0.659688 -0.456398
Br1   Br    Br    0.066273 0.824410 0.231532 -0.502331
Br2   Br    Br    0.066915 0.177694 0.227107 -0.508199
Br3   Br    Br    0.564878 0.323091 0.228833 -0.492281
Br4   Br    Br    0.564483 0.676694 0.228853 -0.481253
F1    F     F_    0.973719 0.094463 0.399854 -0.567826
F2    F     F_    0.875363 0.008502 0.353428 -0.530763
F3    F     F_    0.282154 0.535803 0.231955 -0.531548
F4    F     F_    0.310874 0.434257 0.279292 -0.538616
Br5   Br    Br    0.924106 0.102338 0.537776 -0.171713
Br6   Br    Br    0.847430 0.974142 0.511860 -0.238111
Br7   Br    Br    0.216639 0.519480 0.361592 -0.058053
Br8   Br    Br    0.305361 0.395515 0.450644 -0.191289
Br9   Br    Br    0.144599 0.109918 0.692424 -0.486139
Br10  Br    Br    0.987155 0.885047 0.555409 -0.439432
Br11  Br    Br    0.347653 0.616715 0.466737 -0.358957
Br12  Br    Br    0.520411 0.393257 0.578024 -0.486472
Br13  Br    Br    0.790668 0.154891 0.121257 -0.337243
Br14  Br    Br    0.780241 0.845198 0.106459 -0.433034
Br15  Br    Br    0.278873 0.640332 0.100067 -0.456570
Br16  Br    Br    0.272593 0.364653 0.088177 -0.411254
Br17  Br    Br    0.798241 0.178529 0.763242 -0.486801
Br18  Br    Br    0.796715 0.821046 0.764420 -0.482951
Br19  Br    Br    0.321811 0.680529 0.769769 -0.438185
Br20  Br    Br    0.311944 0.320564 0.766758 -0.447918
Br21  Br    Br    0.996520 0.308392 0.132710 -0.253408
Br22  Br    Br    0.003016 0.693445 0.149422 -0.245598
Br23  Br    Br    0.479480 0.806604 0.141372 -0.228803
Br24  Br    Br    0.478817 0.195225 0.151658 -0.238762
F5    F     F_    0.279807 0.861550 0.952913 -0.625928
F6    F     F_    0.279528 0.138781 0.961567 -0.603068
F7    F     F_    0.805693 0.366556 0.953439 -0.608622
F8    F     F_    0.820434 0.630676 0.969837 -0.608036
F9    F     F_    0.432836 0.904848 0.438942 -0.712755
F10   F     F_    0.434680 0.090458 0.322048 -0.711978
F11   F     F_    0.930308 0.413053 0.396807 -0.708588
F12   F     F_    0.902903 0.592631 0.514030 -0.695804
F13   F     F_    0.438973 0.918947 0.295977 -0.624072
F14   F     F_    0.473144 0.018854 0.264649 -0.558424
F15   F     F_    0.971216 0.488916 0.352228 -0.568347
F16   F     F_    0.929947 0.586040 0.386602 -0.636841
Br25  Br    Br    0.634016 0.920052 0.412293 -0.148156
Br26  Br    Br    0.661816 0.059565 0.415268 -0.129881
Br27  Br    Br    0.157539 0.451867 0.511710 -0.251333
Br28  Br    Br    0.122144 0.587530 0.517783 -0.220379
Br29  Br    Br    0.988250 0.816840 0.770650 -0.431370
Br30  Br    Br    0.988685 0.184928 0.771989 -0.440937
Br31  Br    Br    0.510022 0.323364 0.771621 -0.462047
Br32  Br    Br    0.522053 0.668442 0.765587 -0.506265

loop_
_geom_bond_atom_site_label_1
_geom_bond_atom_site_label_2
_geom_bond_distance
_ccdc_geom_bond_type
C39   H19   1.077979 S    
C17   C82   1.493507 S    
C35   C47   1.396811 A    
C76   C92   1.529218 S    
C103  C110  1.572283 S    
C69   C85   1.540887 S    
C4    Br4   1.920725 S    
C68   H36   1.113339 S    
C67   Br15  1.956277 S    
C67   C83   1.578388 S    
C80   H56   1.108094 S    
C68   Br16  1.952355 S    
C20   C83   1.491102 S    
C52   H24   1.102650 S    
C4    N4    1.320146 A    
C32   H16   1.065666 S    
C53   C61   1.608619 S    
C50   C54   1.533153 S    
C110  C112  1.554744 S    
C98   F10   1.384892 S    
C11   C22   1.387726 A    
C49   C53   1.531064 S    
C29   N21   1.315786 A    
C90   F6    1.387671 S    
C27   C42   1.382479 A    
C76   C82   1.562213 S    
C72   H44   1.104360 S    
C79   C93   1.530999 S    
C5    C18   1.398861 A    
C105  C111  1.524892 S    
N19   Ni3   1.905220 S    
C4    C20   1.386552 A    
C78   H54   1.106342 S    
C8    Br20  1.917957 S    
C16   H8    1.074499 S    
C51   C55   1.565916 S    
C29   C43   1.375499 A    
C9    C21   1.365480 A    
C8    C19   1.398040 A    
C3    N3    1.319518 A    
N21   N22   1.400049 A    
H80   C112  1.113068 S    
C74   H66   1.111689 S    
C106  C112  1.547534 S    
C13   N13   1.300656 A    
C103  H71   1.114197 S    
C71   C87   1.550326 S    
C105  C107  1.550923 S    
C13   H5    1.073168 S    
C40   C47   1.378148 A    
C25   N17   1.311982 A    
C39   C48   1.377350 A    
C30   N22   1.333359 A    
C66   Br14  1.963972 S    
H51   C91   1.105886 S    
C86   C90   1.554170 S    
C38   C45   1.374856 A    
C91   F7    1.387371 S    
N29   Ni2   1.899818 S    
C102  H70   1.113685 S    
C5    N5    1.332979 A    
C46   C86   1.472924 S    
C55   Br11  1.961733 S    
N4    Ni4   1.902967 S    
C28   N20   1.311942 A    
C3    Br3   1.921000 S    
C70   C86   1.539727 S    
C57   C63   1.545767 S    
C67   H35   1.113255 S    
C2    Br2   1.921614 S    
C34   Br30  1.923928 S    
C104  H72   1.112509 S    
C66   C72   1.524689 S    
C53   Br9   1.968457 S    
C100  F16   1.390302 S    
C10   N10   1.330470 A    
C66   C82   1.569052 S    
C7    Br19  1.917452 S    
N22   Ni6   1.899914 S    
C88   C96   1.557214 S    
N21   Ni5   1.901514 S    
C75   H67   1.112167 S    
N1    N6    1.395443 A    
C80   Br24  1.967166 S    
C10   H2    1.068579 S    
C71   H43   1.104836 S    
C50   H22   1.111651 S    
H74   C105  1.113475 S    
C56   C62   1.605333 S    
C94   H60   1.114223 S    
C75   C81   1.560621 S    
C69   H41   1.108757 S    
C37   H17   1.078486 S    
H29   C63   1.109413 S    
C7    N7    1.330587 A    
C104  Br28  1.977209 S    
N31   Ni4   1.899818 S    
C75   C91   1.525445 S    
N19   N20   1.400049 A    
C36   C48   1.399547 A    
N17   Ni1   1.905220 S    
C103  Br27  1.952223 S    
C6    C17   1.401536 A    
C99   C103  1.529168 S    
C22   C110  1.482500 S    
C79   H55   1.107025 S    
C2    N2    1.323817 A    
C85   C93   1.557413 S    
H47   C75   1.103632 S    
C77   H53   1.105402 S    
C25   C41   1.383250 A    
C98   C102  1.542266 S    
N18   Ni2   1.902923 S    
C51   F3    1.387518 S    
C23   C59   1.453061 S    
N6    Ni6   1.899821 S    
C97   F13   1.388792 S    
C77   Br21  1.963660 S    
N26   N29   1.395443 A    
N11   Ni8   1.902925 S    
C36   Br32  1.920912 S    
C31   H15   1.060505 S    
N25   N30   1.395443 A    
C55   C62   1.609519 S    
C73   C89   1.532807 S    
C14   H6    1.077705 S    
C54   Br6   1.945704 S    
C51   C60   1.547813 S    
C26   N18   1.320088 A    
C8    N8    1.329860 A    
C14   C23   1.380746 A    
C7    C20   1.396189 A    
C30   H14   1.062508 S    
H31   C64   1.112024 S    
C66   H34   1.114019 S    
C1    Br1   1.920850 S    
N15   N16   1.400049 A    
C52   C56   1.537961 S    
C15   H7    1.079094 S    
C85   C89   1.559630 S    
C11   H3    1.077182 S    
N8    Ni8   1.899821 S    
N13   Ni2   1.899915 S    
C62   C64   1.559319 S    
C12   N12   1.318107 A    
N2    Ni2   1.902967 S    
N9    N10   1.400049 A    
C100  F12   1.390339 S    
N23   Ni7   1.901514 S    
C50   C59   1.546433 S    
N32   Ni3   1.901409 S    
C101  H69   1.110333 S    
C50   F2    1.388777 S    
C76   H68   1.112400 S    
C47   C87   1.461401 S    
C96   H58   1.114342 S    
C58   C60   1.554756 S    
C80   C94   1.531997 S    
C95   H57   1.113898 S    
C49   C59   1.545886 S    
N13   N14   1.400049 A    
C87   C91   1.552325 S    
C34   C46   1.388368 A    
C104  C110  1.574837 S    
C19   C84   1.490475 S    
N27   Ni8   1.902968 S    
C65   Br13  1.963785 S    
N9    Ni6   1.902925 S    
C70   H42   1.107639 S    
C97   C101  1.533672 S    
C100  C104  1.531028 S    
C3    C19   1.386077 A    
H77   C111  1.114220 S    
N26   Ni5   1.905274 S    
C42   C108  1.470935 S    
C88   C92   1.552668 S    
H76   C106  1.112682 S    
N25   Ni6   1.902968 S    
C78   Br22  1.965884 S    
C101  C109  1.569664 S    
C52   C60   1.554208 S    
C74   C90   1.528187 S    
C40   N32   1.314340 A    
C78   C82   1.571608 S    
N27   N32   1.395443 A    
C69   H39   1.112933 S    
C54   C61   1.607688 S    
C44   C62   1.508292 S    
C29   H13   1.056420 S    
C70   H40   1.112780 S    
C72   H38   1.113608 S    
N12   Ni7   1.905221 S    
C1    C17   1.383673 A    
N3    N8    1.395443 A    
C13   C23   1.368179 A    
H30   C63   1.111027 S    
N4    N7    1.395443 A    
C106  C108  1.553835 S    
C15   C24   1.392369 A    
C73   H65   1.111766 S    
H27   C58   1.113318 S    
C6    N6    1.335291 A    
C1    N1    1.322247 A    
C100  C108  1.567901 S    
C27   N19   1.324662 A    
C77   C95   1.539542 S    
N16   Ni3   1.901516 S    
H45   C73   1.107887 S    
N28   Ni7   1.905274 S    
C10   C21   1.370109 A    
C56   Br8   1.966393 S    
C68   C70   1.535436 S    
C16   N16   1.318873 A    
C11   N11   1.329323 A    
H79   C112  1.113399 S    
C94   H62   1.112126 S    
N30   Ni1   1.901409 S    
H50   C90   1.102308 S    
C30   C43   1.381293 A    
N24   Ni8   1.899914 S    
C93   H61   1.112362 S    
C32   C44   1.380065 A    
C98   F14   1.386931 S    
C65   H33   1.113838 S    
C37   C46   1.369500 A    
C67   C69   1.535176 S    
C78   C96   1.540917 S    
C77   C81   1.569402 S    
H26   C57   1.112053 S    
C71   H37   1.113210 S    
C6    Br18  1.912258 S    
H49   C89   1.107741 S    
C65   C71   1.527047 S    
C58   C64   1.525505 S    
C36   N28   1.330996 A    
H48   C76   1.101367 S    
C95   H63   1.112570 S    
C31   C44   1.379349 A    
H52   C92   1.104951 S    
C18   C81   1.490520 S    
C87   C95   1.556284 S    
H78   C111  1.114074 S    
C56   Br12  1.981852 S    
N1    Ni1   1.905276 S    
N3    Ni3   1.905276 S    
C54   Br10  1.978169 S    
C57   C59   1.562406 S    
C99   F15   1.388118 S    
C52   F4    1.386495 S    
C48   C88   1.465843 S    
C49   H21   1.113383 S    
C73   C83   1.555036 S    
C33   Br29  1.922653 S    
C92   F8    1.387586 S    
C74   C84   1.549660 S    
C38   N30   1.319431 A    
C28   C42   1.376466 A    
C33   C45   1.382669 A    
C41   C107  1.463420 S    
C101  Br25  1.952451 S    
C9    N9    1.320489 A    
N28   N31   1.395443 A    
H32   C64   1.112705 S    
C65   C81   1.570143 S    
C43   C61   1.495030 S    
H25   C57   1.113136 S    
C37   N29   1.316431 A    
N23   N24   1.400049 A    
C26   H10   1.076500 S    
C38   H18   1.078019 S    
H28   C58   1.113138 S    
N2    N5    1.395443 A    
N7    Ni7   1.901409 S    
C72   C88   1.551236 S    
C5    Br17  1.913687 S    
C89   F5    1.387329 S    
N17   N18   1.400049 A    
C16   C24   1.388094 A    
C40   H20   1.079128 S    
C79   C83   1.564748 S    
C2    C18   1.383126 A    
C25   H9    1.071085 S    
C39   N31   1.315582 A    
N14   Ni1   1.901516 S    
C79   Br23  1.964529 S    
C102  Br26  1.948016 S    
C102  C109  1.565217 S    
C15   N15   1.328692 A    
C93   H59   1.114212 S    
C97   C107  1.567985 S    
C27   H11   1.080575 S    
C96   H64   1.112858 S    
H75   C106  1.112767 S    
N5    Ni5   1.901409 S    
C21   C109  1.464383 S    
C9    H1    1.065765 S    
N15   Ni4   1.899915 S    
C55   Br7   1.947485 S    
N10   Ni5   1.905221 S    
H46   C74   1.105558 S    
C28   H12   1.078859 S    
C99   C108  1.564904 S    
C26   C41   1.386741 A    
C109  C111  1.560757 S    
C99   F11   1.386670 S    
C34   N26   1.337354 A    
C35   Br31  1.917171 S    
C98   C107  1.569753 S    
C61   C63   1.552585 S    
C33   N25   1.332574 A    
C24   C60   1.478516 S    
C51   H23   1.110724 S    
N20   Ni4   1.902923 S    
C86   C94   1.556136 S    
C14   N14   1.325402 A    
C45   C85   1.471380 S    
C49   F1    1.391941 S    
C97   F9    1.391363 S    
C35   N27   1.325235 A    
C31   N23   1.331290 A    
C12   H4    1.076417 S    
C12   C22   1.380849 A    
C80   C84   1.567918 S    
C32   N24   1.327164 A    
H73   C105  1.113969 S    
C68   C84   1.578477 S    
N11   N12   1.400049 A    
C53   Br5   1.987057 S    
