data_mof_unit_29842.cif
_audit_creation_date              2012-12-10T20:45:34-0500
_audit_creation_method            fapswitch 2.2
_symmetry_space_group_name_H-M    P1
_symmetry_Int_Tables_number       1
_space_group_crystal_system       triclinic
_cell_length_a                    10.802063
_cell_length_b                    10.626966
_cell_length_c                    9.992164
_cell_angle_alpha                 92.262342
_cell_angle_beta                  92.05127
_cell_angle_gamma                 93.825625
_cell_volume                      1142.73432219

loop_
_atom_site_label
_atom_site_type_symbol
_atom_type_description
_atom_site_fract_x
_atom_site_fract_y
_atom_site_fract_z
_atom_type_partial_charge
C1    C     C_R   0.500201 0.260051 0.498317 0.888331
C2    C     C_R   0.848121 0.426170 0.965383 -0.223368
C3    C     C_R   0.805561 0.299363 0.966407 -0.084382
C4    C     C_R   0.259721 0.500563 0.497260 0.909992
C5    C     C_R   0.791061 0.225282 0.846404 0.037033
C6    C     C_R   0.824431 0.279116 0.725916 -0.202464
C7    C     C_R   0.878085 0.403208 0.727140 0.112763
C8    C     C_R   0.427252 0.058934 0.579815 0.024841
C9    C     C_R   0.506889 0.127329 0.498731 -0.067916
C10   C     C_R   0.607914 0.070701 0.443747 -0.195118
C11   C     C_R   0.612183 0.940439 0.446672 -0.205782
C12   C     C_R   0.179311 0.441239 0.000968 -0.239416
C13   C     C_R   0.519504 0.871546 0.512370 -0.056001
C14   C     C_R   0.434969 0.931412 0.588754 0.017237
C15   C     C_3   0.297780 0.903843 0.584959 -0.257643
C16   C     C_R   0.508601 0.739172 0.502885 0.879585
C17   C     C_3   0.288770 0.043982 0.571246 -0.433156
C18   C     C_R   0.517154 0.392270 0.066603 0.154769
C19   C     C_R   0.502795 0.609422 0.077563 -0.150899
C20   C     C_R   0.509684 0.610280 0.935395 -0.025934
C21   C     C_R   0.515605 0.392385 0.925390 0.158032
C22   C     C_3   0.443718 0.268468 0.908651 -0.480879
C23   C     C_R   0.933629 0.565064 0.399521 -0.175911
C24   C     C_3   0.441226 0.268835 0.061761 -0.241395
C25   C     C_R   0.739754 0.507022 0.502847 0.868643
C26   C     C_R   0.188836 0.569937 0.038282 -0.157177
C27   C     C_R   0.146438 0.613377 0.162097 0.011397
C28   C     C_R   0.095618 0.522928 0.248433 0.010685
C29   C     C_R   0.080459 0.395208 0.206444 -0.189505
C30   C     C_R   0.122139 0.352461 0.084034 -0.011421
C31   C     C_2   0.747321 0.090588 0.845853 0.399840
C32   C     C_2   0.250620 0.856142 0.714559 0.544764
C33   C     C_2   0.547953 0.731803 0.880328 0.972182
C34   C     C_R   0.872943 0.515356 0.508775 -0.085326
C35   C     C_2   0.504633 0.160278 0.118753 1.004565
C36   C     C_2   0.156043 0.751257 0.196718 0.869327
C37   C     C_2   0.106856 0.214652 0.049141 0.897051
C38   C     C_2   0.099249 0.299887 0.603619 0.884251
C39   C     C_R   0.937877 0.452650 0.607540 -0.051533
C40   C     C_R   0.061058 0.429876 0.586642 -0.148910
C41   C     C_R   0.125162 0.500049 0.492618 -0.083518
C42   C     C_R   0.058862 0.550923 0.386183 0.077109
C43   C     C_R   0.886204 0.477682 0.846402 -0.082151
H1    H     H_    0.215579 0.413216 0.906277 0.168618
H2    H     H_    0.230034 0.635479 0.969618 0.218675
H3    H     H_    0.352705 0.274884 0.856099 0.242476
H4    H     H_    0.500323 0.195495 0.863224 0.194434
H5    H     H_    0.350058 0.279675 0.105220 0.163577
H6    H     H_    0.038164 0.327841 0.272747 0.210027
H7    H     H_    0.880977 0.600857 0.316372 0.164662
H8    H     H_    0.926358 0.573930 0.847958 0.178855
H9    H     H_    0.857028 0.482887 0.058034 0.162495
H10   H     H_    0.729442 0.037250 0.751422 0.083911
H11   H     H_    0.269744 0.911071 0.807801 0.155496
H12   H     H_    0.786736 0.259252 0.061387 0.235952
H13   H     H_    0.516024 0.915456 0.865456 0.352109
H14   H     H_    0.493209 0.974884 0.155686 0.367936
H15   H     H_    0.220418 0.925378 0.148258 0.382397
H16   H     H_    0.017433 0.046375 0.082402 0.375799
H17   H     H_    0.067071 0.296528 0.799392 0.315476
H18   H     H_    0.817586 0.222312 0.633089 0.128964
H19   H     H_    0.680819 0.126073 0.397083 0.206037
H20   H     H_    0.684119 0.893655 0.395348 0.174335
H21   H     H_    0.262954 0.845671 0.494759 0.216462
H22   H     H_    0.251597 0.065117 0.470135 0.263730
H23   H     H_    0.248454 0.092007 0.658164 0.265860
H24   H     H_    0.506394 0.697809 0.135502 0.188941
N1    N     N_R   0.499160 0.499140 0.142800 -0.123931
N2    N     N_R   0.499160 0.499180 0.857150 -0.143937
O1    O     O_R   0.500020 0.316790 0.614690 -0.626859
O2    O     O_2   0.189221 0.755575 0.715586 -0.575699
O3    O     O_2   0.645523 0.743635 0.822248 -0.599473
O4    O     O_R   0.479281 0.836147 0.906023 -0.796659
O5    O     O_2   0.608528 0.176202 0.170964 -0.641765
O6    O     O_R   0.442627 0.040584 0.112708 -0.754613
O7    O     O_2   0.103352 0.793679 0.293141 -0.634040
O8    O     O_R   0.223335 0.833907 0.116389 -0.767942
O9    O     O_2   0.171532 0.166628 0.966263 -0.617180
O10   O     O_R   0.019508 0.138258 0.114398 -0.776294
O11   O     O_2   0.129431 0.240461 0.504678 -0.637724
O12   O     O_R   0.500000 0.316760 0.385350 -0.600981
O13   O     O_R   0.093591 0.239946 0.724472 -0.766082
O14   O     O_R   0.316770 0.500030 0.614670 -0.607256
O15   O     O_R   0.316750 0.499990 0.385330 -0.615382
O16   O     O_R   0.500000 0.683240 0.614650 -0.595817
O17   O     O_R   0.499980 0.683210 0.385310 -0.637119
O18   O     O_R   0.683250 0.500010 0.614670 -0.588638
O19   O     O_R   0.683230 0.499970 0.385330 -0.625330
O20   O     O_2   0.732165 0.037078 0.950497 -0.530438
Zn1   Zn    Zn3+2 0.500010 0.500020 0.653130 1.000421
Zn2   Zn    Zn3+2 0.499990 0.499980 0.346870 0.972921

loop_
_geom_bond_atom_site_label_1
_geom_bond_atom_site_label_2
_ccdc_geom_bond_type
C35   O5    D    
C18   C21   A    
C41   C42   A    
C19   C20   A    
C15   C32   S    
C29   H6    S    
C37   O10   S    
C35   O6    S    
C26   C27   A    
C23   C42   A    
C18   C24   S    
C6    H18   S    
C28   C29   A    
C11   H20   S    
C36   O8    S    
C5    C6    A    
C4    C41   S    
C18   N1    A    
H15   O8    S    
C25   O18   A    
N1    Zn2   S    
C36   O7    D    
C26   H2    S    
C3    H12   S    
C8    C9    A    
C31   O20   D    
C15   H21   S    
C19   H24   S    
O15   Zn2   S    
C7    C43   A    
C9    C10   A    
C33   O3    D    
C25   C34   S    
C22   H4    S    
C13   C14   A    
C38   O13   S    
C16   O17   A    
C10   H19   S    
H17   O13   S    
C32   H11   S    
C32   O2    D    
C24   C35   S    
C34   C39   A    
C24   H5    S    
C1    C9    S    
H16   O10   S    
C39   C40   A    
C23   H7    S    
C25   O19   A    
C30   C37   S    
C21   N2    A    
C29   C30   A    
C4    O15   A    
O19   Zn2   S    
C2    C43   A    
C23   C34   A    
C17   H23   S    
C19   N1    A    
C31   H10   S    
C2    H9    S    
C20   C33   S    
C33   O4    S    
C40   C41   A    
C22   H3    S    
C16   O16   A    
C22   C24   S    
C20   N2    A    
O18   Zn1   S    
N2    Zn1   S    
C15   C17   S    
O14   Zn1   S    
C8    C14   A    
H13   O4    S    
C12   C30   A    
C1    O1    A    
C3    C5    A    
O16   Zn1   S    
C6    C7    A    
C27   C36   S    
C37   O9    D    
C17   H22   S    
C8    C17   S    
O17   Zn2   S    
H14   O6    S    
C2    C3    A    
C12   H1    S    
C38   C40   S    
C11   C13   A    
C43   H8    S    
C4    O14   A    
C38   O11   D    
O1    Zn1   S    
C28   C42   S    
C10   C11   A    
O12   Zn2   S    
C13   C16   S    
C12   C26   A    
C27   C28   A    
C7    C39   S    
C14   C15   S    
C21   C22   S    
C1    O12   A    
C5    C31   S    
