data_mof_unit_43929.cif
_audit_creation_date              2012-12-10T19:47:24-0500
_audit_creation_method            fapswitch 2.2
_symmetry_space_group_name_H-M    P1
_symmetry_Int_Tables_number       1
_space_group_crystal_system       triclinic
_cell_length_a                    11.254769
_cell_length_b                    11.129102
_cell_length_c                    13.141191
_cell_angle_alpha                 90.423265
_cell_angle_beta                  91.815749
_cell_angle_gamma                 90.34403
_cell_volume                      1645.10266682

loop_
_atom_site_label
_atom_site_type_symbol
_atom_type_description
_atom_site_fract_x
_atom_site_fract_y
_atom_site_fract_z
_atom_type_partial_charge
C1    C     C_R   0.262234 0.496531 0.501288 0.762033
C2    C     C_R   0.737225 0.504916 0.498077 0.780154
C3    C     C_R   0.484243 0.871559 0.498650 -0.077293
C4    C     C_R   0.485298 0.127959 0.505942 -0.081931
C5    C     C_R   0.443308 0.939192 0.414275 0.006973
C6    C     C_R   0.530634 0.060075 0.588329 0.016946
C7    C     C_R   0.238761 0.399450 0.811709 -0.119235
C8    C     C_R   0.777974 0.605190 0.171143 -0.154897
C9    C     C_R   0.178119 0.407868 0.718415 -0.116999
C10   C     C_R   0.819328 0.595315 0.271442 -0.101711
C11   C     C_R   0.123431 0.516568 0.689732 0.112510
C12   C     C_R   0.872387 0.488012 0.304351 0.137006
C13   C     C_R   0.128554 0.615301 0.755896 -0.181835
C14   C     C_R   0.885307 0.393866 0.234773 -0.189861
C15   C     C_R   0.178479 0.602207 0.853114 0.050940
C16   C     C_R   0.871097 0.415126 0.129980 0.053970
C17   C     C_R   0.235008 0.495140 0.879887 -0.140891
C18   C     C_R   0.805831 0.517233 0.100254 -0.166173
C19   C     C_R   0.939980 0.545937 0.581952 -0.049688
C20   C     C_R   0.058727 0.468322 0.411729 -0.058125
C21   C     C_R   0.871555 0.511389 0.494663 -0.159974
C22   C     C_R   0.126716 0.493442 0.501841 -0.154988
C23   C     C_R   0.494876 0.262567 0.502282 0.761624
C24   C     C_R   0.495370 0.737383 0.498272 0.768485
C25   C     C_R   0.933149 0.482804 0.406162 -0.057022
C26   C     C_R   0.063865 0.524540 0.589095 -0.045220
C27   C     C_2   0.484060 0.461329 0.034855 -0.253798
C28   C     C_2   0.534305 0.536422 0.965599 -0.308686
C29   C     C_1   0.524278 0.524153 0.850867 0.189708
C30   C     C_1   0.484239 0.475319 0.149375 0.229722
C31   C     C_R   0.751120 0.264079 0.718547 -0.107090
C32   C     C_R   0.374724 0.757373 0.176264 -0.092696
C33   C     C_R   0.702184 0.184149 0.647390 -0.136619
C34   C     C_R   0.360214 0.808033 0.272444 -0.113570
C35   C     C_R   0.600703 0.117658 0.670748 0.094020
C36   C     C_R   0.445544 0.889311 0.311191 0.089225
C37   C     C_R   0.559291 0.117817 0.769688 -0.213961
C38   C     C_R   0.543446 0.919161 0.253930 -0.185386
C39   C     C_R   0.611871 0.194370 0.843691 0.067272
C40   C     C_R   0.556178 0.872451 0.156043 0.066584
C41   C     C_R   0.703329 0.272717 0.814897 -0.134271
C42   C     C_R   0.468574 0.793620 0.116306 -0.176871
C43   C     C_R   0.518338 0.934847 0.587941 -0.250177
C44   C     C_R   0.433987 0.064949 0.422693 -0.252949
Cu1   Cu    Cu3+1 0.492140 0.492110 0.395880 0.989945
Cu2   Cu    Cu3+1 0.507860 0.507890 0.604120 1.000370
H1    H     H_    0.737172 0.340765 0.866974 0.120390
H2    H     H_    0.472256 0.759766 0.039543 0.129735
H3    H     H_    0.090721 0.700731 0.733499 0.136033
H4    H     H_    0.921368 0.311114 0.263578 0.112550
H5    H     H_    0.586163 0.611749 0.994910 0.149676
H6    H     H_    0.435900 0.384706 0.004156 0.168091
H7    H     H_    0.823256 0.321684 0.696896 0.119235
H8    H     H_    0.311498 0.692125 0.146753 0.144916
H9    H     H_    0.736463 0.181999 0.571260 0.102084
H10   H     H_    0.285561 0.781488 0.317391 0.112513
H11   H     H_    0.485803 0.059305 0.787434 0.113640
H12   H     H_    0.609076 0.981396 0.286176 0.124549
H13   H     H_    0.546047 0.886634 0.655432 0.159084
H14   H     H_    0.394601 0.114154 0.360026 0.145938
H15   H     H_    0.276757 0.486082 0.952901 0.124202
H16   H     H_    0.778402 0.531869 0.022457 0.118126
H17   H     H_    0.283698 0.317238 0.832998 0.121990
H18   H     H_    0.729681 0.683358 0.146790 0.149330
H19   H     H_    0.175646 0.330815 0.667470 0.107200
H20   H     H_    0.808600 0.670003 0.323630 0.111393
N1    N     N_1   0.480320 0.480250 0.239400 -0.161408
N2    N     N_1   0.519680 0.519750 0.760600 -0.157324
O1    O     O_R   0.313000 0.493330 0.412070 -0.568720
O2    O     O_R   0.687000 0.506670 0.587930 -0.560997
O3    O     O_R   0.326280 0.506660 0.587930 -0.566981
O4    O     O_R   0.673720 0.493340 0.412070 -0.574423
O5    O     O_R   0.493370 0.312980 0.412070 -0.588598
O6    O     O_R   0.506630 0.687020 0.587930 -0.577662
O7    O     O_R   0.506650 0.326310 0.587930 -0.560324
O8    O     O_R   0.493350 0.673690 0.412070 -0.573516
C45   C     C_R   0.168749 0.699199 0.927404 0.097329
C46   C     C_R   0.235056 0.804598 0.916894 -0.162499
C47   C     C_R   0.231030 0.893585 0.991496 -0.146802
C48   C     C_R   0.162319 0.877073 0.077184 -0.136144
C49   C     C_R   0.092022 0.774110 0.085420 -0.154035
C50   C     C_R   0.093696 0.686081 0.009725 -0.163698
H21   H     H_    0.291783 0.816450 0.852587 0.123229
H22   H     H_    0.283643 0.973515 0.983666 0.123787
H23   H     H_    0.165290 0.942892 0.138239 0.106564
H24   H     H_    0.037919 0.761628 0.151162 0.131302
H25   H     H_    0.039988 0.606064 0.017238 0.143189
C51   C     C_R   0.935443 0.340856 0.053949 0.094229
C52   C     C_R   0.944415 0.379447 0.952824 -0.192079
C53   C     C_R   0.996044 0.307062 0.879841 -0.102961
C54   C     C_R   0.057483 0.204694 0.908810 -0.130980
C55   C     C_R   0.059821 0.171304 0.010242 -0.173681
C56   C     C_R   0.992243 0.232510 0.080606 -0.114405
H26   H     H_    0.910283 0.464527 0.928776 0.108109
H27   H     H_    0.991604 0.332654 0.801157 0.123780
H28   H     H_    0.103851 0.152049 0.853178 0.116921
H29   H     H_    0.110415 0.095140 0.033908 0.125164
H30   H     H_    0.988976 0.194612 0.155538 0.111998
C57   C     C_R   0.885285 0.629555 0.653266 0.132291
C58   C     C_R   0.846586 0.589662 0.746903 -0.102195
C59   C     C_R   0.770710 0.660556 0.802827 -0.100304
C60   C     C_R   0.730077 0.768953 0.763149 -0.077977
C61   C     C_R   0.778868 0.815367 0.675239 -0.155938
C62   C     C_R   0.855861 0.745270 0.619631 -0.172613
H31   H     H_    0.867995 0.500681 0.771536 0.095548
H32   H     H_    0.738532 0.628788 0.873907 0.100312
H33   H     H_    0.659380 0.815543 0.799810 0.103358
H34   H     H_    0.753734 0.903103 0.647723 0.130948
H35   H     H_    0.886780 0.777854 0.547565 0.114470
C63   C     C_R   0.118977 0.422538 0.322712 0.162444
C64   C     C_R   0.156555 0.302690 0.319665 -0.162361
C65   C     C_R   0.214088 0.260105 0.234629 -0.147068
C66   C     C_R   0.234142 0.337408 0.153430 -0.077568
C67   C     C_R   0.200300 0.457342 0.159125 -0.138852
C68   C     C_R   0.143087 0.500444 0.243307 -0.086854
H36   H     H_    0.139503 0.242617 0.382088 0.106674
H37   H     H_    0.238678 0.166623 0.230924 0.102064
H38   H     H_    0.272528 0.304928 0.084657 0.123825
H39   H     H_    0.218820 0.517932 0.099270 0.113968
H40   H     H_    0.117538 0.593876 0.247213 0.101805
C69   C     C_R   0.576616 0.188982 0.951302 0.106193
C70   C     C_R   0.661976 0.211798 0.029286 -0.109915
C71   C     C_R   0.632662 0.207891 0.131160 -0.106797
C72   C     C_R   0.518263 0.175508 0.156500 -0.095357
C73   C     C_R   0.435123 0.141765 0.080637 -0.159019
C74   C     C_R   0.462202 0.152384 0.978217 -0.212074
H41   H     H_    0.752476 0.226550 0.010696 0.143408
H42   H     H_    0.699056 0.226744 0.190458 0.132594
H43   H     H_    0.495740 0.174036 0.235043 0.143447
H44   H     H_    0.348657 0.109997 0.101115 0.119168
H45   H     H_    0.393425 0.133825 0.920948 0.109555
C75   C     C_R   0.662690 0.904637 0.098610 0.114695
C76   C     C_R   0.655869 0.921429 0.992820 -0.148583
C77   C     C_R   0.757273 0.955531 0.941132 -0.148383
C78   C     C_R   0.866435 0.964837 0.992527 -0.063337
C79   C     C_R   0.873243 0.953217 0.097975 -0.134683
C80   C     C_R   0.772796 0.922180 0.150723 -0.195082
H46   H     H_    0.571747 0.913490 0.951004 0.116021
H47   H     H_    0.752002 0.977220 0.861240 0.140741
H48   H     H_    0.944871 0.982371 0.949950 0.147938
H49   H     H_    0.955959 0.968345 0.139746 0.117389
H50   H     H_    0.782485 0.909018 0.232062 0.111495

loop_
_geom_bond_atom_site_label_1
_geom_bond_atom_site_label_2
_ccdc_geom_bond_type
C33   H9    S    
C80   H50   S    
C34   H10   S    
C59   C60   A    
C64   C65   A    
Cu2   O6    S    
C49   C50   A    
C53   C54   A    
C78   C79   A    
C39   C41   A    
C14   H4    S    
C45   C46   A    
C3    C43   A    
C58   H31   S    
C1    O3    A    
C30   N1    T    
Cu1   O8    S    
C45   C50   A    
C55   C56   A    
C28   C29   S    
C35   C37   A    
C47   H22   S    
C28   H5    S    
C20   C25   A    
C50   H25   S    
C5    C36   S    
C52   H26   S    
C6    C35   S    
Cu1   O5    S    
C70   H41   S    
C19   C26   A    
C63   C64   A    
Cu2   O7    S    
C61   C62   A    
C17   H15   S    
C54   H28   S    
C38   H12   S    
C46   H21   S    
C75   C76   A    
C7    C17   A    
Cu1   N1    S    
C31   C33   A    
C61   H34   S    
C14   C16   A    
C67   H39   S    
C43   H13   S    
C40   C42   A    
C57   C62   A    
C40   C75   S    
C1    C22   S    
C1    O1    A    
Cu1   O4    S    
C3    C24   S    
C73   C74   A    
C23   O5    A    
C2    O4    A    
C73   H44   S    
C32   H8    S    
C65   C66   A    
C55   H29   S    
C67   C68   A    
C10   H20   S    
C78   H48   S    
Cu2   O3    S    
Cu1   O1    S    
C71   C72   A    
C4    C6    A    
C23   O7    A    
C54   C55   A    
C4    C23   S    
C19   C57   S    
C46   C47   A    
C24   O8    A    
C4    C44   A    
C11   C26   S    
C75   C80   A    
Cu1   Cu2   S    
C8    C18   A    
C66   H38   S    
C32   C34   A    
Cu2   N2    S    
C48   H23   S    
C29   N2    T    
C57   C58   A    
C2    C21   S    
C41   H1    S    
C60   H33   S    
C42   H2    S    
C31   H7    S    
C9    C11   A    
C7    H17   S    
C69   C70   A    
C64   H36   S    
C10   C12   A    
C8    H18   S    
C13   H3    S    
C16   C18   A    
C5    C44   A    
C12   C14   A    
C6    C43   A    
C13   C15   A    
C76   C77   A    
C20   C63   S    
C77   H47   S    
C27   H6    S    
C66   C67   A    
C59   H32   S    
C7    C9    A    
C21   C25   A    
C51   C56   A    
C31   C41   A    
C19   C21   A    
C18   H16   S    
C49   H24   S    
C20   C22   A    
C48   C49   A    
C3    C5    A    
C53   H27   S    
C15   C17   A    
C77   C78   A    
C12   C25   S    
C39   C69   S    
C65   H37   S    
C36   C38   A    
C52   C53   A    
C69   C74   A    
C37   C39   A    
C38   C40   A    
C11   C13   A    
C24   O6    A    
C71   H42   S    
C15   C45   S    
C74   H45   S    
C44   H14   S    
C56   H30   S    
C58   C59   A    
C33   C35   A    
C79   H49   S    
C72   H43   S    
C34   C36   A    
C60   C61   A    
C9    H19   S    
Cu2   O2    S    
C47   C48   A    
C76   H46   S    
C51   C52   A    
C8    C10   A    
C68   H40   S    
C22   C26   A    
C27   C28   D    
C16   C51   S    
C32   C42   A    
C62   H35   S    
C79   C80   A    
C70   C71   A    
C2    O2    A    
C63   C68   A    
C37   H11   S    
C72   C73   A    
C27   C30   S    
