data_mof_unit_27869.cif
_audit_creation_date              2012-12-10T20:59:41-0500
_audit_creation_method            fapswitch 2.2
_symmetry_space_group_name_H-M    P1
_symmetry_Int_Tables_number       1
_space_group_crystal_system       triclinic
_cell_length_a                    15.845242
_cell_length_b                    15.059394
_cell_length_c                    10.69566
_cell_angle_alpha                 89.381599
_cell_angle_beta                  90.276715
_cell_angle_gamma                 90.302893
_cell_volume                      2551.98225099

loop_
_atom_site_label
_atom_site_type_symbol
_atom_type_description
_atom_site_fract_x
_atom_site_fract_y
_atom_site_fract_z
_atom_type_partial_charge
C1    C     C_R   0.338938 0.499764 0.498554 0.933127
C2    C     C_1   0.175920 0.498699 0.496588 0.172939
C3    C     C_1   0.250698 0.499081 0.497368 -0.003297
C4    C     C_1   0.749328 0.500681 0.495658 -0.064433
C5    C     C_R   0.435329 0.951997 0.562920 0.234495
C6    C     C_R   0.429615 0.046323 0.548351 0.299771
C7    C     C_R   0.504687 0.500391 0.257652 0.885536
C8    C     C_R   0.499238 0.905224 0.498711 -0.304653
C9    C     C_R   0.499326 0.094784 0.499120 -0.319707
C10   C     C_R   0.562573 0.953753 0.433544 0.301601
C11   C     C_R   0.568511 0.047910 0.448435 0.289157
C12   C     C_3   0.544736 0.403141 0.934801 0.654374
C13   C     C_1   0.499726 0.807089 0.499423 0.437421
C14   C     C_1   0.499672 0.192912 0.499664 0.471848
C15   C     C_R   0.661044 0.500227 0.497204 0.941508
C16   C     C_R   0.503518 0.499085 0.743005 1.012670
C17   C     C_3   0.553002 0.584728 0.073436 -0.477301
C18   C     C_3   0.414948 0.500453 0.073862 -0.413685
C19   C     C_3   0.558963 0.580986 0.930078 0.182341
C20   C     C_3   0.414840 0.514306 0.931327 0.206319
C21   C     C_3   0.557551 0.418582 0.076596 -0.442857
C22   C     C_3   0.507065 0.500683 0.122230 -0.097627
C23   C     C_R   0.956508 0.580650 0.497967 -0.182607
C24   C     C_3   0.507005 0.496085 0.879306 -0.364848
C25   C     C_R   0.954681 0.419424 0.490471 -0.197455
C26   C     C_R   0.912815 0.500333 0.493926 0.003930
C27   C     C_R   0.042345 0.417852 0.490847 0.416169
C28   C     C_R   0.044198 0.580897 0.498946 0.301545
C29   C     C_R   0.086817 0.499068 0.495419 -0.143795
C30   C     C_1   0.824097 0.500760 0.494652 0.061759
H1    H     H_    0.616291 0.589843 0.118389 0.199953
H2    H     H_    0.918777 0.358002 0.488122 0.204504
H3    H     H_    0.625585 0.774435 0.224078 0.389260
H4    H     H_    0.723114 0.230027 0.465166 0.389106
H5    H     H_    0.754590 0.568521 0.027014 0.360504
H6    H     H_    0.282234 0.368451 0.728146 0.410117
H7    H     H_    0.691888 0.255266 0.760961 0.404494
H8    H     H_    0.493143 0.166095 0.979872 0.402977
H9    H     H_    0.129024 0.669467 0.701576 0.378340
H10   H     H_    0.173735 0.242013 0.619801 0.413132
H11   H     H_    0.202155 0.073154 0.603971 0.403544
H12   H     H_    0.382805 0.438575 0.103811 0.261721
H13   H     H_    0.376604 0.969795 0.830069 0.371153
H14   H     H_    0.517761 0.645411 0.100336 0.219481
H15   H     H_    0.378835 0.555304 0.117489 0.183798
H16   H     H_    0.525720 0.641347 0.894886 0.157976
H17   H     H_    0.402886 0.586630 0.918635 0.143596
H18   H     H_    0.624752 0.431059 0.100363 0.208155
H19   H     H_    0.541136 0.357522 0.130439 0.246031
H20   H     H_    0.922048 0.642560 0.500762 0.216103
N1    N     N_1   0.500020 0.270550 0.499960 -0.042895
N2    N     N_1   0.500020 0.729450 0.499960 -0.060111
O1    O     O_R   0.378020 0.573650 0.500000 -0.581636
O2    O     O_2   0.705657 0.861943 0.404882 -0.225888
O3    O     O_3   0.580904 0.808704 0.266081 -0.577860
O4    O     O_2   0.738779 0.050306 0.416090 -0.148531
O5    O     O_2   0.652628 0.142982 0.275488 -0.226111
O6    O     O_3   0.677062 0.194523 0.503582 -0.569569
O7    O     O_2   0.673786 0.605840 0.742501 -0.220144
O8    O     O_2   0.684491 0.700588 0.923324 -0.257525
O9    O     O_3   0.737090 0.539455 0.948356 -0.447146
O10   O     O_2   0.258109 0.440630 0.951105 -0.207852
O11   O     O_2   0.281356 0.546921 0.781396 -0.295457
O12   O     O_R   0.378020 0.426350 0.500000 -0.580702
O13   O     O_3   0.338798 0.388580 0.755763 -0.464907
O14   O     O_2   0.674458 0.430892 0.763719 -0.275912
O15   O     O_2   0.713959 0.358836 0.960478 -0.230939
O16   O     O_3   0.635356 0.268146 0.795276 -0.446406
O17   O     O_2   0.393045 0.311615 0.984013 -0.241768
O18   O     O_2   0.464179 0.275929 0.788930 -0.185057
O19   O     O_3   0.527998 0.219632 0.995800 -0.482827
O20   O     O_2   0.150279 0.695078 0.387944 -0.208778
O21   O     O_2   0.039097 0.760059 0.515558 -0.203802
O22   O     O_3   0.165220 0.683516 0.628678 -0.438888
O23   O     O_R   0.499990 0.573670 0.314770 -0.626355
O24   O     O_2   0.032791 0.239619 0.468883 -0.222099
O25   O     O_2   0.159092 0.314220 0.386390 -0.238191
O26   O     O_3   0.143679 0.299157 0.627392 -0.524645
O27   O     O_2   0.340614 0.137380 0.716825 -0.231729
O28   O     O_2   0.323302 0.182577 0.498022 -0.280890
O29   O     O_3   0.249556 0.038397 0.570031 -0.409192
O30   O     O_2   0.292758 0.856382 0.586090 -0.116788
O31   O     O_2   0.409300 0.813822 0.723523 -0.307191
O32   O     O_3   0.326862 0.954850 0.777757 -0.413561
O33   O     O_R   0.499990 0.426330 0.314770 -0.633172
O34   O     O_R   0.621980 0.573680 0.499940 -0.590776
O35   O     O_R   0.621980 0.426320 0.499940 -0.606248
O36   O     O_R   0.500010 0.573660 0.685180 -0.606993
O37   O     O_R   0.500010 0.426340 0.685180 -0.528607
O38   O     O_2   0.661698 0.954994 0.226533 -0.156465
S1    S     S_3+6 0.631298 0.895592 0.330920 0.115124
S2    S     S_3+6 0.364996 0.891313 0.663015 0.140675
S3    S     S_3+6 0.662041 0.108261 0.407099 0.115767
S4    S     S_3+6 0.665461 0.607413 0.881977 0.094452
S5    S     S_3+6 0.320562 0.471861 0.854539 0.085040
S6    S     S_3+6 0.645251 0.367885 0.863759 0.129460
S7    S     S_3+6 0.477249 0.303328 0.922234 0.127353
S8    S     S_3+6 0.099228 0.683640 0.505100 0.118953
S9    S     S_3+6 0.094692 0.314149 0.489142 0.089480
S10   S     S_3+6 0.334844 0.104410 0.584940 0.103608
Zn1   Zn    Zn3+2 0.500000 0.598370 0.499960 1.104302
Zn2   Zn    Zn3+2 0.500000 0.401630 0.499960 1.131203

loop_
_geom_bond_atom_site_label_1
_geom_bond_atom_site_label_2
_ccdc_geom_bond_type
H3    O3    S    
C18   H15   S    
C8    C13   S    
O37   Zn2   S    
C27   C29   A    
C6    C9    A    
C21   H19   S    
O36   Zn1   S    
C19   H16   S    
O22   S8    S    
O20   S8    D    
O24   S9    D    
O12   Zn2   S    
O31   S2    D    
O19   S7    S    
C27   S9    S    
O16   S6    S    
C2    C29   S    
C15   O35   A    
C28   C29   A    
O6    S3    S    
C18   H12   S    
C5    C6    A    
C23   C26   A    
C13   N2    T    
H7    O16   S    
O11   S5    D    
O30   S2    D    
H9    O22   S    
C1    O1    A    
O3    S1    S    
C20   C24   S    
O1    Zn1   S    
N1    Zn2   S    
O7    S4    D    
O18   S7    D    
C21   H18   S    
C11   S3    S    
C25   H2    S    
C16   O37   A    
C16   C24   S    
O5    S3    D    
C21   C22   S    
O28   S10   D    
H13   O32   S    
O4    S3    D    
O21   S8    D    
C16   O36   A    
N2    Zn1   S    
C5    S2    S    
O27   S10   D    
O9    S4    S    
C23   H20   S    
C7    O23   A    
C25   C26   A    
C12   C21   S    
C1    C3    S    
C6    S10   S    
C9    C14   S    
O35   Zn2   S    
C14   N1    T    
H11   O29   S    
H5    O9    S    
C23   C28   A    
C9    C11   A    
C12   S7    S    
C19   S4    S    
C15   O34   A    
C20   S5    S    
C10   S1    S    
C26   C30   S    
O15   S6    D    
C17   H1    S    
H10   O26   S    
C1    O12   A    
O14   S6    D    
C28   S8    S    
H8    O19   S    
O23   Zn1   S    
C18   C22   S    
C19   C24   S    
C5    C8    A    
O29   S10   S    
C25   C27   A    
C7    C22   S    
C12   C24   S    
C17   C22   S    
H6    O13   S    
C4    C15   S    
C2    C3    T    
C17   H14   S    
O2    S1    D    
O38   S1    D    
C7    O33   A    
C17   C19   S    
O25   S9    D    
C18   C20   S    
C20   H17   S    
C10   C11   A    
O13   S5    S    
C8    C10   A    
O26   S9    S    
H4    O6    S    
C12   S6    S    
O32   S2    S    
O10   S5    D    
O34   Zn1   S    
C4    C30   T    
O33   Zn2   S    
O8    S4    D    
O17   S7    D    
