data_mof_unit_15618.cif
_audit_creation_date              2012-10-26T19:27:17-0400
_audit_creation_method            fapswitch 2.2
_symmetry_space_group_name_H-M    P1
_symmetry_Int_Tables_number       1
_space_group_crystal_system       triclinic
_cell_length_a                    13.68518
_cell_length_b                    15.080494
_cell_length_c                    17.370713
_cell_angle_alpha                 89.940361
_cell_angle_beta                  85.760336
_cell_angle_gamma                 90.382874
_cell_volume                      3575.06100116

loop_
_atom_site_label
_atom_site_type_symbol
_atom_type_description
_atom_site_fract_x
_atom_site_fract_y
_atom_site_fract_z
_atom_type_partial_charge
C1    C     C_R   0.500153 0.671224 0.502380 0.530261
C2    C     C_R   0.564668 0.909025 0.549311 0.022915
C3    C     C_R   0.498833 0.046748 0.498943 0.050958
C4    C     C_R   0.500225 0.953318 0.501875 0.045423
C5    C     C_R   0.561870 0.095634 0.543683 0.010089
C6    C     C_R   0.436766 0.904459 0.457459 0.011674
C7    C     C_R   0.374055 0.039913 0.406047 -0.132980
C8    C     C_R   0.624155 0.960143 0.595395 -0.108943
C9    C     C_R   0.374706 0.947926 0.409724 -0.128487
C10   C     C_R   0.623297 0.052157 0.591959 -0.137976
C11   C     C_R   0.211874 0.555853 0.451560 0.048688
C12   C     C_R   0.499871 0.328797 0.497547 0.591438
C13   C     C_R   0.787972 0.445384 0.549457 0.047928
C14   C     C_R   0.201644 0.445760 0.549643 0.038116
C15   C     C_R   0.798232 0.555527 0.451493 0.057601
C16   C     C_R   0.487250 0.500634 0.649992 0.532352
C17   C     C_R   0.512845 0.498522 0.350029 0.578377
C18   C     C_R   0.098418 0.445725 0.551830 -0.059055
C19   C     C_R   0.901256 0.557706 0.451205 -0.050500
C20   C     C_R   0.051642 0.502479 0.501917 -0.003186
C21   C     C_R   0.947961 0.502137 0.502092 -0.002010
C22   C     C_R   0.108606 0.559132 0.451531 -0.004047
C23   C     C_R   0.562049 0.187555 0.540578 -0.154211
C24   C     C_R   0.890952 0.445820 0.552706 -0.003779
C25   C     C_R   0.041351 0.390686 0.602923 -0.115559
C26   C     C_R   0.958117 0.614337 0.401527 -0.110942
C27   C     C_R   0.938328 0.391858 0.605171 0.261581
C28   C     C_R   0.060832 0.617342 0.402726 0.260142
C29   C     C_R   0.481098 0.502918 0.734255 0.013618
C30   C     C_R   0.519583 0.491884 0.265937 0.029942
C31   C     C_R   0.567431 0.509979 0.772714 -0.137142
C32   C     C_R   0.434142 0.477732 0.227669 -0.095545
C33   C     C_R   0.563053 0.512119 0.852620 -0.109198
C34   C     C_R   0.436517 0.812557 0.460549 -0.148318
C35   C     C_R   0.439384 0.470003 0.147999 -0.101867
C36   C     C_R   0.472180 0.506047 0.895422 0.045135
C37   C     C_R   0.530106 0.477698 0.105231 0.041317
C38   C     C_R   0.385732 0.501066 0.857186 -0.114246
C39   C     C_R   0.615891 0.489223 0.143365 -0.111726
C40   C     C_R   0.390050 0.499130 0.776899 -0.129876
C41   C     C_R   0.610749 0.496634 0.223438 -0.126521
C42   C     C_2   0.465317 0.506397 0.979969 -0.132640
C43   C     C_2   0.536937 0.474754 0.020754 -0.132267
C44   C     C_3   0.844130 0.384052 0.719952 -0.003577
C45   C     C_R   0.499450 0.232201 0.494125 0.001276
C46   C     C_3   0.910206 0.379165 0.787141 -0.258039
C47   C     C_3   0.862948 0.424689 0.858879 -0.484806
C48   C     C_3   0.138974 0.752060 0.390716 -0.004990
C49   C     C_3   0.056707 0.820581 0.389959 -0.263011
C50   C     C_3   0.088958 0.910141 0.420523 -0.470692
C51   C     C_2   0.373116 0.232532 0.395290 0.235981
C52   C     C_2   0.631662 0.765326 0.599226 0.228788
C53   C     C_R   0.500695 0.767876 0.505605 -0.033561
C54   C     C_R   0.435888 0.184768 0.447928 -0.002921
C55   C     C_R   0.565874 0.815133 0.550408 -0.002842
C56   C     C_R   0.435053 0.091002 0.450957 -0.008794
Cu1   Cu    Cu3+1 0.402580 0.500010 0.500000 0.961225
Cu2   Cu    Cu3+1 0.597420 0.499990 0.500000 0.956096
H1    H     H_    0.638613 0.514425 0.741176 0.120150
H2    H     H_    0.322465 0.494274 0.748377 0.122815
H3    H     H_    0.603810 0.448768 0.992008 0.114889
H4    H     H_    0.398720 0.532566 0.009063 0.118128
H5    H     H_    0.315018 0.497410 0.889533 0.102882
H6    H     H_    0.686518 0.494290 0.111035 0.105184
H7    H     H_    0.372444 0.457303 0.120267 0.108519
H8    H     H_    0.630827 0.519867 0.880336 0.101083
H9    H     H_    0.609796 0.224974 0.575980 0.123095
H10   H     H_    0.387762 0.775196 0.425949 0.112184
H11   H     H_    0.325598 0.069858 0.367254 0.103093
H12   H     H_    0.363107 0.471858 0.259239 0.152016
H13   H     H_    0.671352 0.930292 0.635138 0.170381
H14   H     H_    0.327082 0.910530 0.374435 0.098653
H15   H     H_    0.670667 0.089502 0.627578 0.122602
H16   H     H_    0.772327 0.352910 0.738295 0.149370
H17   H     H_    0.828602 0.454845 0.706677 0.113894
H18   H     H_    0.924127 0.308577 0.800900 0.178011
H19   H     H_    0.981534 0.412045 0.770393 0.155432
H20   H     H_    0.849693 0.495760 0.846689 0.147793
H21   H     H_    0.912483 0.420303 0.906538 0.149588
H22   H     H_    0.792213 0.391920 0.877688 0.144015
H23   H     H_    0.257442 0.597945 0.413100 0.149662
H24   H     H_    0.205707 0.780044 0.359105 0.147234
H25   H     H_    0.158534 0.739989 0.451085 0.117820
H26   H     H_    0.034940 0.829141 0.330023 0.178612
H27   H     H_    0.991897 0.796861 0.426705 0.169371
H28   H     H_    0.113920 0.902842 0.479606 0.158015
H29   H     H_    0.026384 0.956787 0.422774 0.160706
H30   H     H_    0.149359 0.938551 0.381782 0.141884
H31   H     H_    0.297063 0.213306 0.391876 0.090876
H32   H     H_    0.602801 0.710047 0.634179 0.116380
H33   H     H_    0.742380 0.401971 0.586673 0.147995
H34   H     H_    0.238732 0.402638 0.587763 0.118254
H35   H     H_    0.761175 0.598273 0.413049 0.125794
H36   H     H_    0.076606 0.347021 0.641819 0.115476
H37   H     H_    0.922842 0.657192 0.361998 0.117295
H38   H     H_    0.677762 0.506586 0.251892 0.125435
N1    N     N_R   0.256180 0.500070 0.500030 -0.244998
N2    N     N_R   0.743820 0.499930 0.499970 -0.246168
O1    O     O_R   0.417720 0.629750 0.499980 -0.515895
O2    O     O_3   0.113726 0.673500 0.351927 -0.582693
O3    O     O_2   0.406649 0.292744 0.354137 -0.495145
O4    O     O_2   0.719174 0.782231 0.597371 -0.519249
O5    O     O_R   0.582280 0.370250 0.500020 -0.506734
O6    O     O_R   0.582260 0.629730 0.499990 -0.497260
O7    O     O_R   0.417740 0.370270 0.500010 -0.480495
O8    O     O_R   0.408190 0.500030 0.613590 -0.515065
O9    O     O_R   0.591810 0.499970 0.386410 -0.510847
O10   O     O_R   0.572730 0.500000 0.613600 -0.524609
O11   O     O_R   0.427270 0.500000 0.386400 -0.490538
O12   O     O_3   0.885433 0.335516 0.655845 -0.581560

loop_
_geom_bond_atom_site_label_1
_geom_bond_atom_site_label_2
_ccdc_geom_bond_type
Cu1   O7    S    
C40   H2    S    
C14   C18   A    
C36   C42   S    
Cu2   N2    S    
C24   C27   A    
C47   H21   S    
C1    O1    A    
C6    C9    A    
C46   H18   S    
C39   C41   A    
C11   H23   S    
C15   C19   A    
C39   H6    S    
C52   O4    D    
C23   C45   A    
C7    C56   A    
C49   H26   S    
C35   C37   A    
C2    C55   A    
C17   O9    A    
C12   O7    A    
C10   H15   S    
C41   H38   S    
C35   H7    S    
C31   H1    S    
Cu1   O1    S    
C33   C36   A    
Cu2   O9    S    
C23   H9    S    
C13   N2    A    
C19   C26   A    
C1    C53   S    
C52   H32   S    
Cu1   O11   S    
C27   O12   S    
C9    H14   S    
C30   C41   A    
C42   H4    S    
C18   C20   A    
C52   C55   S    
C16   O8    A    
C28   O2    S    
Cu1   O8    S    
C25   H36   S    
C38   C40   A    
C22   C28   A    
C13   H33   S    
C17   C30   S    
C18   C25   A    
C47   H22   S    
C44   C46   S    
C33   H8    S    
C53   C55   A    
C48   O2    S    
C54   C56   A    
C32   C35   A    
C49   H27   S    
C12   O5    A    
C4    C6    A    
C34   H10   S    
C16   O10   A    
C32   H12   S    
C16   C29   S    
C6    C34   A    
C13   C24   A    
C37   C43   S    
C44   H17   S    
C2    C4    A    
C15   H35   S    
C3    C56   A    
C5    C23   A    
Cu1   N1    S    
C31   C33   A    
C44   H16   S    
C1    O6    A    
C14   H34   S    
C50   H29   S    
C8    C10   A    
C48   C49   S    
C20   C22   A    
C45   C54   A    
Cu2   O6    S    
C42   C43   D    
C15   N2    A    
C3    C4    A    
C43   H3    S    
C14   N1    A    
C38   H5    S    
C26   H37   S    
C7    C9    A    
C46   C47   S    
C8    H13   S    
C19   C21   A    
C2    C8    A    
C12   C45   S    
C3    C5    A    
C17   O11   A    
C7    H11   S    
C46   H19   S    
C50   H30   S    
C25   C27   A    
C11   C22   A    
C26   C28   A    
C48   H25   S    
C11   N1    A    
C51   C54   S    
C36   C38   A    
C5    C10   A    
C29   C31   A    
C51   H31   S    
C30   C32   A    
Cu1   Cu2   S    
C29   C40   A    
C48   H24   S    
Cu2   O10   S    
C50   H28   S    
C20   C21   A    
C34   C53   A    
C37   C39   A    
C49   C50   S    
C21   C24   A    
Cu2   O5    S    
C47   H20   S    
C51   O3    D    
C44   O12   S    
