data_mof_unit_56857.cif
_audit_creation_date              2012-12-11T15:41:26-0500
_audit_creation_method            fapswitch 2.2
_symmetry_space_group_name_H-M    P1
_symmetry_Int_Tables_number       1
_space_group_crystal_system       triclinic
_cell_length_a                    15.072502
_cell_length_b                    15.081759
_cell_length_c                    15.086006
_cell_angle_alpha                 109.009197
_cell_angle_beta                  109.729364
_cell_angle_gamma                 109.674089
_cell_volume                      2639.84998118

loop_
_atom_site_label
_atom_site_type_symbol
_atom_type_description
_atom_site_fract_x
_atom_site_fract_y
_atom_site_fract_z
_atom_type_partial_charge
C1    C     C_R   0.198204 0.000027 0.908999 -0.175593
C2    C     C_R   0.789321 0.909051 0.382948 0.458685
C3    C     C_R   0.313597 0.275338 0.805122 -0.197755
C4    C     C_R   0.699893 0.803957 0.325130 -0.204777
C5    C     C_R   0.302500 0.324424 0.893982 -0.066416
C6    C     C_R   0.694920 0.719352 0.245711 -0.056071
C7    C     C_R   0.201165 0.279009 0.886886 -0.259844
C8    C     C_R   0.786669 0.737122 0.234016 -0.256254
C9    C     C_R   0.115616 0.177962 0.798604 0.485759
C10   C     C_R   0.877805 0.841326 0.292275 0.490062
C11   C     C_R   0.131325 0.119699 0.715765 -0.326647
C12   C     C_R   0.746204 0.933650 0.027328 -0.178101
C13   C     C_R   0.878019 0.930198 0.363570 -0.392072
C14   C     C_R   0.400008 0.517027 0.019557 -0.173857
C15   C     C_R   0.583374 0.519553 0.150509 -0.207219
C16   C     C_R   0.794368 0.214898 0.307119 -0.098127
C17   C     C_R   0.255368 0.780522 0.687866 -0.079619
C18   C     C_R   0.497476 0.615514 0.093874 0.063713
C19   C     C_R   0.490905 0.421334 0.063585 0.056558
C20   C     C_R   0.589553 0.617777 0.164678 0.116782
C21   C     C_R   0.398009 0.420603 0.996738 0.101664
C22   C     C_R   0.041163 0.396382 0.446990 -0.129631
C23   C     C_R   0.848485 0.312101 0.313673 -0.020722
C24   C     C_R   0.040861 0.591202 0.531483 -0.123971
C25   C     C_R   0.136642 0.489011 0.533540 -0.057883
C26   C     C_R   0.947064 0.500081 0.445349 -0.068518
C27   C     C_R   0.135141 0.585422 0.576043 0.091555
C28   C     C_R   0.947467 0.403395 0.404280 0.099383
C29   C     C_R   0.505788 0.146710 0.585790 0.433770
C30   C     C_R   0.494918 0.963642 0.441324 0.408983
C31   C     C_R   0.511179 0.143000 0.494587 0.440136
C32   C     C_R   0.489062 0.966993 0.531335 0.416700
C33   C     C_R   0.505247 0.051326 0.423311 -0.356636
C34   C     C_R   0.225355 0.678423 0.675375 -0.016665
C35   C     C_R   0.493561 0.057939 0.602125 -0.387155
C36   C     C_R   0.022177 0.925830 0.018256 -0.055766
C37   C     C_R   0.861905 0.911813 0.844178 -0.002499
C38   C     C_R   0.933297 0.926291 0.022185 -0.115757
C39   C     C_R   0.952752 0.911748 0.840505 -0.090858
C40   C     C_R   0.409831 0.967928 0.224041 -0.108643
C41   C     C_R   0.587543 0.097590 0.791097 -0.202675
C42   C     C_R   0.855550 0.924751 0.937816 0.100824
C43   C     C_R   0.034252 0.922809 0.929709 0.114203
C44   C     C_R   0.589575 0.314316 0.056002 -0.054113
C45   C     C_R   0.502099 0.041637 0.324939 0.187670
C46   C     C_R   0.412186 0.708445 0.015173 -0.090176
C47   C     C_R   0.592443 0.061682 0.313686 -0.013355
C48   C     C_R   0.406489 0.998787 0.698717 0.024739
C49   C     C_R   0.407981 0.219417 0.975247 -0.110179
C50   C     C_R   0.591863 0.792725 0.095220 -0.100921
C51   C     C_R   0.795454 0.306613 0.216175 -0.128374
C52   C     C_R   0.249319 0.686365 0.776040 -0.055600
C53   C     C_R   0.194897 0.901338 0.990588 0.379190
C54   C     C_R   0.756569 0.030445 0.942304 0.486718
C55   C     C_R   0.137257 0.939561 0.939365 -0.028954
C56   C     C_R   0.495061 0.060997 0.697664 0.166102
C57   C     C_R   0.779141 0.952789 0.957689 -0.067434
C58   C     C_2   0.304517 0.897980 0.208737 1.076533
C59   C     C_2   0.682914 0.205621 0.840671 1.218536
C60   C     C_2   0.852403 0.370399 0.177160 1.041705
C61   C     C_2   0.207119 0.594475 0.794188 0.980262
C62   C     C_2   0.051889 0.002099 0.635296 1.098297
C63   C     C_2   0.966474 0.043374 0.411875 1.168265
C64   C     C_R   0.496672 0.322626 0.038105 0.045272
C65   C     C_R   0.502487 0.704946 0.073606 0.083987
C66   C     C_R   0.229017 0.173860 0.716353 0.467657
Cl1   Cl    Cl    0.248530 0.119051 0.606769 -0.530029
Cl2   Cl    Cl    0.824074 0.113550 0.901574 -0.560819
Cl3   Cl    Cl    0.782049 0.011755 0.473212 -0.538202
Cl4   Cl    Cl    0.993193 0.127642 0.800279 -0.482505
Cl5   Cl    Cl    0.989226 0.855965 0.272033 -0.546888
Cl6   Cl    Cl    0.516708 0.262441 0.679984 -0.500276
Cl7   Cl    Cl    0.486203 0.847630 0.349983 -0.559254
Cl8   Cl    Cl    0.524011 0.251564 0.468726 -0.496394
Cl9   Cl    Cl    0.479056 0.857943 0.556667 -0.528761
Cl10  Cl    Cl    0.126401 0.769345 0.968017 -0.545743
H1    H     H_    0.170137 0.028205 0.853919 0.109365
H2    H     H_    0.038802 0.665302 0.565919 0.144421
H3    H     H_    0.210103 0.485377 0.568570 0.178884
H4    H     H_    0.873607 0.504287 0.411608 0.141601
H5    H     H_    0.085278 0.935445 0.088399 0.177329
H6    H     H_    0.800276 0.907921 0.777456 0.188874
H7    H     H_    0.823515 0.188853 0.364175 0.137872
H8    H     H_    0.238758 0.800673 0.623927 0.145374
H9    H     H_    0.931252 0.937551 0.095960 0.178945
H10   H     H_    0.961305 0.906829 0.770945 0.159285
H11   H     H_    0.672361 0.379763 0.100331 0.136891
H12   H     H_    0.755877 0.881294 0.059612 0.139252
H13   H     H_    0.332692 0.666462 0.004976 0.172037
H14   H     H_    0.676181 0.108355 0.378014 0.159145
H15   H     H_    0.322096 0.966823 0.641808 0.162858
H16   H     H_    0.324791 0.194988 0.953449 0.121672
H17   H     H_    0.676444 0.822525 0.146438 0.101301
H18   H     H_    0.181195 0.888527 0.236937 0.383396
H19   H     H_    0.715769 0.162435 0.718976 0.320760
H20   H     H_    0.925463 0.375499 0.087614 0.381662
H21   H     H_    0.188350 0.447991 0.769365 0.344440
H22   H     H_    0.899704 0.875034 0.558017 0.319217
H23   H     H_    0.390145 0.313430 0.807568 0.212548
H24   H     H_    0.073805 0.150017 0.394622 0.341522
H25   H     H_    0.631077 0.788786 0.337369 0.240164
H26   H     H_    0.190629 0.319471 0.953249 0.205120
H27   H     H_    0.784694 0.671324 0.174454 0.200037
H28   H     H_    0.328276 0.512813 0.965039 0.146453
H29   H     H_    0.653704 0.520179 0.203192 0.147109
H30   H     H_    0.040093 0.320438 0.413120 0.140633
N1    N     N_R   0.293810 0.002730 0.945950 -0.066557
N2    N     N_R   0.443210 0.997250 0.791090 -0.071136
N3    N     N_R   0.443180 0.152110 0.945950 -0.053552
N4    N     N_R   0.556820 0.847890 0.054050 -0.050374
N5    N     N_R   0.706170 0.208950 0.152090 -0.064449
N6    N     N_R   0.293830 0.791050 0.847910 -0.058957
N7    N     N_R   0.293800 0.945910 0.002760 -0.093070
N8    N     N_R   0.706200 0.054090 0.997240 -0.081422
N9    N     N_R   0.706190 0.997270 0.054050 -0.068329
N10   N     N_R   0.706160 0.152130 0.208910 -0.056156
N11   N     N_R   0.293840 0.847870 0.791090 -0.060163
N12   N     N_R   0.443140 0.945920 0.152090 -0.071474
N13   N     N_R   0.556860 0.054080 0.847910 -0.065858
N14   N     N_R   0.556830 0.208940 0.002760 -0.045270
N15   N     N_R   0.443170 0.791060 0.997240 -0.059562
N16   N     N_R   0.556790 0.002750 0.208910 -0.065729
Ni1   Ni    Ni4+2 0.369690 0.999990 0.869700 0.231960
Ni2   Ni    Ni4+2 0.630310 0.000010 0.130300 0.227339
Ni3   Ni    Ni4+2 0.369670 0.869670 0.000000 0.310481
Ni4   Ni    Ni4+2 0.630330 0.130330 0.000000 0.301485
O1    O     O_2   0.269018 0.800289 0.169144 -0.514071
O2    O     O_R   0.943359 0.956028 0.610377 -0.711884
O3    O     O_2   0.995203 0.113573 0.501242 -0.590392
O4    O     O_R   0.015403 0.070783 0.353635 -0.752061
O5    O     O_R   0.250941 0.944631 0.248936 -0.770613
O6    O     O_2   0.709716 0.277739 0.927544 -0.598371
O7    O     O_R   0.740082 0.228748 0.787431 -0.672047
O8    O     O_2   0.879444 0.466277 0.213222 -0.627387
O9    O     O_R   0.882720 0.322803 0.105334 -0.722279
O10   O     O_2   0.157164 0.594116 0.843205 -0.542497
O11   O     O_R   0.222279 0.506745 0.753104 -0.807701
O12   O     O_2   0.082394 0.943818 0.593034 -0.624075

loop_
_geom_bond_atom_site_label_1
_geom_bond_atom_site_label_2
_ccdc_geom_bond_type
C40   N12   A    
C33   C45   S    
C14   C18   A    
C24   C27   A    
N1    Ni1   S    
C11   C62   S    
C61   O11   S    
C32   Cl9   S    
N8    N9    A    
C46   H13   S    
C44   C64   A    
C18   C65   S    
C15   C19   A    
H19   O7    S    
C14   C21   A    
C19   C21   A    
C24   C26   A    
C38   C42   A    
C52   C61   S    
N4    N15   A    
N6    N11   A    
N8    Ni4   S    
H24   O4    S    
C63   O4    S    
C54   Cl2   S    
C44   N14   A    
C50   N4    A    
C1    H1    S    
C48   C56   A    
N12   N16   A    
C45   C47   A    
C37   C42   A    
C2    C13   A    
N1    N7    A    
N4    Ni2   S    
C23   C51   A    
C22   C25   A    
C31   C33   A    
C46   N15   A    
N5    N10   A    
N12   Ni3   S    
C44   H11   S    
C36   H5    S    
C18   C20   A    
C11   C66   A    
C17   N11   A    
C29   Cl6   S    
C10   Cl5   S    
H22   O2    S    
C66   Cl1   S    
C58   O1    D    
C49   C64   A    
C22   C28   A    
N2    N13   A    
C15   C20   A    
C16   N10   A    
C42   C57   S    
H21   O11   S    
C50   C65   A    
C53   N7    A    
H20   O9    S    
C53   C55   A    
C27   C34   S    
C40   C45   A    
C59   O6    D    
C40   C58   S    
C12   H12   S    
C38   H9    S    
C32   C35   A    
C9    Cl4   S    
C41   C59   S    
C46   C65   A    
C4    C6    A    
C5    C7    A    
C30   Cl7   S    
N3    Ni1   S    
C47   N16   A    
C39   C43   A    
C3    C5    A    
C22   H30   S    
C7    H26   S    
C16   H7    S    
C41   N13   A    
C2    C4    A    
C41   C56   A    
N15   Ni3   S    
C48   H15   S    
C14   H28   S    
C13   C63   S    
C58   O5    S    
C4    H25   S    
N5    Ni4   S    
C23   C28   S    
C62   O12   D    
C9    C11   A    
C60   O9    S    
N6    Ni3   S    
C1    N1    A    
C12   C57   A    
C24   H2    S    
C16   C23   A    
C47   H14   S    
C37   H6    S    
C62   O2    S    
C3    C66   A    
C17   C34   A    
C49   H16   S    
N16   Ni2   S    
C2    Cl3   S    
C60   O8    D    
C49   N3    A    
C43   C55   S    
C7    C9    A    
C51   N5    A    
N9    Ni2   S    
N10   Ni2   S    
C30   C33   A    
C35   C56   S    
C25   H3    S    
C34   C52   A    
C8    C10   A    
C31   Cl8   S    
C10   C13   A    
C6    C8    A    
C50   H17   S    
C25   C27   A    
C6    C20   S    
C29   C35   A    
C26   C28   A    
H18   O5    S    
C17   H8    S    
C12   N9    A    
C36   C38   A    
N11   Ni1   S    
C29   C31   A    
C30   C32   A    
C15   H29   S    
C48   N2    A    
C54   N8    A    
N7    Ni3   S    
C19   C64   S    
C59   O7    S    
N14   Ni4   S    
C63   O3    D    
C1    C55   A    
C8    H27   S    
C26   H4    S    
C53   Cl10  S    
N13   Ni4   S    
C3    H23   S    
C5    C21   S    
N3    N14   A    
C37   C39   A    
C52   N6    A    
C36   C43   A    
C51   C60   S    
N2    Ni1   S    
C39   H10   S    
C61   O10   D    
C54   C57   A    
