data_mof_unit_45803.cif
_audit_creation_date              2012-12-10T17:12:00-0500
_audit_creation_method            fapswitch 2.2
_symmetry_space_group_name_H-M    P1
_symmetry_Int_Tables_number       1
_space_group_crystal_system       triclinic
_cell_length_a                    11.760061
_cell_length_b                    12.935173
_cell_length_c                    15.848441
_cell_angle_alpha                 93.894397
_cell_angle_beta                  73.756435
_cell_angle_gamma                 101.137497
_cell_volume                      2270.76331234

loop_
_atom_site_label
_atom_site_type_symbol
_atom_type_description
_atom_site_fract_x
_atom_site_fract_y
_atom_site_fract_z
_atom_type_partial_charge
C1    C     C_R   0.522142 0.700845 0.500142 0.806945
C2    C     C_R   0.477860 0.299155 0.499853 0.806962
C3    C     C_R   0.363663 0.525100 0.087008 -0.231651
C4    C     C_R   0.636426 0.475211 0.912975 -0.231587
C5    C     C_R   0.280464 0.519910 0.039268 -0.225267
C6    C     C_R   0.719622 0.480401 0.960715 -0.225248
C7    C     C_R   0.463589 0.185501 0.504290 -0.032140
C8    C     C_R   0.536413 0.814498 0.495688 -0.032064
C9    C     C_R   0.655125 0.982025 0.439190 -0.217222
C10   C     C_R   0.344872 0.017969 0.560769 -0.217155
C11   C     C_R   0.645461 0.874212 0.448415 -0.220077
C12   C     C_R   0.354534 0.125782 0.551551 -0.220167
C13   C     C_R   0.436418 0.862294 0.533149 -0.257911
C14   C     C_R   0.563585 0.137704 0.466822 -0.257911
C15   C     C_R   0.444848 0.969823 0.523688 0.167960
C16   C     C_R   0.555152 0.030173 0.476273 0.167964
C17   C     C_R   0.955096 0.616900 0.563959 -0.151954
C18   C     C_R   0.044891 0.383069 0.436075 -0.151923
C19   C     C_R   0.833120 0.602599 0.562119 0.120664
C20   C     C_R   0.166886 0.397406 0.437872 0.120682
C21   C     C_R   0.852340 0.447752 0.474587 0.033544
C22   C     C_R   0.147643 0.552218 0.525448 0.033553
C23   C     C_R   0.425423 0.490118 0.668150 0.796063
C24   C     C_R   0.574579 0.509890 0.331851 0.796083
C25   C     C_R   0.973832 0.456901 0.477781 -0.011555
C26   C     C_R   0.026148 0.543064 0.522260 -0.011537
C27   C     C_R   0.377843 0.480933 0.765097 -0.105679
C28   C     C_R   0.622168 0.519126 0.234908 -0.105641
C29   C     C_R   0.226085 0.496165 0.902940 -0.237632
C30   C     C_R   0.773962 0.504026 0.097057 -0.237626
C31   C     C_R   0.256117 0.483430 0.811417 -0.001053
C32   C     C_R   0.743906 0.516674 0.188586 -0.001078
C33   C     C_R   0.459706 0.473931 0.812910 -0.273615
C34   C     C_R   0.540309 0.526154 0.187096 -0.273550
C35   C     C_R   0.431162 0.487700 0.904806 0.084432
C36   C     C_R   0.568887 0.512496 0.095192 0.084399
C37   C     C_R   0.312723 0.501764 0.949027 0.148476
C38   C     C_R   0.687338 0.498471 0.050965 0.148494
C39   C     C_R   0.517167 0.490407 0.953644 0.068599
C40   C     C_R   0.482897 0.509836 0.046347 0.068556
Cu1   Cu    Cu3+1 0.386820 0.492450 0.493500 0.943388
Cu2   Cu    Cu3+1 0.613180 0.507550 0.506500 0.943379
H1    H     H_    0.190038 0.531611 0.073291 0.153619
H2    H     H_    0.810066 0.468750 0.926686 0.153594
H3    H     H_    0.454073 0.541938 0.224040 0.149735
H4    H     H_    0.545908 0.458054 0.775975 0.149705
H5    H     H_    0.133715 0.500226 0.938803 0.130432
H6    H     H_    0.866340 0.499992 0.061193 0.130435
H7    H     H_    0.330516 0.541932 0.155914 0.133496
H8    H     H_    0.669608 0.458464 0.844055 0.133444
H9    H     H_    0.648135 0.184517 0.430823 0.150662
H10   H     H_    0.351869 0.815484 0.569152 0.150656
H11   H     H_    0.278038 0.162955 0.582997 0.138341
H12   H     H_    0.721955 0.837037 0.416974 0.138347
H13   H     H_    0.739930 0.027373 0.402351 0.161330
H14   H     H_    0.260065 0.972620 0.597609 0.161312
H15   H     H_    0.187518 0.615686 0.561985 0.146541
H16   H     H_    0.812463 0.384277 0.438058 0.146538
N1    N     N_R   0.216750 0.481110 0.483710 -0.203854
N2    N     N_R   0.783250 0.518890 0.516290 -0.203842
O1    O     O_R   0.419950 0.645670 0.495380 -0.592943
O2    O     O_R   0.580050 0.354330 0.504620 -0.592929
O3    O     O_R   0.611110 0.658410 0.506370 -0.581181
O4    O     O_R   0.388890 0.341590 0.493630 -0.581216
O5    O     O_R   0.350820 0.490050 0.621260 -0.575075
O6    O     O_R   0.649180 0.509950 0.378740 -0.575091
O7    O     O_R   0.541970 0.502800 0.632250 -0.579325
O8    O     O_R   0.458030 0.497200 0.367750 -0.579281
C41   C     C_R   0.238531 0.321171 0.385468 0.183123
C42   C     C_R   0.298784 0.341759 0.296995 -0.117808
C43   C     C_R   0.356405 0.266277 0.243493 -0.139690
C44   C     C_R   0.348449 0.167149 0.276923 -0.125292
C45   C     C_R   0.280331 0.142826 0.363032 -0.129919
C46   C     C_R   0.223683 0.218900 0.416687 -0.118327
H17   H     H_    0.297394 0.415160 0.269301 0.102240
H18   H     H_    0.404829 0.283853 0.175680 0.144335
H19   H     H_    0.392261 0.108307 0.235430 0.132975
H20   H     H_    0.270640 0.064839 0.387967 0.144210
H21   H     H_    0.168166 0.198536 0.482453 0.108844
C47   C     C_R   0.761530 0.678939 0.614409 0.183118
C48   C     C_R   0.776580 0.781197 0.583095 -0.118485
C49   C     C_R   0.720005 0.857380 0.636650 -0.129786
C50   C     C_R   0.651718 0.833167 0.722742 -0.125249
C51   C     C_R   0.643527 0.734038 0.756263 -0.139809
C52   C     C_R   0.701100 0.658454 0.702870 -0.117633
H22   H     H_    0.832210 0.801467 0.517340 0.108773
H23   H     H_    0.729879 0.935366 0.611649 0.144187
H24   H     H_    0.607951 0.892090 0.764155 0.132971
H25   H     H_    0.594962 0.716540 0.824067 0.144316
H26   H     H_    0.702314 0.585053 0.730645 0.102352
C53   C     C_1   0.006111 0.707228 0.610065 0.186197
N3    N     N_1   0.046643 0.779047 0.646785 -0.312308
C54   C     C_1   0.993869 0.292719 0.389996 0.186218
N4    N     N_1   0.953329 0.220878 0.353302 -0.312331
C55   C     C_R   0.844317 0.536159 0.230630 0.134995
C56   C     C_R   0.867139 0.631115 0.276966 -0.086983
C57   C     C_R   0.968662 0.654631 0.309076 -0.133557
C58   C     C_R   0.049702 0.584940 0.293420 -0.116159
C59   C     C_R   0.028011 0.490599 0.247286 -0.155973
C60   C     C_R   0.925747 0.466022 0.216121 -0.168124
H27   H     H_    0.807045 0.687371 0.287264 0.106254
H28   H     H_    0.985265 0.727487 0.345169 0.119815
H29   H     H_    0.128928 0.603644 0.317518 0.128957
H30   H     H_    0.090958 0.436763 0.235143 0.140097
H31   H     H_    0.911036 0.393231 0.179465 0.135880
C61   C     C_R   0.155697 0.463868 0.769380 0.135004
C62   C     C_R   0.074236 0.533971 0.783848 -0.168154
C63   C     C_R   0.971979 0.509325 0.752679 -0.155968
C64   C     C_R   0.950325 0.414950 0.706585 -0.116092
C65   C     C_R   0.031394 0.345289 0.690974 -0.133577
C66   C     C_R   0.132912 0.368877 0.723085 -0.086993
H32   H     H_    0.088919 0.606790 0.820472 0.135891
H33   H     H_    0.909006 0.563135 0.764790 0.140063
H34   H     H_    0.871103 0.396192 0.682485 0.128968
H35   H     H_    0.014817 0.272402 0.654918 0.119829
H36   H     H_    0.193030 0.312647 0.712821 0.106254

loop_
_geom_bond_atom_site_label_1
_geom_bond_atom_site_label_2
_ccdc_geom_bond_type
C54   N4    T    
C5    C37   A    
C1    C8    S    
C45   C46   A    
C55   C56   A    
C17   C53   S    
Cu1   O1    S    
C22   H15   S    
C57   C58   A    
C3    H7    S    
C27   C33   A    
C60   H31   S    
C8    C13   A    
C29   H5    S    
C50   C51   A    
C17   C26   A    
C30   H6    S    
C35   C37   A    
C9    C16   A    
C10   C15   A    
C43   H18   S    
C61   C62   A    
C15   C16   A    
C63   C64   A    
C30   C38   A    
Cu1   Cu2   S    
C23   O7    A    
C65   C66   A    
C2    C7    S    
C17   C19   A    
C7    C14   A    
C14   H9    S    
C45   H20   S    
C6    C38   A    
C66   H36   S    
C9    H13   S    
C23   C27   S    
C10   H14   S    
Cu2   O2    S    
C18   C20   A    
C57   H28   S    
C24   O6    A    
C50   H24   S    
C5    H1    S    
C28   C34   A    
C6    H2    S    
C56   H27   S    
C33   H4    S    
C41   C42   A    
C18   C25   A    
C1    O3    A    
C2    O4    A    
C48   C49   A    
Cu1   O8    S    
C61   C66   A    
C7    C12   A    
C27   C31   A    
C28   C32   A    
C51   C52   A    
Cu1   N1    S    
C21   N2    A    
C4    C6    A    
Cu2   N2    S    
C22   N1    A    
C55   C60   A    
C44   C45   A    
Cu1   O5    S    
C25   C26   A    
C4    H8    S    
C63   H33   S    
C35   C39   A    
C47   C52   A    
C13   H10   S    
C59   C60   A    
C4    C39   A    
C36   C40   A    
C62   C63   A    
C56   C57   A    
C49   H23   S    
C48   H22   S    
C41   C46   A    
C34   H3    S    
C20   N1    A    
C9    C11   A    
C42   C43   A    
C12   H11   S    
C10   C12   A    
C64   H34   S    
C11   H12   S    
C3    C40   A    
C58   C59   A    
C46   H21   S    
C13   C15   A    
Cu2   O7    S    
C31   C61   S    
C14   C16   A    
C20   C41   S    
C51   H25   S    
C53   N3    T    
C21   C25   A    
C24   C28   S    
C47   C48   A    
C3    C5    A    
C1    O1    A    
C44   H19   S    
C52   H26   S    
C19   N2    A    
C23   O5    A    
C36   C38   A    
C21   H16   S    
C29   C31   A    
C64   C65   A    
C30   C32   A    
C8    C11   A    
Cu2   O3    S    
C33   C35   A    
C59   H30   S    
C34   C36   A    
C19   C47   S    
C24   O8    A    
C39   C40   A    
C2    O2    A    
C43   C44   A    
C32   C55   S    
C49   C50   A    
C22   C26   A    
C29   C37   A    
C42   H17   S    
Cu2   O6    S    
C18   C54   S    
C62   H32   S    
Cu1   O4    S    
C65   H35   S    
C58   H29   S    
