data_mof_unit_51681.cif
_audit_creation_date              2012-12-10T17:20:24-0500
_audit_creation_method            fapswitch 2.2
_symmetry_space_group_name_H-M    P1
_symmetry_Int_Tables_number       1
_space_group_crystal_system       triclinic
_cell_length_a                    11.703705
_cell_length_b                    10.779566
_cell_length_c                    9.614912
_cell_angle_alpha                 90.063101
_cell_angle_beta                  90.047923
_cell_angle_gamma                 92.506464
_cell_volume                      1211.86385286

loop_
_atom_site_label
_atom_site_type_symbol
_atom_type_description
_atom_site_fract_x
_atom_site_fract_y
_atom_site_fract_z
_atom_type_partial_charge
C1    C     C_R   0.496055 0.262616 0.499963 0.792741
C2    C     C_R   0.230082 0.052526 0.719949 0.422297
C3    C     C_R   0.231007 0.923169 0.720745 -0.217760
C4    C     C_R   0.315487 0.862277 0.648859 -0.242514
C5    C     C_R   0.402840 0.929972 0.576473 0.105755
C6    C     C_R   0.402575 0.061123 0.576008 0.033134
C7    C     C_R   0.488060 0.128425 0.499739 -0.073456
C8    C     C_R   0.568023 0.067193 0.420491 -0.174500
C9    C     C_R   0.568164 0.939236 0.420697 -0.199638
C10   C     C_R   0.488384 0.870551 0.500224 -0.067764
C11   C     C_R   0.651265 0.665780 0.144067 -0.138866
C12   C     C_R   0.284154 0.499528 0.499978 0.800533
C13   C     C_R   0.724688 0.747321 0.072134 -0.195355
C14   C     C_R   0.724654 0.747381 0.928836 -0.175251
C15   C     C_R   0.651157 0.665925 0.856535 -0.130381
C16   C     C_R   0.574156 0.581629 0.925409 0.207194
C17   C     C_R   0.574177 0.581559 0.074878 0.212911
C18   C     C_R   0.429463 0.422284 0.073631 -0.032181
C19   C     C_R   0.429519 0.422311 0.925858 -0.028614
C20   C     C_R   0.496373 0.737083 0.500097 0.756956
C21   C     C_R   0.715838 0.500239 0.500059 0.804485
C22   C     C_1   0.162424 0.499685 0.500023 -0.136281
C23   C     C_1   0.059925 0.499895 0.500162 0.058350
C24   C     C_1   0.940093 0.500128 0.500247 0.042062
C25   C     C_1   0.837585 0.500247 0.500201 -0.156088
C26   C     C_R   0.314783 0.120958 0.647419 -0.262868
Cu1   Cu    Cu3+1 0.499990 0.499990 0.640660 0.952199
Cu2   Cu    Cu3+1 0.500010 0.500010 0.359340 0.951523
H1    H     H_    0.632440 0.118980 0.360672 0.161159
H2    H     H_    0.782347 0.810803 0.872938 0.179140
H3    H     H_    0.658925 0.673182 0.746931 0.195373
H4    H     H_    0.371787 0.358541 0.870589 0.174830
H5    H     H_    0.309397 0.220775 0.645475 0.172104
H6    H     H_    0.165467 0.868824 0.775587 0.183993
H7    H     H_    0.309876 0.761992 0.648803 0.176072
H8    H     H_    0.632687 0.893555 0.360992 0.140272
H9    H     H_    0.371602 0.358473 0.128456 0.158026
H10   H     H_    0.659158 0.672952 0.253665 0.190178
H11   H     H_    0.782369 0.810724 0.128342 0.164243
N1    N     N_R   0.501070 0.501210 0.147910 -0.204456
N2    N     N_R   0.501110 0.501290 0.852040 -0.207003
O1    O     O_R   0.499990 0.319640 0.618810 -0.575055
O2    O     O_R   0.500000 0.319660 0.381240 -0.575808
O3    O     O_R   0.337190 0.500000 0.618790 -0.574554
O4    O     O_R   0.337200 0.500030 0.381210 -0.566372
O5    O     O_R   0.500000 0.680340 0.618760 -0.603981
O6    O     O_R   0.500010 0.680360 0.381190 -0.591488
O7    O     O_R   0.662800 0.499970 0.618790 -0.579613
O8    O     O_R   0.662810 0.500000 0.381210 -0.589026
S1    S     S_3+6 0.122663 0.130380 0.808710 0.005583
O9    O     O_2   0.073265 0.224468 0.713217 -0.256801
O10   O     O_2   0.028875 0.040625 0.856403 -0.290744
O11   O     O_3   0.180501 0.204890 0.947237 -0.528526
H12   H     H_    0.219145 0.140121 0.000391 0.333833

loop_
_geom_bond_atom_site_label_1
_geom_bond_atom_site_label_2
_ccdc_geom_bond_type
Cu1   O7    S    
C8    C9    A    
C9    H8    S    
S1    O10   D    
C23   C24   S    
Cu2   O6    S    
C15   H3    S    
C6    C7    A    
C11   H10   S    
C2    S1    S    
Cu2   O8    S    
Cu1   N2    S    
C26   H5    S    
C14   C15   A    
C21   O7    A    
C21   O8    A    
C2    C3    A    
C4    H7    S    
C19   N2    A    
C5    C10   A    
C2    C26   A    
C13   C14   A    
C11   C13   A    
Cu1   O1    S    
C6    C26   A    
C14   H2    S    
C8    H1    S    
Cu1   O3    S    
Cu1   O5    S    
C18   H9    S    
S1    O9    D    
C5    C6    A    
C20   O5    A    
Cu2   O4    S    
C13   H11   S    
S1    O11   S    
C16   C17   A    
C19   H4    S    
C15   C16   A    
C20   O6    A    
C12   C22   S    
C1    O1    A    
C7    C8    A    
C18   N1    A    
C24   C25   T    
C12   O3    A    
C18   C19   A    
C9    C10   A    
Cu1   Cu2   S    
Cu2   N1    S    
C22   C23   T    
C4    C5    A    
C21   C25   S    
Cu2   O2    S    
C3    H6    S    
C1    C7    S    
C16   N2    A    
C1    O2    A    
C11   C17   A    
C3    C4    A    
O11   H12   S    
C10   C20   S    
C12   O4    A    
C17   N1    A    
