data_mof_unit_17938.cif
_audit_creation_date              2012-10-26T19:29:02-0400
_audit_creation_method            fapswitch 2.2
_symmetry_space_group_name_H-M    P1
_symmetry_Int_Tables_number       1
_space_group_crystal_system       triclinic
_cell_length_a                    9.621306
_cell_length_b                    10.830763
_cell_length_c                    17.232299
_cell_angle_alpha                 90.032469
_cell_angle_beta                  84.917388
_cell_angle_gamma                 89.262997
_cell_volume                      1788.4990788

loop_
_atom_site_label
_atom_site_type_symbol
_atom_type_description
_atom_site_fract_x
_atom_site_fract_y
_atom_site_fract_z
_atom_type_partial_charge
C1    C     C_R   0.498234 0.739807 0.503008 0.586027
C2    C     C_R   0.529514 0.525241 0.267420 0.022092
C3    C     C_3   0.340598 0.932368 0.509363 0.174740
C4    C     C_R   0.480768 0.499915 0.649922 0.587024
C5    C     C_3   0.349119 0.073225 0.490383 -0.208639
C6    C     C_3   0.561918 0.931555 0.577872 0.205391
C7    C     C_3   0.577287 0.926811 0.429843 -0.335987
C8    C     C_3   0.494091 0.878818 0.505215 0.099684
C9    C     C_3   0.497372 0.122302 0.501583 -0.005150
C10   C     C_3   0.539096 0.073860 0.581074 -0.201131
C11   C     C_3   0.597833 0.067382 0.435052 -0.282540
C12   C     C_R   0.363510 0.444833 0.782803 0.145414
C13   C     C_3   0.922334 0.368646 0.487152 0.374643
C14   C     C_3   0.090315 0.373326 0.482007 -0.066920
C15   C     C_3   0.931288 0.576990 0.433208 0.142712
C16   C     C_R   0.499977 0.260413 0.499982 0.537912
C17   C     C_3   0.905024 0.550756 0.572508 0.136813
C18   C     C_3   0.095846 0.581326 0.438924 -0.094777
C19   C     C_3   0.069497 0.532065 0.576641 0.143838
C20   C     C_R   0.519262 0.504138 0.350775 0.529672
C21   C     C_R   0.473311 0.499923 0.735576 -0.031817
C22   C     C_R   0.586391 0.549924 0.770230 -0.161196
C23   C     C_R   0.448751 0.636652 0.158145 -0.126117
C24   C     C_R   0.596411 0.541005 0.849801 0.247696
C25   C     C_R   0.487179 0.487895 0.897377 0.017454
C26   C     C_R   0.370315 0.439628 0.864230 0.116185
C27   C     C_3   0.153387 0.971062 0.607383 -0.152310
C28   C     C_3   0.587727 0.896137 0.709934 -0.140247
C29   C     C_3   0.950088 0.199519 0.383950 -0.378410
C30   C     C_3   0.923784 0.251441 0.621631 -0.364129
C31   C     C_3   0.990296 0.506822 0.291099 -0.324722
C32   C     C_3   0.902003 0.791415 0.559186 -0.315030
C33   C     C_3   0.095817 0.657134 0.696188 -0.267021
C34   C     C_R   0.444369 0.616771 0.237913 -0.134909
C35   C     C_3   0.264392 0.252406 0.919030 -0.315051
C36   C     C_3   0.277106 0.269955 0.714287 -0.299847
C37   C     C_3   0.821774 0.498076 0.870075 -0.127867
C38   C     C_R   0.621178 0.455045 0.217105 -0.144363
C39   C     C_R   0.622608 0.472553 0.136962 -0.111958
C40   C     C_R   0.534902 0.562459 0.107500 0.029012
C41   C     C_2   0.499833 0.476356 0.981203 -0.117866
C42   C     C_2   0.526094 0.574913 0.023864 -0.102316
Cu1   Cu    Cu3+1 0.357600 0.500140 0.499960 0.899776
Cu2   Cu    Cu3+1 0.642400 0.499860 0.500040 0.934674
H1    H     H_    0.670805 0.593637 0.735352 0.132475
H2    H     H_    0.374332 0.672540 0.276708 0.097605
H3    H     H_    0.706888 0.084711 0.447199 0.124757
H4    H     H_    0.674314 0.915840 0.569384 0.085961
H5    H     H_    0.634939 0.118818 0.597826 0.075888
H6    H     H_    0.132753 0.305138 0.520787 0.107658
H7    H     H_    0.139392 0.345442 0.423901 0.132505
H8    H     H_    0.156953 0.562040 0.383362 0.144496
H9    H     H_    0.687408 0.384415 0.239645 0.107205
H10   H     H_    0.856280 0.495124 0.620583 0.136617
H11   H     H_    0.084560 0.453126 0.616005 0.133962
H12   H     H_    0.690493 0.415433 0.097898 0.107674
H13   H     H_    0.895080 0.672178 0.440574 0.122470
H14   H     H_    0.128416 0.676486 0.450553 0.081650
H15   H     H_    0.529711 0.666556 0.998107 0.151945
H16   H     H_    0.380990 0.706260 0.135782 0.096543
H17   H     H_    0.481565 0.387087 0.008781 0.117447
H18   H     H_    0.179880 0.056427 0.637638 0.114502
H19   H     H_    0.090940 0.917307 0.651970 0.134487
H20   H     H_    0.090173 0.990999 0.557713 0.079047
H21   H     H_    0.589793 0.996105 0.724201 0.096689
H22   H     H_    0.695439 0.859089 0.697971 0.098122
H23   H     H_    0.280813 0.887264 0.464931 0.085869
H24   H     H_    0.540162 0.847890 0.762303 0.153031
H25   H     H_    0.789165 0.330926 0.395853 0.317132
H26   H     H_    0.042416 0.216685 0.342382 0.133956
H27   H     H_    0.875035 0.147695 0.351427 0.124302
H28   H     H_    0.982635 0.140911 0.432179 0.125026
H29   H     H_    0.821937 0.205375 0.528223 0.262080
H30   H     H_    0.855225 0.183297 0.653787 0.124420
H31   H     H_    0.928448 0.328700 0.662619 0.116465
H32   H     H_    0.025955 0.205317 0.610478 0.099694
H33   H     H_    0.824843 0.613109 0.334288 0.254702
H34   H     H_    0.326197 0.087670 0.428790 0.078396
H35   H     H_    0.932445 0.474060 0.242260 0.145484
H36   H     H_    0.056120 0.428947 0.308478 0.163202
H37   H     H_    0.056482 0.585025 0.269384 0.111074
H38   H     H_    0.750327 0.681424 0.617990 0.284551
H39   H     H_    0.891026 0.863087 0.605092 0.106934
H40   H     H_    0.841255 0.822457 0.511441 0.119211
H41   H     H_    0.009833 0.787210 0.534566 0.137720
H42   H     H_    0.176712 0.704233 0.582023 0.319527
H43   H     H_    0.010830 0.727247 0.703089 0.142645
H44   H     H_    0.187403 0.692431 0.723816 0.177274
H45   H     H_    0.269085 0.128119 0.525067 0.118780
H46   H     H_    0.059006 0.572462 0.727132 0.121615
H47   H     H_    0.231452 0.430495 0.964321 0.246977
H48   H     H_    0.158907 0.215236 0.913138 0.142834
H49   H     H_    0.297271 0.225846 0.976982 0.121241
H50   H     H_    0.338558 0.209543 0.873314 0.154755
H51   H     H_    0.154608 0.396511 0.781665 0.253945
H52   H     H_    0.257217 0.273139 0.651956 0.157697
H53   H     H_    0.207303 0.200675 0.744352 0.113231
H54   H     H_    0.386856 0.239564 0.718851 0.128966
H55   H     H_    0.851955 0.481074 0.807088 0.093497
H56   H     H_    0.454382 0.096997 0.626742 0.147793
H57   H     H_    0.792797 0.409829 0.900042 0.115652
H58   H     H_    0.914816 0.533981 0.895940 0.143761
H59   H     H_    0.681240 0.880639 0.420096 0.114741
H60   H     H_    0.519341 0.905261 0.378484 0.106180
H61   H     H_    0.580147 0.111219 0.378304 0.121551
N1    N     N_3   0.856560 0.499750 0.498270 -0.190666
N2    N     N_3   0.143860 0.496700 0.498910 -0.289975
N3    N     N_2   0.887752 0.316429 0.412215 -0.481640
N4    N     N_2   0.863966 0.283936 0.549473 -0.478249
N5    N     N_2   0.891301 0.547421 0.354775 -0.479434
N6    N     N_2   0.850336 0.675536 0.591819 -0.509951
N7    N     N_2   0.135301 0.632926 0.614348 -0.445489
N8    N     N_2   0.259168 0.385676 0.912312 -0.533228
N9    N     N_2   0.249278 0.390668 0.748681 -0.493318
O1    O     O_R   0.379740 0.682430 0.499960 -0.510020
O2    O     O_3   0.505919 0.873167 0.647473 -0.517283
O3    O     O_3   0.712900 0.586534 0.881271 -0.571705
O4    O     O_R   0.620260 0.682190 0.500020 -0.521285
O5    O     O_R   0.365800 0.500150 0.613560 -0.437932
O6    O     O_R   0.606310 0.499910 0.613620 -0.531027
O7    O     O_R   0.379740 0.317810 0.499980 -0.537700
O8    O     O_R   0.620260 0.317570 0.500040 -0.499800
O9    O     O_R   0.393690 0.500090 0.386380 -0.528356
O10   O     O_R   0.634200 0.499850 0.386440 -0.506846
O11   O     O_3   0.276756 0.904435 0.585112 -0.522152

loop_
_geom_bond_atom_site_label_1
_geom_bond_atom_site_label_2
_ccdc_geom_bond_type
C15   C18   S    
C30   H31   S    
C32   N6    S    
C1    C8    S    
C41   C42   D    
C11   H3    S    
C41   H17   S    
C16   O7    A    
C36   N9    S    
C18   H8    S    
C31   H36   S    
C19   N7    S    
C7    C11   S    
C24   O3    S    
C6    H4    S    
C15   N1    S    
C28   H24   S    
C33   H44   S    
C38   C39   A    
C30   H30   S    
Cu2   O6    S    
H51   N9    S    
C23   C40   A    
C16   O8    A    
C18   N2    S    
C20   O9    A    
C13   N4    S    
C28   O2    S    
Cu1   O1    S    
C18   H14   S    
C14   H7    S    
C11   H61   S    
C4    O5    A    
C36   H53   S    
C34   H2    S    
C13   C14   S    
C9    C10   S    
Cu1   O7    S    
C1    O4    A    
C29   H28   S    
C35   H48   S    
C2    C34   A    
C40   C42   S    
C7    H59   S    
C21   C22   A    
C15   H13   S    
C15   N5    S    
C13   N3    S    
C17   N6    S    
H25   N3    S    
C12   N9    S    
C35   H49   S    
C23   H16   S    
C32   H40   S    
C30   N4    S    
C2    C20   S    
C7    C8    S    
C24   C25   A    
C3    C8    S    
C25   C41   S    
C39   C40   A    
C6    C8    S    
C25   C26   A    
C12   C21   A    
Cu2   O10   S    
C37   H58   S    
H47   N8    S    
C12   C26   A    
C28   H22   S    
Cu1   Cu2   S    
C5    C9    S    
C27   H18   S    
C30   H32   S    
C2    C38   A    
C39   H12   S    
Cu2   O4    S    
C23   C34   A    
C29   N3    S    
C33   N7    S    
Cu1   N2    S    
C10   H56   S    
C9    C11   S    
C6    O2    S    
C27   H19   S    
C14   N2    S    
C7    H60   S    
C22   C24   A    
Cu1   O9    S    
C37   H55   S    
C29   H26   S    
C35   H50   S    
C19   H11   S    
C32   H39   S    
C9    C16   S    
C3    H23   S    
C13   N1    S    
C3    C5    S    
C42   H15   S    
C6    C10   S    
C3    O11   S    
C31   H35   S    
Cu2   N1    S    
C31   H37   S    
H38   N6    S    
C28   H21   S    
C33   H43   S    
C26   N8    S    
C33   H46   S    
C37   H57   S    
C4    C21   S    
C27   O11   S    
C14   H6    S    
C38   H9    S    
C32   H41   S    
Cu2   O8    S    
C17   C19   S    
C31   N5    S    
C35   N8    S    
H29   N4    S    
H33   N5    S    
C20   O10   A    
C27   H20   S    
H42   N7    S    
C22   H1    S    
C37   O3    S    
C4    O6    A    
C36   H54   S    
C1    O1    A    
C5    H34   S    
C17   N1    S    
C10   H5    S    
C17   H10   S    
C5    H45   S    
Cu1   O5    S    
C36   H52   S    
C29   H27   S    
C19   N2    S    
