data_mof_unit_56092.cif
_audit_creation_date              2012-12-10T17:03:39-0500
_audit_creation_method            fapswitch 2.2
_symmetry_space_group_name_H-M    P1
_symmetry_Int_Tables_number       1
_space_group_crystal_system       triclinic
_cell_length_a                    10.111233
_cell_length_b                    10.732727
_cell_length_c                    13.094032
_cell_angle_alpha                 90.246882
_cell_angle_beta                  70.072812
_cell_angle_gamma                 90.004116
_cell_volume                      1335.88595669

loop_
_atom_site_label
_atom_site_type_symbol
_atom_type_description
_atom_site_fract_x
_atom_site_fract_y
_atom_site_fract_z
_atom_type_partial_charge
C1    C     C_R   0.501616 0.736942 0.496959 0.914709
C2    C     C_R   0.369073 0.494374 0.822005 -0.112936
C3    C     C_2   0.606393 0.066316 0.502715 -0.220423
C4    C     C_R   0.421140 0.501705 0.704011 0.846500
C5    C     C_2   0.487252 0.133352 0.531253 -0.146091
C6    C     C_2   0.604918 0.932716 0.511308 -0.172997
C7    C     C_2   0.507951 0.868348 0.485629 -0.317934
C8    C     C_2   0.106485 0.534538 0.420021 -0.087615
C9    C     C_2   0.955346 0.560973 0.432859 -0.147215
C10   C     C_R   0.497153 0.263149 0.506491 0.883097
C11   C     C_R   0.578186 0.501911 0.296175 0.866919
C12   C     C_R   0.429991 0.502887 0.985606 0.085315
C13   C     C_R   0.720651 0.676868 0.038561 -0.209487
C14   C     C_R   0.623059 0.526521 0.180813 -0.053475
C15   C     C_R   0.257365 0.413554 0.872845 -0.190123
C16   C     C_R   0.228416 0.380719 0.980757 -0.137147
C17   C     C_R   0.315977 0.421721 0.036197 -0.198907
C18   C     C_1   0.350400 0.085123 0.597180 0.185891
C19   C     C_3   0.062413 0.531582 0.610870 -0.169021
C20   C     C_3   0.077402 0.670731 0.634330 -0.274011
C21   C     C_3   0.948593 0.719460 0.724278 -0.976094
C22   C     C_R   0.445346 0.549920 0.881859 0.091620
C23   C     C_R   0.529587 0.539108 0.034045 0.083443
C24   C     C_R   0.624637 0.637893 0.988794 0.176353
C25   C     C_R   0.620696 0.697618 0.895661 -0.264665
C26   C     C_R   0.536381 0.651096 0.840088 -0.201370
C27   C     C_R   0.537380 0.479812 0.126306 -0.259153
C28   C     C_R   0.718619 0.622245 0.135447 -0.195943
H1    H     H_    0.783626 0.660647 0.178666 0.148819
H2    H     H_    0.196447 0.371684 0.827820 0.150051
H3    H     H_    0.289762 0.391393 0.119176 0.130679
H4    H     H_    0.141759 0.318652 0.020105 0.144704
H5    H     H_    0.540330 0.696607 0.765434 0.155908
H6    H     H_    0.708857 0.109438 0.465831 0.172076
H7    H     H_    0.855736 0.714064 0.697410 0.277629
H8    H     H_    0.929584 0.663578 0.799131 0.273844
H9    H     H_    0.965176 0.818253 0.742348 0.264769
H10   H     H_    0.169746 0.684860 0.660390 0.246345
H11   H     H_    0.092182 0.727609 0.560534 0.225219
H12   H     H_    0.686857 0.887904 0.534402 0.177564
H13   H     H_    0.951295 0.505404 0.635387 0.153895
H14   H     H_    0.096780 0.474553 0.667307 0.177609
H15   H     H_    0.432048 0.912737 0.455445 0.159987
H16   H     H_    0.184935 0.550170 0.340715 0.146385
H17   H     H_    0.932793 0.630157 0.380906 0.154275
H18   H     H_    0.880130 0.415029 0.524524 0.177299
H19   H     H_    0.685224 0.778684 0.864484 0.161414
H20   H     H_    0.792775 0.752877 0.005088 0.142273
H21   H     H_    0.471060 0.401430 0.162035 0.138593
N1    N     N_2   0.148270 0.498670 0.498870 -0.096359
N2    N     N_2   0.852610 0.498640 0.498840 -0.195416
N3    N     N_1   0.241459 0.047016 0.649747 -0.227241
O1    O     O_R   0.386950 0.680940 0.500020 -0.629865
O2    O     O_R   0.613110 0.680900 0.499980 -0.611919
O3    O     O_R   0.330780 0.500000 0.653640 -0.640097
O4    O     O_R   0.556930 0.499960 0.653610 -0.595385
O5    O     O_R   0.386890 0.319100 0.500020 -0.604565
O6    O     O_R   0.613050 0.319060 0.499980 -0.616595
O7    O     O_R   0.443070 0.500040 0.346390 -0.609514
O8    O     O_R   0.669220 0.500000 0.346360 -0.608984
Zn1   Zn    Zn3+2 0.349000 0.500030 0.500020 0.923775
Zn2   Zn    Zn3+2 0.651000 0.499970 0.499980 0.933588

loop_
_geom_bond_atom_site_label_1
_geom_bond_atom_site_label_2
_ccdc_geom_bond_type
C12   C17   A    
C2    C22   A    
C13   H20   S    
C2    C4    S    
C23   C24   A    
C13   C28   A    
C9    H17   S    
C6    C7    D    
C21   H7    S    
C7    H15   S    
C14   C27   A    
C16   H4    S    
C20   H10   S    
C25   H19   S    
C26   H5    S    
C19   C20   S    
C12   C23   A    
C19   H14   S    
C1    O2    A    
C3    C6    S    
C24   C25   A    
C18   N3    T    
C5    C10   S    
C21   H8    S    
C4    O4    A    
O5    Zn1   S    
C2    C15   A    
C19   N1    S    
C8    H16   S    
O4    Zn2   S    
N2    Zn2   S    
O6    Zn2   S    
C15   H2    S    
C11   O7    A    
O3    Zn1   S    
C28   H1    S    
C10   O6    A    
C23   C27   A    
C4    O3    A    
C17   H3    S    
C11   C14   S    
C6    H12   S    
O7    Zn1   S    
C15   C16   A    
C27   H21   S    
C11   O8    A    
C8    N1    D    
C10   O5    A    
C12   C22   A    
C20   C21   S    
C21   H9    S    
O8    Zn2   S    
C22   C26   A    
C20   H11   S    
N1    Zn1   S    
C1    O1    A    
C16   C17   A    
C5    C18   S    
O2    Zn2   S    
C3    H6    S    
C14   C28   A    
C25   C26   A    
C1    C7    S    
O1    Zn1   S    
H18   N2    S    
C19   H13   S    
C13   C24   A    
C8    C9    S    
C3    C5    D    
C9    N2    D    
