data_mof_unit_25519.cif
_audit_creation_date              2012-12-10T18:02:13-0500
_audit_creation_method            fapswitch 2.2
_symmetry_space_group_name_H-M    P1
_symmetry_Int_Tables_number       1
_space_group_crystal_system       triclinic
_cell_length_a                    10.829336
_cell_length_b                    9.588837
_cell_length_c                    23.483751
_cell_angle_alpha                 90.333425
_cell_angle_beta                  91.154414
_cell_angle_gamma                 90.083503
_cell_volume                      2438.03076374

loop_
_atom_site_label
_atom_site_type_symbol
_atom_type_description
_atom_site_fract_x
_atom_site_fract_y
_atom_site_fract_z
_atom_type_partial_charge
C1    C     C_R   0.262295 0.500150 0.500372 0.778479
C2    C     C_R   0.589434 0.581325 0.701508 -0.229714
C3    C     C_R   0.443757 0.388969 0.238738 -0.108629
C4    C     C_R   0.591854 0.579904 0.760897 -0.116619
C5    C     C_R   0.508177 0.492304 0.209582 0.348565
C6    C     C_R   0.511869 0.491820 0.790289 0.339019
C7    C     C_R   0.063815 0.375741 0.506701 -0.204840
C8    C     C_R   0.936040 0.627168 0.494866 -0.181255
C9    C     C_R   0.936293 0.375284 0.504578 -0.187421
C10   C     C_R   0.063954 0.627101 0.495037 -0.170639
C11   C     C_R   0.871677 0.500945 0.499527 -0.008472
C12   C     C_R   0.737718 0.500219 0.499708 0.777267
C13   C     C_R   0.128362 0.501051 0.500834 -0.011495
C14   C     C_R   0.428587 0.074669 0.461468 0.393866
C15   C     C_R   0.558326 0.927719 0.542756 0.378570
C16   C     C_R   0.570706 0.076511 0.538657 0.387779
C17   C     C_R   0.437169 0.924974 0.458347 0.381921
C18   C     C_R   0.500827 0.499391 0.391134 0.798819
C19   C     C_R   0.501468 0.499886 0.608783 0.794531
C20   C     C_R   0.617922 0.456499 0.881063 0.555563
C21   C     C_R   0.402602 0.526773 0.119107 0.554560
C22   C     C_R   0.407008 0.528998 0.879107 0.557393
C23   C     C_R   0.571701 0.596796 0.240139 -0.104970
C24   C     C_R   0.614512 0.458004 0.121169 0.560617
C25   C     C_R   0.404339 0.529240 0.938730 -0.046094
C26   C     C_R   0.617542 0.458648 0.061536 -0.059589
C27   C     C_R   0.511991 0.494396 0.970028 -0.085128
C28   C     C_R   0.510062 0.494443 0.030215 -0.086284
C29   C     C_R   0.621061 0.458497 0.941203 -0.102887
C30   C     C_R   0.400568 0.529071 0.059008 -0.097413
C31   C     C_R   0.296114 0.563449 0.967386 -0.260219
C32   C     C_R   0.725620 0.423935 0.032856 -0.245654
C33   C     C_R   0.293445 0.565901 0.026978 0.495834
C34   C     C_R   0.430634 0.404004 0.759563 -0.091619
C35   C     C_R   0.729266 0.426007 0.973305 0.488728
C36   C     C_3   0.157695 0.737545 0.049403 -0.258195
C37   C     C_3   0.921250 0.499322 0.950175 -0.221714
C38   C     C_3   0.228718 0.109588 0.429812 -0.274458
C39   C     C_3   0.525942 0.897420 0.637156 -0.283653
C40   C     C_3   0.763429 0.101068 0.581952 -0.249868
C41   C     C_3   0.425747 0.882506 0.362555 -0.257104
C42   C     C_R   0.569746 0.598887 0.299476 -0.247287
C43   C     C_R   0.427200 0.406905 0.700203 -0.216249
C44   C     C_R   0.503647 0.496943 0.328776 -0.033214
C45   C     C_R   0.504874 0.497770 0.671000 -0.020770
C46   C     C_R   0.442003 0.390790 0.298102 -0.206978
Cu1   Cu    Cu3+1 0.500000 0.640660 0.500000 1.010063
Cu2   Cu    Cu3+1 0.500000 0.359340 0.500000 1.019093
H1    H     H_    0.212181 0.587653 0.943653 0.181039
H2    H     H_    0.655969 0.647024 0.784094 0.148765
H3    H     H_    0.111492 0.278078 0.513057 0.142012
H4    H     H_    0.887895 0.725640 0.490676 0.149209
H5    H     H_    0.888681 0.276626 0.507057 0.147461
H6    H     H_    0.112048 0.725468 0.490596 0.158001
H7    H     H_    0.235683 0.801765 0.066816 0.167808
H8    H     H_    0.075480 0.760983 0.075183 0.200631
H9    H     H_    0.135261 0.767781 0.004750 0.137598
H10   H     H_    0.881336 0.595697 0.931041 0.151608
H11   H     H_    0.003953 0.471303 0.925500 0.204164
H12   H     H_    0.808412 0.394491 0.056478 0.206772
H13   H     H_    0.952400 0.519629 0.994875 0.171918
H14   H     H_    0.169857 0.199316 0.417341 0.178905
H15   H     H_    0.205107 0.080111 0.474148 0.122900
H16   H     H_    0.204361 0.023075 0.400127 0.192002
H17   H     H_    0.570262 0.861964 0.677340 0.174651
H18   H     H_    0.433832 0.846727 0.632703 0.171343
H19   H     H_    0.513396 0.011730 0.642481 0.173820
H20   H     H_    0.825136 0.187632 0.595906 0.169721
H21   H     H_    0.798206 0.059907 0.540778 0.114805
H22   H     H_    0.770810 0.020462 0.615499 0.202089
H23   H     H_    0.622239 0.676457 0.217829 0.140931
H24   H     H_    0.393501 0.802557 0.331354 0.191694
H25   H     H_    0.528615 0.880247 0.363984 0.135037
H26   H     H_    0.393336 0.984528 0.346144 0.180376
H27   H     H_    0.369711 0.334118 0.781754 0.148456
H28   H     H_    0.621012 0.678915 0.322485 0.143123
H29   H     H_    0.363171 0.339436 0.677069 0.141661
H30   H     H_    0.391163 0.310618 0.320008 0.179777
H31   H     H_    0.655094 0.645255 0.679306 0.170850
H32   H     H_    0.394972 0.307576 0.215330 0.142285
N1    N     N_R   0.512350 0.492301 0.851533 -0.473695
N2    N     N_R   0.508364 0.491854 0.148522 -0.477717
N3    N     N_R   0.500000 0.852070 0.500000 -0.270305
N4    N     N_R   0.500000 0.147930 0.500000 -0.270859
O1    O     O_R   0.319640 0.618740 0.500000 -0.560985
O2    O     O_2   0.300584 0.560289 0.148210 -0.481960
O3    O     O_2   0.305255 0.566566 0.848815 -0.549063
O4    O     O_2   0.716686 0.423187 0.151709 -0.531701
O5    O     O_3   0.183121 0.593675 0.053509 -0.544295
O6    O     O_3   0.836988 0.387104 0.946859 -0.532201
O7    O     O_3   0.353649 0.149071 0.424090 -0.549687
O8    O     O_3   0.601899 0.860540 0.590920 -0.549815
O9    O     O_3   0.641627 0.153080 0.577601 -0.531671
O10   O     O_3   0.374452 0.851557 0.415941 -0.543292
O11   O     O_R   0.680360 0.381260 0.500000 -0.556263
O12   O     O_R   0.680360 0.618740 0.500000 -0.573705
O13   O     O_R   0.319640 0.381260 0.500000 -0.560460
O14   O     O_R   0.499960 0.618810 0.417880 -0.540816
O15   O     O_R   0.500040 0.381190 0.582120 -0.534979
O16   O     O_R   0.500040 0.618810 0.582120 -0.538246
O17   O     O_R   0.499960 0.381190 0.417880 -0.538973
O18   O     O_2   0.718677 0.417659 0.852114 -0.482963

loop_
_geom_bond_atom_site_label_1
_geom_bond_atom_site_label_2
_ccdc_geom_bond_type
C36   O5    S    
C25   C31   A    
C26   C32   A    
Cu2   O11   S    
C27   C29   A    
C14   N4    A    
C40   O9    S    
Cu1   O14   S    
Cu2   O13   S    
C16   O9    S    
C23   C42   A    
C40   H22   S    
C37   O6    S    
Cu1   O1    S    
C24   C26   A    
C33   O5    S    
C43   H29   S    
C20   O18   S    
C15   C16   A    
C16   N4    A    
C24   N2    A    
C2    H31   S    
C41   H26   S    
C41   O10   S    
C22   C25   A    
Cu1   O12   S    
C31   C33   A    
C12   O11   A    
Cu1   N3    S    
C8    H4    S    
C37   H10   S    
C34   H27   S    
C15   O8    S    
C6    N1    S    
C20   N1    A    
C39   H17   S    
C14   C17   A    
C42   C44   A    
C31   H1    S    
C3    H32   S    
C26   C28   A    
C44   C46   A    
C38   H16   S    
C20   C29   A    
C2    C45   A    
C1    O1    A    
C40   H21   S    
C32   C35   A    
C23   H23   S    
C4    C6    A    
C36   H9    S    
C1    O13   A    
C46   H30   S    
C19   O15   A    
C15   N3    A    
C38   O7    S    
Cu1   O16   S    
Cu2   N4    S    
C4    H2    S    
C17   N3    A    
C18   O17   A    
C2    C4    A    
C22   N1    A    
C36   H8    S    
C18   C44   S    
C9    C11   A    
Cu1   Cu2   S    
C5    C23   A    
C11   C12   S    
C22   O3    S    
C24   O4    S    
C37   H11   S    
C41   H24   S    
C39   H18   S    
C9    H5    S    
C32   H12   S    
C39   O8    S    
C38   H15   S    
C7    C9    A    
Cu2   O15   S    
C21   O2    S    
C30   C33   A    
C39   H19   S    
C34   C43   A    
C3    C5    A    
C10   C13   A    
C37   H13   S    
C19   O16   A    
C19   C45   S    
C25   C27   A    
C21   C30   A    
C29   C35   A    
C3    C46   A    
C42   H28   S    
C28   C30   A    
C7    H3    S    
C43   C45   A    
C36   H7    S    
C5    N2    S    
C8    C11   A    
Cu2   O17   S    
C10   H6    S    
C14   O7    S    
C41   H25   S    
C35   O6    S    
C6    C34   A    
C7    C13   A    
C1    C13   S    
C21   N2    A    
C8    C10   A    
C40   H20   S    
C27   C28   A    
C12   O12   A    
C17   O10   S    
C18   O14   A    
C38   H14   S    
