data_mof_unit_58727.cif
_audit_creation_date              2012-12-10T17:22:10-0500
_audit_creation_method            fapswitch 2.2
_symmetry_space_group_name_H-M    P1
_symmetry_Int_Tables_number       1
_space_group_crystal_system       triclinic
_cell_length_a                    15.887671
_cell_length_b                    10.912713
_cell_length_c                    9.628601
_cell_angle_alpha                 89.928091
_cell_angle_beta                  90.826052
_cell_angle_gamma                 94.456241
_cell_volume                      1664.1640825

loop_
_atom_site_label
_atom_site_type_symbol
_atom_type_description
_atom_site_fract_x
_atom_site_fract_y
_atom_site_fract_z
_atom_type_partial_charge
C1    C     C_R   0.490235 0.262761 0.500614 0.818341
C2    C     C_3   0.950286 0.433333 0.630878 0.250685
C3    C     C_3   0.916407 0.494479 0.496520 0.051696
C4    C     C_3   0.956772 0.628567 0.491642 -0.504591
C5    C     C_3   0.054476 0.630038 0.492346 0.285459
C6    C     C_1   0.824303 0.497849 0.500725 0.005210
C7    C     C_1   0.175295 0.497805 0.495127 0.058410
C8    C     C_1   0.250836 0.498871 0.497078 -0.088660
C9    C     C_R   0.455011 0.114452 0.759539 -0.122280
C10   C     C_R   0.478777 0.061233 0.884023 -0.097515
C11   C     C_R   0.522959 0.956613 0.880735 -0.074061
C12   C     C_R   0.340435 0.499530 0.499177 0.811522
C13   C     C_R   0.533460 0.897660 0.754723 -0.120485
C14   C     C_R   0.501054 0.942305 0.628840 0.042207
C15   C     C_R   0.475679 0.062815 0.630549 0.099573
C16   C     C_R   0.475943 0.128380 0.504010 -0.178411
C17   C     C_R   0.472083 0.063840 0.378919 -0.217489
C18   C     C_R   0.474830 0.937159 0.377506 0.393885
C19   C     C_R   0.494668 0.874127 0.501657 -0.180463
C20   C     C_R   0.641873 0.627036 0.138472 -0.005004
C21   C     C_R   0.715407 0.649865 0.061638 -0.216677
C22   C     C_R   0.709744 0.655529 0.919662 -0.199985
C23   C     C_R   0.499041 0.738509 0.500339 0.845908
C24   C     C_R   0.632912 0.625537 0.855545 -0.150980
C25   C     C_R   0.565735 0.562490 0.925811 0.204760
C26   C     C_R   0.567104 0.563885 0.075287 0.183111
C27   C     C_R   0.437208 0.440133 0.072444 -0.016802
C28   C     C_R   0.437210 0.440301 0.924952 -0.043116
C29   C     C_R   0.659503 0.499878 0.500813 0.823998
C30   C     C_3   0.048113 0.435735 0.629236 -0.559753
C31   C     C_3   0.043009 0.417983 0.365770 0.279566
C32   C     C_3   0.944568 0.428837 0.362032 -0.248640
C33   C     C_1   0.748963 0.499313 0.502133 -0.127225
C34   C     C_3   0.082753 0.495652 0.492409 0.035993
Cu1   Cu    Cu3+1 0.499990 0.499990 0.640660 0.957546
Cu2   Cu    Cu3+1 0.500010 0.500010 0.359340 1.004323
H1    H     H_    0.074598 0.489072 0.720503 0.194327
H2    H     H_    0.932131 0.487274 0.722335 0.145088
H3    H     H_    0.933690 0.676099 0.397765 0.236418
H4    H     H_    0.465613 0.111866 0.281194 0.184844
H5    H     H_    0.419895 0.195033 0.765512 0.144266
H6    H     H_    0.466014 0.103901 0.982175 0.152024
H7    H     H_    0.548508 0.920010 0.975430 0.185159
H8    H     H_    0.571642 0.822472 0.756768 0.141290
H9    H     H_    0.385832 0.390410 0.126060 0.146582
H10   H     H_    0.069467 0.341738 0.642546 0.240713
H11   H     H_    0.773870 0.687515 0.110426 0.166971
H12   H     H_    0.762777 0.694357 0.860352 0.170945
H13   H     H_    0.628047 0.656555 0.751589 0.182381
H14   H     H_    0.385540 0.391157 0.869274 0.133396
H15   H     H_    0.929341 0.488854 0.273006 0.184587
H16   H     H_    0.078488 0.675965 0.589928 0.129082
H17   H     H_    0.936638 0.680967 0.582985 0.171025
N1    N     N_R   0.500800 0.501210 0.147910 -0.194678
N2    N     N_R   0.500820 0.501290 0.852040 -0.196560
O1    O     O_R   0.499990 0.319640 0.618810 -0.583986
O2    O     O_R   0.500000 0.319660 0.381240 -0.584361
O3    O     O_R   0.379430 0.499990 0.618840 -0.586994
O4    O     O_R   0.379440 0.500020 0.381260 -0.554038
O5    O     O_R   0.500000 0.680340 0.618760 -0.612634
O6    O     O_R   0.500010 0.680360 0.381190 -0.518489
O7    O     O_R   0.620560 0.499980 0.618740 -0.586074
O8    O     O_R   0.620570 0.500010 0.381160 -0.590787
Cl1   Cl    Cl    0.904195 0.279986 0.658400 -0.568047
Cl2   Cl    Cl    0.451539 0.865720 0.215632 -0.616821
C35   C     C_1   0.645590 0.710661 0.254228 0.360064
N3    N     N_1   0.654971 0.781199 0.343929 -0.315344
Cl3   Cl    Cl    0.086488 0.469712 0.202647 -0.539569
C36   C     C_1   0.065219 0.288548 0.377585 0.305833
N4    N     N_1   0.082612 0.187772 0.386809 -0.201015
C37   C     C_1   0.894023 0.311368 0.332787 0.356241
N5    N     N_1   0.854471 0.219910 0.309654 -0.198771
Cl4   Cl    Cl    0.098705 0.726238 0.356306 -0.483128

loop_
_geom_bond_atom_site_label_1
_geom_bond_atom_site_label_2
_ccdc_geom_bond_type
Cu1   O1    S    
C19   C23   S    
C6    C33   T    
C5    H16   S    
C11   H7    S    
C32   C37   S    
C1    O2    A    
C4    H17   S    
C10   H6    S    
Cu2   O8    S    
C9    C10   A    
C2    H2    S    
C30   H10   S    
C9    H5    S    
Cu1   Cu2   S    
C4    H3    S    
C2    C30   S    
C8    C12   S    
C3    C6    S    
C12   O3    A    
C5    C34   S    
Cu2   O4    S    
C29   O8    A    
C17   C18   A    
C9    C15   A    
C27   N1    A    
C25   N2    A    
C7    C8    T    
C32   H15   S    
C1    C16   S    
C31   C32   S    
C21   C22   A    
C20   C21   A    
C18   Cl2   S    
C11   C13   A    
C27   H9    S    
C23   O5    A    
C20   C26   A    
Cu1   O3    S    
C26   N1    A    
C20   C35   S    
C24   H13   S    
C1    O1    A    
C2    Cl1   S    
C22   H12   S    
C2    C3    S    
Cu1   O7    S    
C36   N4    T    
C5    Cl4   S    
C3    C32   S    
C7    C34   S    
C22   C24   A    
C31   C34   S    
Cu2   N1    S    
C10   C11   A    
C30   C34   S    
Cu1   N2    S    
Cu2   O6    S    
Cu1   O5    S    
C16   C17   A    
C29   C33   S    
C31   C36   S    
C35   N3    T    
C24   C25   A    
C29   O7    A    
Cu2   O2    S    
C23   O6    A    
C27   C28   A    
C14   C15   A    
C18   C19   A    
C14   C19   A    
C37   N5    T    
C25   C26   A    
C13   C14   A    
C12   O4    A    
C28   H14   S    
C31   Cl3   S    
C28   N2    A    
C13   H8    S    
C3    C4    S    
C15   C16   A    
C30   H1    S    
C4    C5    S    
C21   H11   S    
C17   H4    S    
