data_mof_unit_32247.cif
_audit_creation_date              2012-10-26T20:00:17-0400
_audit_creation_method            fapswitch 2.2
_symmetry_space_group_name_H-M    P1
_symmetry_Int_Tables_number       1
_space_group_crystal_system       triclinic
_cell_length_a                    23.498999
_cell_length_b                    10.935648
_cell_length_c                    9.743882
_cell_angle_alpha                 89.566641
_cell_angle_beta                  89.541215
_cell_angle_gamma                 91.190691
_cell_volume                      2503.25568248

loop_
_atom_site_label
_atom_site_type_symbol
_atom_type_description
_atom_site_fract_x
_atom_site_fract_y
_atom_site_fract_z
_atom_type_partial_charge
C1    C     C_R   0.500370 0.265429 0.499814 0.541262
C2    C     C_R   0.119930 0.607122 0.468412 0.400362
C3    C     C_R   0.242606 0.549028 0.638132 -0.066683
C4    C     C_R   0.390737 0.498578 0.500554 0.537894
C5    C     C_R   0.301558 0.543261 0.625916 -0.164942
C6    C     C_R   0.327507 0.500198 0.504958 0.012147
C7    C     C_R   0.292072 0.460564 0.394889 -0.005972
C8    C     C_R   0.232773 0.468416 0.409334 -0.045739
C9    C     C_R   0.208181 0.512276 0.529601 0.228849
C10   C     C_R   0.762577 0.443246 0.404024 0.062698
C11   C     C_R   0.702894 0.446934 0.396919 -0.130303
C12   C     C_R   0.967657 0.334928 0.685342 -0.126599
C13   C     C_R   0.671391 0.502463 0.501447 -0.007118
C14   C     C_R   0.699812 0.556526 0.612246 -0.153001
C15   C     C_R   0.758864 0.556352 0.618354 -0.074533
C16   C     C_R   0.499024 0.734388 0.499462 0.552053
C17   C     C_R   0.790515 0.500291 0.515295 0.257409
C18   C     C_2   0.486535 0.936144 0.392448 -0.008828
C19   C     C_2   0.503913 0.866350 0.497825 -0.118762
C20   C     C_2   0.506929 0.063730 0.389204 0.011941
C21   C     C_2   0.494098 0.133460 0.498681 -0.114310
C22   C     C_2   0.468204 0.425121 0.925050 0.106214
C23   C     C_R   0.027034 0.338079 0.689517 -0.124734
C24   C     C_2   0.463288 0.439950 0.078008 -0.017081
C25   C     C_R   0.608904 0.500571 0.499722 0.547732
C26   C     C_R   0.880739 0.596933 0.455327 0.394572
C27   C     C_R   0.878731 0.419404 0.600032 0.386483
C28   C     C_R   0.938349 0.422193 0.608253 0.027214
C29   C     C_R   0.969300 0.514316 0.536336 -0.028689
C30   C     C_R   0.940363 0.602885 0.459542 0.027388
C31   C     C_3   0.446914 0.890662 0.279614 -0.248094
C32   C     C_3   0.400485 0.982173 0.247514 -0.448515
C33   C     C_3   0.541876 0.106564 0.264861 -0.244888
C34   C     C_R   0.058340 0.428453 0.616521 0.028752
C35   C     C_3   0.602687 0.143585 0.303806 -0.422144
C36   C     C_3   0.433207 0.319180 0.869247 -0.218464
C37   C     C_3   0.462748 0.197978 0.893483 -0.440710
C38   C     C_R   0.555370 0.525104 0.102007 0.193833
C39   C     C_R   0.576642 0.645929 0.104113 -0.080889
C40   C     C_R   0.631195 0.673781 0.053266 -0.134008
C41   C     C_R   0.665069 0.581042 0.001495 -0.116927
C42   C     C_R   0.644922 0.459836 0.002982 -0.135217
C43   C     C_R   0.590587 0.431403 0.054795 -0.069783
C44   C     C_3   0.314399 0.407201 0.262604 -0.267898
C45   C     C_R   0.029343 0.517374 0.540373 -0.028832
C46   C     C_3   0.337848 0.279345 0.285048 -0.431337
C47   C     C_3   0.795128 0.373874 0.296187 -0.262274
C48   C     C_3   0.798956 0.444857 0.161164 -0.428700
C49   C     C_R   0.060269 0.608495 0.466876 0.028684
C50   C     C_R   0.030949 0.697192 0.391955 -0.124024
C51   C     C_R   0.971603 0.694511 0.388478 -0.126445
C52   C     C_R   0.118097 0.430956 0.615189 0.401548
Cu1   Cu    Cu3+1 0.500010 0.500020 0.638630 0.917677
Cu2   Cu    Cu3+1 0.499990 0.499980 0.361370 0.909769
H1    H     H_    0.944851 0.263457 0.741902 0.165274
H2    H     H_    0.053743 0.768374 0.334913 0.167590
H3    H     H_    0.950342 0.763792 0.329004 0.165599
H4    H     H_    0.223660 0.582924 0.731716 0.133187
H5    H     H_    0.326985 0.574089 0.711705 0.133036
H6    H     H_    0.204954 0.438834 0.327282 0.122414
H7    H     H_    0.376187 0.003872 0.342222 0.160096
H8    H     H_    0.419328 0.067707 0.203283 0.145385
H9    H     H_    0.370644 0.942395 0.171298 0.145058
H10   H     H_    0.471971 0.873561 0.184864 0.134205
H11   H     H_    0.424400 0.804379 0.310075 0.176964
H12   H     H_    0.681017 0.402968 0.312477 0.122630
H13   H     H_    0.603272 0.223740 0.372830 0.168078
H14   H     H_    0.623745 0.066106 0.355767 0.153003
H15   H     H_    0.627394 0.168368 0.209665 0.123034
H16   H     H_    0.544990 0.031082 0.189645 0.127413
H17   H     H_    0.521014 0.181869 0.209443 0.162448
H18   H     H_    0.506359 0.200582 0.848718 0.174921
H19   H     H_    0.465543 0.178640 0.005045 0.117375
H20   H     H_    0.437848 0.122626 0.845227 0.130542
H21   H     H_    0.391171 0.315139 0.922490 0.093374
H22   H     H_    0.422351 0.329286 0.760741 0.211254
H23   H     H_    0.676283 0.600275 0.693613 0.133497
H24   H     H_    0.550458 0.718731 0.142016 0.115280
H25   H     H_    0.647054 0.767412 0.053112 0.115062
H26   H     H_    0.707071 0.603070 0.960846 0.113325
H27   H     H_    0.671430 0.387931 0.964043 0.116907
H28   H     H_    0.575432 0.337258 0.055781 0.097584
H29   H     H_    0.375117 0.281254 0.354096 0.171281
H30   H     H_    0.304369 0.217832 0.330322 0.161508
H31   H     H_    0.351191 0.241209 0.184849 0.123504
H32   H     H_    0.279801 0.398517 0.185846 0.137226
H33   H     H_    0.346138 0.470271 0.214210 0.163681
H34   H     H_    0.780265 0.599990 0.703583 0.120563
H35   H     H_    0.755843 0.459036 0.120055 0.150134
H36   H     H_    0.820548 0.534918 0.176146 0.202257
H37   H     H_    0.823680 0.392227 0.085006 0.153648
H38   H     H_    0.838954 0.354084 0.330331 0.170023
H39   H     H_    0.773569 0.283949 0.278718 0.139612
H40   H     H_    0.528081 0.907251 0.581130 0.086039
H41   H     H_    0.472799 0.092255 0.587646 0.077421
H42   H     H_    0.511741 0.581125 0.887767 0.212070
H43   H     H_    0.428024 0.394134 0.129789 0.123285
H44   H     H_    0.048299 0.268825 0.749017 0.167093
N1    N     N_R   0.851414 0.505155 0.523205 -0.401996
N2    N     N_R   0.147452 0.518450 0.540492 -0.398335
N3    N     N_2   0.499380 0.498660 0.846910 -0.335514
N4    N     N_2   0.499370 0.498630 0.153040 -0.273996
O1    O     O_R   0.500010 0.321960 0.617040 -0.507159
O2    O     O_R   0.582130 0.500060 0.617050 -0.484098
O3    O     O_R   0.582110 0.500020 0.382900 -0.493796
O4    O     O_2   0.852203 0.682108 0.384217 -0.509694
O5    O     O_2   0.848268 0.331524 0.667356 -0.508055
O6    O     O_2   0.146661 0.345446 0.685708 -0.499226
O7    O     O_2   0.150295 0.692986 0.397596 -0.498511
O8    O     O_R   0.499990 0.321920 0.382900 -0.504209
O9    O     O_R   0.417890 0.499980 0.617100 -0.517914
O10   O     O_R   0.417870 0.499940 0.382950 -0.506277
O11   O     O_R   0.500010 0.678080 0.617100 -0.499453
O12   O     O_R   0.499990 0.678040 0.382960 -0.503684

loop_
_geom_bond_atom_site_label_1
_geom_bond_atom_site_label_2
_ccdc_geom_bond_type
C37   H20   S    
C2    O7    S    
C1    C21   S    
C47   H38   S    
C30   C51   A    
C16   O11   A    
C26   O4    S    
C41   H26   S    
C25   O3    A    
C7    C8    A    
Cu1   Cu2   S    
C12   C23   A    
C27   N1    A    
C22   N3    D    
C12   C28   A    
C36   C37   S    
C36   H21   S    
C32   H7    S    
C38   C39   A    
Cu1   O2    S    
Cu2   O8    S    
C31   H11   S    
C18   C19   D    
C41   C42   A    
C14   H23   S    
C36   H22   S    
C47   C48   S    
C44   C46   S    
C8    C9    A    
C48   H37   S    
C51   H3    S    
C35   H13   S    
C44   H33   S    
C1    O1    A    
C24   N4    D    
C11   H12   S    
C26   N1    A    
C46   H31   S    
Cu1   O9    S    
C4    O10   A    
C2    N2    A    
C48   H36   S    
C13   C14   A    
C13   C25   S    
C42   H27   S    
C44   H32   S    
Cu1   O11   S    
C50   C51   A    
C5    H5    S    
C24   H43   S    
C39   H24   S    
C4    C6    S    
Cu1   N3    S    
C39   C40   A    
C21   H41   S    
C52   N2    A    
C50   H2    S    
C29   C45   A    
C29   C30   A    
C3    C9    A    
C2    C49   A    
C1    O8    A    
C31   C32   S    
C27   O5    S    
C23   C34   A    
C45   C49   A    
C47   H39   S    
C40   H25   S    
Cu2   O10   S    
C34   C45   A    
C7    C44   S    
C17   N1    S    
C35   H15   S    
C19   H40   S    
C33   H16   S    
C46   H30   S    
C20   C33   S    
C40   C41   A    
C4    O9    A    
C26   C30   A    
C9    N2    S    
C48   H35   S    
C22   C24   S    
C42   C43   A    
C10   C47   S    
C15   C17   A    
C37   H19   S    
C28   C29   A    
Cu2   O3    S    
C31   H10   S    
Cu2   N4    S    
C32   H9    S    
C3    C5    A    
C16   O12   A    
C25   O2    A    
C6    C7    A    
C22   C36   S    
C34   C52   A    
C32   H8    S    
C38   C43   A    
C38   N4    S    
C8    H6    S    
C11   C13   A    
C5    C6    A    
C35   H14   S    
Cu1   O1    S    
C16   C19   S    
Cu2   O12   S    
C33   C35   S    
C18   C20   S    
C12   H1    S    
C10   C11   A    
C33   H17   S    
C46   H29   S    
C3    H4    S    
C23   H44   S    
C20   C21   D    
C52   O6    S    
C49   C50   A    
C37   H18   S    
C27   C28   A    
C43   H28   S    
C14   C15   A    
C18   C31   S    
C10   C17   A    
H42   N3    S    
C15   H34   S    
