data_mof_unit_39043.cif
_audit_creation_date              2013-03-05T16:12:06-0500
_audit_creation_method            fapswitch 2.2
_symmetry_space_group_name_H-M    P1
_symmetry_Int_Tables_number       1
_space_group_crystal_system       triclinic
_cell_length_a                    9.882806
_cell_length_b                    10.699212
_cell_length_c                    16.778451
_cell_angle_alpha                 91.204348
_cell_angle_beta                  82.637338
_cell_angle_gamma                 89.379214
_cell_volume                      1758.94354404

loop_
_atom_site_label
_atom_site_type_symbol
_atom_site_description
_atom_site_fract_x
_atom_site_fract_y
_atom_site_fract_z
_atom_type_partial_charge
O1    O     O_R   0.385380 0.683250 0.500010 -0.647647
O2    O     O_R   0.614620 0.316750 0.499990 -0.595883
O3    O     O_R   0.614710 0.683220 0.500000 -0.630861
O4    O     O_R   0.385290 0.316780 0.500000 -0.639358
C1    C     C_R   0.499495 0.739985 0.500409 0.855863
C2    C     C_R   0.500505 0.260007 0.499510 0.876613
O5    O     O_R   0.371780 0.500040 0.615800 -0.646198
O6    O     O_R   0.628220 0.499960 0.384200 -0.549256
O7    O     O_R   0.601110 0.500010 0.615800 -0.612045
O8    O     O_R   0.398890 0.499990 0.384200 -0.621688
C3    C     C_R   0.477953 0.497873 0.653054 0.850792
C4    C     C_R   0.521905 0.498765 0.347123 0.872031
Zn1   Zn    Zn3+2 0.346870 0.500020 0.500000 0.923183
Zn2   Zn    Zn3+2 0.653130 0.499980 0.500000 0.984141
C5    C     C_R   0.457553 0.494451 0.739949 -0.054137
C6    C     C_R   0.542256 0.475358 0.261622 -0.022117
C7    C     C_R   0.539686 0.571279 0.781533 -0.212008
C8    C     C_R   0.489387 0.364178 0.233689 -0.198585
C9    C     C_R   0.528540 0.568420 0.864370 -0.119969
C10   C     C_R   0.505102 0.335514 0.152289 -0.171413
C11   C     C_R   0.436033 0.487801 0.905987 0.240795
C12   C     C_R   0.572244 0.419025 0.098728 0.029390
C13   C     C_R   0.349109 0.414705 0.865857 -0.099242
C14   C     C_R   0.632203 0.526870 0.126235 -0.180348
C15   C     C_R   0.359228 0.415956 0.782141 0.070533
C16   C     C_R   0.618117 0.556674 0.208322 0.098335
C17   C     C_2   0.442088 0.470197 0.991052 -0.089902
C18   C     C_2   0.551818 0.409974 0.014782 -0.143794
H1    H     H_    0.613898 0.632337 0.749663 0.156360
H2    H     H_    0.433829 0.300606 0.275046 0.141608
H3    H     H_    0.278685 0.352240 0.899560 0.131584
H4    H     H_    0.681635 0.591427 0.083161 0.137666
H5    H     H_    0.457065 0.253142 0.130619 0.149148
H6    H     H_    0.595749 0.624976 0.896000 0.132248
C19   C     C_R   0.615160 0.935473 0.518570 -0.196164
C20   C     C_R   0.384840 0.064516 0.481175 -0.200654
H7    H     H_    0.704631 0.886273 0.533540 0.169746
H8    H     H_    0.295428 0.113739 0.466135 0.151906
C21   C     C_R   0.616119 0.063400 0.517608 -0.172735
C22   C     C_R   0.383946 0.936558 0.482038 -0.169226
H9    H     H_    0.705926 0.111749 0.532094 0.155704
H10   H     H_    0.294262 0.888161 0.467407 0.170765
C23   C     C_R   0.500852 0.127483 0.499120 -0.020533
C24   C     C_R   0.499123 0.872497 0.500689 -0.017735
C25   C     C_R   0.940262 0.408166 0.459246 0.054061
C26   C     C_R   0.060119 0.590210 0.542479 0.047504
C27   C     C_R   0.083258 0.408976 0.459788 -0.171579
C28   C     C_R   0.916664 0.590190 0.541143 -0.073242
H11   H     H_    0.147254 0.336867 0.427472 0.134328
H12   H     H_    0.851985 0.660710 0.574532 0.171988
N1    N     N_R   0.142790 0.500030 0.500020 -0.119028
N2    N     N_R   0.857210 0.499970 0.499980 -0.110778
C29   C     C_3   0.677836 0.677327 0.236416 -0.435453
C30   C     C_3   0.566284 0.776625 0.261407 -0.378767
C31   C     C_3   0.627494 0.898812 0.287649 -0.819862
H13   H     H_    0.685546 0.882898 0.339074 0.267786
H14   H     H_    0.696736 0.937725 0.237082 0.263031
H15   H     H_    0.544539 0.968086 0.306693 0.253709
H16   H     H_    0.508988 0.794960 0.209892 0.232432
H17   H     H_    0.493157 0.743304 0.312057 0.216883
H18   H     H_    0.736947 0.658896 0.287019 0.230445
H19   H     H_    0.751403 0.715191 0.187336 0.212003
C32   C     C_3   0.271533 0.326489 0.740584 -0.407070
C33   C     C_3   0.130855 0.384908 0.734501 -0.315256
C34   C     C_3   0.048394 0.302743 0.683591 -0.822472
H20   H     H_    0.102976 0.290142 0.621774 0.262415
H21   H     H_    0.031425 0.209781 0.711111 0.270805
H22   H     H_    0.947794 0.347926 0.679751 0.252614
H23   H     H_    0.073682 0.397359 0.795728 0.225231
H24   H     H_    0.142180 0.478378 0.707116 0.229289
H25   H     H_    0.323025 0.297305 0.680248 0.217020
H26   H     H_    0.257943 0.238798 0.775020 0.200146
C35   C     C_2   0.659115 0.340463 0.960158 0.420217
H27   H     H_    0.754158 0.315160 0.982115 0.075280
O9    O     O_2   0.641918 0.306947 0.892228 -0.567373
C36   C     C_2   0.331677 0.530303 0.048796 0.370810
H28   H     H_    0.331414 0.524154 0.113216 0.098402
O10   O     O_2   0.238394 0.587924 0.024404 -0.569461
C37   C     C_2   0.886557 0.303872 0.414575 0.429899
H29   H     H_    0.927260 0.210136 0.419656 0.012521
O11   O     O_2   0.805293 0.321562 0.367150 -0.536846
C38   C     C_2   0.117216 0.686057 0.592867 0.360478
H30   H     H_    0.214374 0.671765 0.614045 0.135433
O12   O     O_2   0.053973 0.782681 0.613138 -0.604456

loop_
_geom_bond_atom_site_label_1
_geom_bond_atom_site_label_2
_geom_bond_distance
_ccdc_geom_bond_type
O5    Zn1   1.989526 S    
C31   H13   1.110662 S    
C7    H1    1.084043 S    
C35   H27   1.085658 S    
C27   H11   1.083133 S    
C30   H17   1.110188 S    
C29   C30   1.535370 S    
O5    C3    1.288571 A    
O1    C1    1.287249 A    
C19   H7    1.083717 S    
C14   C16   1.396234 A    
C5    C15   1.420233 A    
C15   C32   1.516046 S    
O4    Zn1   1.992910 S    
Zn1   N1    2.016839 S    
C29   H18   1.110270 S    
Zn2   N2    2.016840 S    
C4    C6    1.439114 S    
C34   H21   1.110710 S    
C8    H2    1.084394 S    
C33   H24   1.110097 S    
C28   H12   1.082463 S    
C11   C17   1.452268 S    
C12   C18   1.449662 S    
C35   O9    1.220781 D    
O2    C2    1.287434 A    
C3    C5    1.447320 S    
C18   C35   1.490882 S    
C30   H16   1.111905 S    
C25   C27   1.414516 A    
C11   C13   1.394147 A    
C6    C16   1.412002 A    
C26   C28   1.420792 A    
C26   C38   1.477553 S    
C20   C22   1.369542 A    
C36   H28   1.083917 S    
O4    C2    1.283729 A    
C37   O11   1.216874 D    
C21   C23   1.395199 A    
C25   N2    1.384233 A    
C26   N1    1.382322 A    
C9    H6    1.083759 S    
C32   C33   1.534351 S    
C13   H3    1.084404 S    
C19   C21   1.369268 A    
O7    Zn2   1.945070 S    
C14   H4    1.084369 S    
C29   H19   1.112568 S    
C28   N2    1.357305 A    
O6    C4    1.287864 A    
C34   H22   1.110678 S    
C25   C37   1.472502 S    
C33   H23   1.111834 S    
C19   C24   1.398393 A    
O7    C3    1.295710 A    
C32   H25   1.110204 S    
O3    Zn2   1.992910 S    
O8    C4    1.292538 A    
C10   H5    1.083571 S    
C1    C24   1.417644 S    
C10   C12   1.392845 A    
C38   H30   1.076177 S    
C38   O12   1.221388 D    
C2    C23   1.417735 S    
C31   H14   1.110700 S    
C12   C14   1.399301 A    
O1    Zn1   2.001062 S    
C17   C36   1.493501 S    
C16   C29   1.516287 S    
C5    C7    1.398885 A    
C30   C31   1.526449 S    
O6    Zn2   1.989526 S    
C9    C11   1.395061 A    
C36   O10   1.221664 D    
O3    C1    1.283849 A    
O8    Zn1   1.945070 S    
C27   N1    1.355526 A    
C33   C34   1.526096 S    
C20   H8    1.083750 S    
C22   H10   1.083673 S    
C7    C9    1.381097 A    
C8    C10   1.382195 A    
C13   C15   1.395696 A    
O2    Zn2   2.001062 S    
C37   H29   1.085604 S    
C22   C24   1.395274 A    
C32   H26   1.112549 S    
C21   H9    1.083683 S    
C6    C8    1.400166 A    
C34   H20   1.110891 S    
C31   H15   1.110539 S    
C17   C18   1.362354 D    
C20   C23   1.398480 A    
