data_mof_unit_5130.cif
_audit_creation_date              2012-12-11T15:57:32-0500
_audit_creation_method            fapswitch 2.2
_symmetry_space_group_name_H-M    P1
_symmetry_Int_Tables_number       1
_space_group_crystal_system       triclinic
_cell_length_a                    10.744679
_cell_length_b                    10.777524
_cell_length_c                    16.994575
_cell_angle_alpha                 100.137311
_cell_angle_beta                  100.312744
_cell_angle_gamma                 60.780471
_cell_volume                      1680.80360584

loop_
_atom_site_label
_atom_site_type_symbol
_atom_type_description
_atom_site_fract_x
_atom_site_fract_y
_atom_site_fract_z
_atom_type_partial_charge
C1    C     C_R   0.352669 0.778075 0.402656 0.553452
C2    C     C_2   0.259165 0.276440 0.794519 -0.006868
C3    C     C_2   0.350664 0.171029 0.745119 0.315591
C4    C     C_R   0.365478 0.342779 0.358428 0.574826
C5    C     C_2   0.385392 0.192519 0.670954 -0.108249
C6    C     C_1   0.817985 0.342085 0.708665 -0.046076
C7    C     C_1   0.844228 0.313309 0.776258 -0.045622
C8    C     C_1   0.323197 0.841241 0.704818 0.017351
C9    C     C_1   0.284782 0.887094 0.770616 0.003278
C10   C     C_R   0.958229 0.283953 0.098677 0.522611
C11   C     C_R   0.290566 0.260563 0.121650 0.541504
C12   C     C_2   0.915226 0.302545 0.177248 -0.071611
C13   C     C_R   0.294296 0.892670 0.084528 0.570710
C14   C     C_R   0.885000 0.297203 0.858657 0.552169
C15   C     C_R   0.272066 0.250354 0.878293 0.592877
C16   C     C_R   0.779003 0.374749 0.405761 0.564735
C17   C     C_R   0.245365 0.940431 0.849903 0.539179
C18   C     C_R   0.355219 0.776239 0.625817 0.551366
C19   C     C_R   0.362293 0.339862 0.573156 0.559039
C20   C     C_R   0.773892 0.380802 0.629559 0.545732
C21   C     C_1   0.323770 0.316266 0.276619 -0.006874
C22   C     C_1   0.304038 0.291629 0.205802 -0.041044
C23   C     C_2   0.963895 0.190546 0.218575 -0.104340
C24   C     C_2   0.882806 0.311631 0.346592 0.342440
C25   C     C_3   0.135770 0.419280 0.768325 -0.296513
C26   C     C_3   0.185267 0.531459 0.769005 -0.287162
C27   C     C_3   0.070133 0.658735 0.725601 -0.404911
C28   C     C_3   0.800438 0.129923 0.279378 -0.273518
C29   C     C_3   0.806396 0.036294 0.198885 -0.299877
C30   C     C_3   0.720933 0.957365 0.196126 -0.422888
C31   C     C_3   0.550768 0.878589 0.353523 -0.240663
C32   C     C_3   0.683291 0.741422 0.327742 -0.265897
C33   C     C_3   0.819606 0.730897 0.379038 -0.395605
C34   C     C_2   0.888833 0.207946 0.286887 -0.028102
C35   C     C_2   0.319544 0.861508 0.335806 -0.045441
C36   C     C_2   0.340820 0.838852 0.162565 0.355407
C37   C     C_2   0.389305 0.910006 0.222125 -0.134623
C38   C     C_2   0.416189 0.881358 0.306169 -0.013539
C39   C     C_2   0.298892 0.293277 0.621772 -0.165056
Cr1   Cr    Cr6+3 0.608020 0.610770 0.522990 1.028280
Cr2   Cr    Cr6+3 0.289390 0.599570 0.488050 1.036987
Cr3   Cr    Cr6+3 0.602610 0.289690 0.489020 0.999478
Cr4   Cr    Cr6+3 0.053780 0.052210 0.965970 1.030274
Cr5   Cr    Cr6+3 0.060060 0.372530 0.992430 1.038559
Cr6   Cr    Cr6+3 0.372600 0.061970 0.991430 1.049918
F1    F     F_    0.968378 0.372951 0.348317 -0.675548
F2    F     F_    0.315234 0.733061 0.176327 -0.636469
F3    F     F_    0.446522 0.043720 0.773661 -0.632686
H1    H     H_    0.039801 0.084550 0.194792 0.120631
H2    H     H_    0.207648 0.569856 0.832369 0.197995
H3    H     H_    0.286158 0.485677 0.740848 0.175289
H4    H     H_    0.072506 0.403547 0.712598 0.119226
H5    H     H_    0.050016 0.467501 0.808937 0.188763
H6    H     H_    0.777420 0.875817 0.238993 0.150524
H7    H     H_    0.611060 0.032426 0.212325 0.167972
H8    H     H_    0.713968 0.903042 0.134854 0.166832
H9    H     H_    0.761410 0.104597 0.148432 0.199371
H10   H     H_    0.919090 0.955217 0.190420 0.186845
H11   H     H_    0.839072 0.062034 0.329718 0.155749
H12   H     H_    0.499070 0.130571 0.663721 0.188511
H13   H     H_    0.686092 0.210271 0.283429 0.182158
H14   H     H_    0.830006 0.828146 0.377948 0.120172
H15   H     H_    0.817210 0.718942 0.442252 0.170752
H16   H     H_    0.914863 0.636810 0.355177 0.215699
H17   H     H_    0.670448 0.647309 0.332158 0.224356
H18   H     H_    0.693091 0.737887 0.263454 0.151149
H19   H     H_    0.559052 0.972083 0.341265 0.145791
H20   H     H_    0.546730 0.891784 0.419362 0.166696
H21   H     H_    0.184372 0.348209 0.618523 0.106683
H22   H     H_    0.836770 0.408394 0.200173 0.150983
H23   H     H_    0.410420 0.992525 0.209099 0.073687
H24   H     H_    0.216657 0.886610 0.300398 0.144198
H25   H     H_    0.048024 0.623677 0.661569 0.163954
H26   H     H_    0.969512 0.709856 0.754851 0.172582
H27   H     H_    0.107572 0.738853 0.727924 0.166669
O1    O     O_R   0.749250 0.499990 0.439200 -0.496228
O2    O     O_R   0.411120 0.181190 0.091480 -0.507670
O3    O     O_R   0.364220 0.944920 0.062310 -0.555441
O4    O     O_R   0.477870 0.725740 0.440280 -0.509197
O5    O     O_R   0.158740 0.906940 0.874970 -0.513712
O6    O     O_R   0.930920 0.176940 0.885610 -0.493889
O7    O     O_R   0.910730 0.394510 0.895320 -0.519400
O8    O     O_R   0.185840 0.361180 0.920280 -0.512503
O9    O     O_R   0.399210 0.173040 0.915160 -0.418274
O10   O     O_R   0.353170 0.937370 0.898860 -0.455750
O11   O     O_3   0.162150 0.162240 0.983280 -0.352427
O12   O     O_R   0.299400 0.468710 0.556310 -0.492370
O13   O     O_R   0.260770 0.742210 0.412610 -0.508625
O14   O     O_R   0.297990 0.466320 0.394220 -0.469630
O15   O     O_R   0.487720 0.253870 0.385870 -0.549724
O16   O     O_R   0.721940 0.304340 0.422320 -0.544441
O17   O     O_R   0.750770 0.502570 0.614050 -0.506097
O18   O     O_R   0.479280 0.728140 0.602370 -0.474568
O19   O     O_R   0.262290 0.744790 0.587460 -0.533931
O20   O     O_R   0.489240 0.256450 0.560730 -0.520826
O21   O     O_R   0.723350 0.306730 0.584410 -0.493540
O22   O     O_3   0.500010 0.500010 0.500020 -0.247587
O23   O     O_R   0.170650 0.915100 0.051290 -0.487560
O24   O     O_R   0.941960 0.184500 0.049060 -0.486092
O25   O     O_R   0.922640 0.402670 0.071640 -0.499705
O26   O     O_R   0.196880 0.368740 0.083740 -0.460636

loop_
_geom_bond_atom_site_label_1
_geom_bond_atom_site_label_2
_ccdc_geom_bond_type
Cr2   O14   S    
Cr4   O23   S    
Cr1   O18   S    
Cr5   O8    S    
C31   H19   S    
C20   O17   A    
C12   C23   D    
C26   C27   S    
C29   C30   S    
Cr3   O21   S    
C36   C37   D    
Cr4   O24   S    
Cr5   O7    S    
C26   H2    S    
C27   H27   S    
C23   H1    S    
C3    F3    S    
C36   F2    S    
Cr3   O16   S    
C13   O23   A    
C11   O2    A    
C7    C14   S    
Cr2   O19   S    
C8    C9    T    
Cr6   O3    S    
C27   H26   S    
C28   H13   S    
C1    O13   A    
C20   O21   A    
C28   C34   S    
C16   C24   S    
C21   C22   T    
Cr5   O11   S    
C10   C12   S    
C4    O15   A    
C31   H20   S    
Cr2   O12   S    
Cr3   O20   S    
C35   C38   D    
C13   C36   S    
Cr3   O22   S    
Cr1   O22   S    
C33   H14   S    
C15   O8    A    
C25   C26   S    
C30   H8    S    
C17   O5    A    
C8    C18   S    
Cr1   O1    S    
Cr3   O15   S    
Cr6   O10   S    
C37   C38   S    
C30   H6    S    
C31   C32   S    
C33   H15   S    
C23   C34   S    
C39   H21   S    
Cr1   O4    S    
C11   O26   A    
Cr1   O17   S    
C10   O25   A    
C2    C15   S    
C15   O9    A    
C19   C39   S    
C9    C17   S    
C29   H9    S    
C35   H24   S    
C37   H23   S    
Cr4   O6    S    
C17   O10   A    
Cr6   O9    S    
C14   O7    A    
C19   O20   A    
C1    C35   S    
C32   H18   S    
C4    O14   A    
C28   H11   S    
C18   O18   A    
Cr2   O13   S    
C12   H22   S    
C13   O3    A    
C28   C29   S    
C5    H12   S    
C16   O1    A    
Cr4   O11   S    
C25   H5    S    
C3    C5    S    
Cr5   O26   S    
C6    C7    T    
C6    C20   S    
C30   H7    S    
C11   C22   S    
C19   O12   A    
C31   C38   S    
C24   F1    S    
C32   C33   S    
C5    C39   D    
Cr6   O11   S    
Cr4   O5    S    
C25   H4    S    
C26   H3    S    
C4    C21   S    
Cr5   O25   S    
C33   H16   S    
C1    O4    A    
C2    C3    D    
C2    C25   S    
Cr2   O22   S    
C10   O24   A    
C24   C34   D    
C29   H10   S    
C16   O16   A    
C18   O19   A    
Cr6   O2    S    
C14   O6    A    
C27   H25   S    
C32   H17   S    
