data_mof_unit_62986.cif
_audit_creation_date              2012-12-10T19:51:52-0500
_audit_creation_method            fapswitch 2.2
_symmetry_space_group_name_H-M    P1
_symmetry_Int_Tables_number       1
_space_group_crystal_system       monoclinic
_cell_length_a                    26.050285
_cell_length_b                    26.049462
_cell_length_c                    22.203978
_cell_angle_alpha                 90.0
_cell_angle_beta                  125.905136
_cell_angle_gamma                 90.0
_cell_volume                      12204.5335802

loop_
_atom_site_label
_atom_site_type_symbol
_atom_type_description
_atom_site_fract_x
_atom_site_fract_y
_atom_site_fract_z
_atom_type_partial_charge
C1    C     C_R   0.650302 0.749989 0.300621 0.826734
C2    C     C_R   0.650302 0.250011 0.300621 0.826729
C3    C     C_R   0.150302 0.249989 0.300621 0.826734
C4    C     C_R   0.150302 0.750011 0.300621 0.826729
C5    C     C_3   0.625599 0.470424 0.401267 -0.448450
C6    C     C_3   0.625599 0.529576 0.401266 -0.448466
C7    C     C_3   0.125599 0.970424 0.401267 -0.448450
C8    C     C_3   0.125599 0.029576 0.401266 -0.448466
C9    C     C_3   0.502774 0.202334 0.024968 -0.136984
C10   C     C_3   0.502711 0.797653 0.024968 -0.136979
C11   C     C_3   0.002774 0.702334 0.024968 -0.136984
C12   C     C_3   0.002711 0.297653 0.024968 -0.136979
C13   C     C_3   0.941432 0.734509 0.975367 -0.213887
C14   C     C_3   0.941411 0.265429 0.975367 -0.213871
C15   C     C_3   0.441432 0.234509 0.975367 -0.213887
C16   C     C_3   0.441411 0.765429 0.975367 -0.213871
C17   C     C_1   0.889348 0.749943 0.778851 -0.114149
C18   C     C_1   0.889348 0.250057 0.778851 -0.114150
C19   C     C_1   0.389348 0.249943 0.778851 -0.114149
C20   C     C_1   0.389348 0.750057 0.778851 -0.114150
C21   C     C_1   0.610567 0.250022 0.221160 -0.115626
C22   C     C_1   0.610567 0.749978 0.221160 -0.115623
C23   C     C_1   0.110567 0.750022 0.221160 -0.115626
C24   C     C_1   0.110567 0.249978 0.221160 -0.115623
C25   C     C_3   0.024097 0.717797 0.975311 -0.214975
C26   C     C_3   0.024054 0.282252 0.975312 -0.214984
C27   C     C_3   0.524097 0.217797 0.975311 -0.214975
C28   C     C_3   0.524054 0.782252 0.975312 -0.214984
C29   C     C_3   0.963325 0.749910 0.926876 0.104806
C30   C     C_3   0.963325 0.250090 0.926876 0.104804
C31   C     C_3   0.463325 0.249910 0.926876 0.104806
C32   C     C_3   0.463325 0.750090 0.926876 0.104804
C33   C     C_3   0.558645 0.265552 0.024911 -0.198481
C34   C     C_3   0.558665 0.734510 0.024911 -0.198486
C35   C     C_3   0.058645 0.765552 0.024911 -0.198481
C36   C     C_3   0.058665 0.234510 0.024911 -0.198486
C37   C     C_3   0.536540 0.250107 0.073169 0.122715
C38   C     C_3   0.536540 0.749893 0.073169 0.122712
C39   C     C_3   0.036540 0.750107 0.073169 0.122715
C40   C     C_3   0.036540 0.249893 0.073169 0.122712
C41   C     C_3   0.997232 0.797066 0.975614 0.443659
C42   C     C_3   0.997295 0.202947 0.975614 0.443659
C43   C     C_3   0.497232 0.297066 0.975614 0.443659
C44   C     C_3   0.497295 0.702947 0.975614 0.443659
C45   C     C_R   0.849656 0.749977 0.699386 0.819849
C46   C     C_R   0.849656 0.250023 0.699386 0.819855
C47   C     C_R   0.349656 0.249977 0.699386 0.819849
C48   C     C_R   0.349656 0.750023 0.699386 0.819855
C49   C     C_3   0.475813 0.282298 0.024971 -0.181811
C50   C     C_3   0.475856 0.717653 0.024970 -0.181805
C51   C     C_3   0.975813 0.782298 0.024971 -0.181811
C52   C     C_3   0.975856 0.217653 0.024970 -0.181805
C53   C     C_1   0.922737 0.749911 0.845685 -0.001005
C54   C     C_1   0.922737 0.250089 0.845685 -0.001002
C55   C     C_1   0.422737 0.249911 0.845685 -0.001005
C56   C     C_1   0.422737 0.750089 0.845685 -0.001002
C57   C     C_1   0.577135 0.250054 0.154327 -0.024603
C58   C     C_1   0.577135 0.749946 0.154327 -0.024600
C59   C     C_1   0.077135 0.750054 0.154327 -0.024603
C60   C     C_1   0.077135 0.249946 0.154327 -0.024600
C61   C     C_R   0.503512 0.718123 0.455268 0.076537
C62   C     C_R   0.503514 0.281880 0.455273 0.076542
C63   C     C_R   0.003512 0.218123 0.455268 0.076537
C64   C     C_R   0.003514 0.781880 0.455273 0.076542
C65   C     C_R   0.554525 0.750732 0.500180 -0.080094
C66   C     C_R   0.554524 0.249266 0.500178 -0.080096
C67   C     C_R   0.054525 0.250732 0.500180 -0.080094
C68   C     C_R   0.054524 0.749266 0.500178 -0.080096
C69   C     C_R   0.550237 0.784867 0.546520 -0.207224
C70   C     C_R   0.550232 0.215127 0.546510 -0.207227
C71   C     C_R   0.050237 0.284867 0.546520 -0.207224
C72   C     C_R   0.050232 0.715127 0.546510 -0.207227
C73   C     C_R   0.496286 0.784853 0.546583 -0.211260
C74   C     C_R   0.496281 0.215141 0.546573 -0.211268
C75   C     C_R   0.996286 0.284853 0.546583 -0.211260
C76   C     C_R   0.996281 0.715141 0.546573 -0.211268
C77   C     C_R   0.445707 0.750667 0.500363 -0.051589
C78   C     C_R   0.445706 0.249332 0.500362 -0.051589
C79   C     C_R   0.945707 0.250667 0.500363 -0.051589
C80   C     C_R   0.945706 0.749332 0.500362 -0.051589
C81   C     C_R   0.451826 0.717994 0.455558 0.052011
C82   C     C_R   0.451829 0.282010 0.455563 0.052014
C83   C     C_R   0.951826 0.217994 0.455558 0.052011
C84   C     C_R   0.951829 0.782010 0.455563 0.052014
C85   C     C_3   0.420077 0.675851 0.399863 -0.496617
C86   C     C_3   0.420087 0.324161 0.399882 -0.496619
C87   C     C_3   0.920077 0.175851 0.399863 -0.496617
C88   C     C_3   0.920087 0.824161 0.399882 -0.496619
C89   C     C_R   0.889993 0.749947 0.500054 0.814542
C90   C     C_R   0.889993 0.250053 0.500054 0.814545
C91   C     C_R   0.389993 0.249947 0.500054 0.814542
C92   C     C_R   0.389993 0.750053 0.500054 0.814545
C93   C     C_3   0.479162 0.675880 0.399609 0.243511
C94   C     C_3   0.479171 0.324132 0.399628 0.243509
C95   C     C_3   0.979162 0.175880 0.399609 0.243511
C96   C     C_3   0.979171 0.824132 0.399628 0.243509
C97   C     C_R   0.760716 0.974097 0.456417 0.129263
C98   C     C_R   0.760717 0.025903 0.456418 0.129264
C99   C     C_R   0.260716 0.474097 0.456417 0.129263
C100  C     C_R   0.260717 0.525903 0.456418 0.129264
C101  C     C_R   0.749679 0.945541 0.500532 -0.084496
C102  C     C_R   0.749679 0.054459 0.500532 -0.084495
C103  C     C_R   0.249679 0.445541 0.500532 -0.084496
C104  C     C_R   0.249679 0.554459 0.500532 -0.084495
C105  C     C_R   0.738080 0.973003 0.546318 -0.204954
C106  C     C_R   0.738080 0.026997 0.546318 -0.204956
C107  C     C_R   0.238080 0.473003 0.546318 -0.204954
C108  C     C_R   0.238080 0.526997 0.546318 -0.204956
C109  C     C_3   0.775449 0.029575 0.401096 -0.465579
C110  C     C_3   0.775448 0.970425 0.401096 -0.465578
C111  C     C_3   0.275448 0.529575 0.401096 -0.465579
C112  C     C_3   0.275448 0.470425 0.401096 -0.465578
C113  C     C_R   0.609995 0.750052 0.499997 0.817576
C114  C     C_R   0.609994 0.249948 0.499996 0.817566
C115  C     C_R   0.109995 0.250052 0.499997 0.817576
C116  C     C_R   0.109994 0.749948 0.499996 0.817566
C117  C     C_R   0.749980 0.889972 0.500056 0.814187
C118  C     C_R   0.749980 0.110028 0.500056 0.814190
C119  C     C_R   0.249979 0.389972 0.500056 0.814187
C120  C     C_R   0.249980 0.610028 0.500056 0.814190
C121  C     C_R   0.750041 0.610001 0.500074 0.801852
C122  C     C_R   0.750041 0.389999 0.500074 0.801849
C123  C     C_R   0.250041 0.110001 0.500074 0.801852
C124  C     C_R   0.250041 0.889999 0.500074 0.801849
C125  C     C_R   0.695652 0.525900 0.456483 0.119146
C126  C     C_R   0.695652 0.474099 0.456483 0.119141
C127  C     C_R   0.195652 0.025900 0.456483 0.119146
C128  C     C_R   0.195652 0.974099 0.456483 0.119141
C129  C     C_R   0.750808 0.554447 0.500534 -0.075955
C130  C     C_R   0.750808 0.445553 0.500534 -0.075955
C131  C     C_R   0.250808 0.054447 0.500534 -0.075955
C132  C     C_R   0.250808 0.945553 0.500534 -0.075955
C133  C     C_R   0.808191 0.526993 0.546241 -0.217809
C134  C     C_R   0.808191 0.473007 0.546241 -0.217808
C135  C     C_R   0.308191 0.026993 0.546241 -0.217809
C136  C     C_R   0.308191 0.973007 0.546241 -0.217808
H1    H     H_    0.852930 0.546939 0.581886 0.179433
H2    H     H_    0.852930 0.453061 0.581886 0.179433
H3    H     H_    0.352930 0.046939 0.581886 0.179433
H4    H     H_    0.352930 0.953061 0.581886 0.179433
H5    H     H_    0.588288 0.811422 0.582729 0.179670
H6    H     H_    0.588280 0.188567 0.582713 0.179667
H7    H     H_    0.088288 0.311422 0.582729 0.179670
H8    H     H_    0.088280 0.688567 0.582713 0.179667
H9    H     H_    0.494452 0.811427 0.582788 0.177438
H10   H     H_    0.494444 0.188562 0.582772 0.177435
H11   H     H_    0.994452 0.311427 0.582788 0.177438
H12   H     H_    0.994444 0.688562 0.582772 0.177435
H13   H     H_    0.415309 0.640403 0.424081 0.173293
H14   H     H_    0.415324 0.359605 0.424111 0.173287
H15   H     H_    0.915309 0.140403 0.424081 0.173293
H16   H     H_    0.915324 0.859605 0.424111 0.173287
H17   H     H_    0.375812 0.689001 0.347061 0.245371
H18   H     H_    0.375819 0.311019 0.347076 0.245375
H19   H     H_    0.875812 0.189001 0.347061 0.245371
H20   H     H_    0.875819 0.811019 0.347076 0.245375
H21   H     H_    0.508196 0.640366 0.422565 0.103403
H22   H     H_    0.508211 0.359643 0.422594 0.103395
H23   H     H_    0.008196 0.140366 0.422565 0.103403
H24   H     H_    0.008211 0.859643 0.422594 0.103395
H25   H     H_    0.729049 0.953055 0.582027 0.184678
H26   H     H_    0.729049 0.046944 0.582027 0.184675
H27   H     H_    0.229049 0.453055 0.582027 0.184678
H28   H     H_    0.229049 0.546944 0.582027 0.184675
H29   H     H_    0.735790 0.046647 0.347645 0.212532
H30   H     H_    0.735790 0.953353 0.347645 0.212533
H31   H     H_    0.235790 0.546647 0.347645 0.212532
H32   H     H_    0.235790 0.453353 0.347645 0.212533
H33   H     H_    0.822913 0.046633 0.425290 0.206420
H34   H     H_    0.822912 0.953367 0.425289 0.206420
H35   H     H_    0.322913 0.546633 0.425290 0.206420
H36   H     H_    0.322912 0.453367 0.425289 0.206420
H37   H     H_    0.611741 0.453350 0.347784 0.224535
H38   H     H_    0.611741 0.546650 0.347784 0.224532
H39   H     H_    0.111741 0.953350 0.347784 0.224535
H40   H     H_    0.111741 0.046650 0.347784 0.224532
H41   H     H_    0.602394 0.453364 0.425547 0.204848
H42   H     H_    0.602394 0.546636 0.425547 0.204846
H43   H     H_    0.102394 0.953364 0.425547 0.204848
H44   H     H_    0.102394 0.046636 0.425547 0.204846
H45   H     H_    0.892922 0.721663 0.954125 0.162325
H46   H     H_    0.892884 0.278224 0.954125 0.162328
H47   H     H_    0.392922 0.221663 0.954125 0.162325
H48   H     H_    0.392884 0.778224 0.954125 0.162328
H49   H     H_    0.505600 0.163170 0.046438 0.148899
H50   H     H_    0.505484 0.836806 0.046438 0.148902
H51   H     H_    0.005600 0.663170 0.046438 0.148899
H52   H     H_    0.005484 0.336806 0.046438 0.148902
H53   H     H_    0.456600 0.309056 0.046116 0.176783
H54   H     H_    0.456679 0.690856 0.046115 0.176778
H55   H     H_    0.956600 0.809056 0.046116 0.176783
H56   H     H_    0.956679 0.190856 0.046115 0.176778
H57   H     H_    0.607039 0.278637 0.046003 0.168845
H58   H     H_    0.607077 0.721475 0.046003 0.168848
H59   H     H_    0.107039 0.778637 0.046003 0.168845
H60   H     H_    0.107077 0.221475 0.046003 0.168848
H61   H     H_    0.043368 0.691242 0.954023 0.161337
H62   H     H_    0.043290 0.308846 0.954024 0.161335
H63   H     H_    0.543368 0.191242 0.954023 0.161337
H64   H     H_    0.543290 0.808846 0.954024 0.161335
O1    O     O_3   0.749980 0.749980 0.500000 -0.491312
O2    O     O_3   0.749980 0.250020 0.500000 -0.491312
O3    O     O_3   0.249980 0.249980 0.500000 -0.491312
O4    O     O_3   0.249980 0.750020 0.500000 -0.491312
O5    O     O_R   0.887330 0.719620 0.543100 -0.649277
O6    O     O_R   0.887330 0.280380 0.543100 -0.649274
O7    O     O_R   0.387330 0.219620 0.543100 -0.649277
O8    O     O_R   0.387330 0.780380 0.543100 -0.649274
O9    O     O_R   0.612630 0.719620 0.456900 -0.614343
O10   O     O_R   0.612630 0.280380 0.456900 -0.614337
O11   O     O_R   0.112630 0.219620 0.456900 -0.614343
O12   O     O_R   0.112630 0.780380 0.456900 -0.614337
O13   O     O_R   0.698160 0.780350 0.335610 -0.643243
O14   O     O_R   0.698160 0.219650 0.335610 -0.643245
O15   O     O_R   0.198160 0.280350 0.335610 -0.643243
O16   O     O_R   0.198160 0.719650 0.335610 -0.643245
O17   O     O_R   0.801810 0.780340 0.664390 -0.627939
O18   O     O_R   0.801810 0.219660 0.664390 -0.627952
O19   O     O_R   0.301810 0.280340 0.664390 -0.627939
O20   O     O_R   0.301810 0.719660 0.664390 -0.627952
O21   O     O_R   0.637440 0.719620 0.335610 -0.607501
O22   O     O_R   0.637440 0.280380 0.335610 -0.607499
O23   O     O_R   0.137440 0.219620 0.335610 -0.607501
O24   O     O_R   0.137440 0.780380 0.335610 -0.607499
O25   O     O_R   0.862520 0.719620 0.664390 -0.640499
O26   O     O_R   0.862520 0.280380 0.664390 -0.640492
O27   O     O_R   0.362520 0.219620 0.664390 -0.640499
O28   O     O_R   0.362520 0.780380 0.664390 -0.640492
O29   O     O_R   0.844240 0.780350 0.456900 -0.639887
O30   O     O_R   0.844240 0.219650 0.456900 -0.639888
O31   O     O_R   0.344240 0.280350 0.456900 -0.639887
O32   O     O_R   0.344240 0.719650 0.456900 -0.639888
O33   O     O_R   0.655730 0.780340 0.543100 -0.653451
O34   O     O_R   0.655730 0.219660 0.543100 -0.653454
O35   O     O_R   0.155730 0.280340 0.543100 -0.653451
O36   O     O_R   0.155730 0.719660 0.543100 -0.653454
O37   O     O_R   0.758800 0.865790 0.456890 -0.643999
O38   O     O_R   0.758800 0.134210 0.456890 -0.643999
O39   O     O_R   0.258800 0.365790 0.456890 -0.643999
O40   O     O_R   0.258800 0.634210 0.456890 -0.643999
O41   O     O_R   0.698070 0.634180 0.456910 -0.640878
O42   O     O_R   0.698070 0.365820 0.456910 -0.640875
O43   O     O_R   0.198070 0.134180 0.456910 -0.640878
O44   O     O_R   0.198070 0.865820 0.456910 -0.640875
O45   O     O_R   0.741170 0.865780 0.543090 -0.642622
O46   O     O_R   0.741170 0.134220 0.543090 -0.642625
O47   O     O_R   0.241170 0.365780 0.543090 -0.642622
O48   O     O_R   0.241170 0.634220 0.543090 -0.642625
O49   O     O_R   0.801880 0.634180 0.543110 -0.649607
O50   O     O_R   0.801880 0.365820 0.543110 -0.649607
O51   O     O_R   0.301880 0.134180 0.543110 -0.649607
O52   O     O_R   0.301880 0.865820 0.543110 -0.649607
Zn1   Zn    Zn3+2 0.824140 0.706600 0.561580 0.969047
Zn2   Zn    Zn3+2 0.824140 0.293400 0.561580 0.969054
Zn3   Zn    Zn3+2 0.324140 0.206600 0.561580 0.969047
Zn4   Zn    Zn3+2 0.324140 0.793400 0.561580 0.969054
Zn5   Zn    Zn3+2 0.762580 0.793360 0.438420 0.974137
Zn6   Zn    Zn3+2 0.762580 0.206640 0.438420 0.974136
Zn7   Zn    Zn3+2 0.262580 0.293360 0.438420 0.974137
Zn8   Zn    Zn3+2 0.262580 0.706640 0.438420 0.974136
Zn9   Zn    Zn3+2 0.737390 0.793360 0.561570 0.982537
Zn10  Zn    Zn3+2 0.737390 0.206640 0.561570 0.982527
Zn11  Zn    Zn3+2 0.237390 0.293360 0.561570 0.982537
Zn12  Zn    Zn3+2 0.237390 0.706640 0.561570 0.982527
Zn13  Zn    Zn3+2 0.675820 0.706600 0.438430 1.009686
Zn14  Zn    Zn3+2 0.675820 0.293400 0.438430 1.009690
Zn15  Zn    Zn3+2 0.175820 0.206600 0.438430 1.009686
Zn16  Zn    Zn3+2 0.175820 0.793400 0.438430 1.009690
Cl1   Cl    Cl    0.463030 0.697419 0.313749 -0.566666
Cl2   Cl    Cl    0.463035 0.302605 0.313760 -0.566651
Cl3   Cl    Cl    0.963030 0.197419 0.313749 -0.566666
Cl4   Cl    Cl    0.963035 0.802605 0.313760 -0.566651
Cl5   Cl    Cl    0.993246 0.860123 0.942187 -0.574816
Cl6   Cl    Cl    0.993393 0.139907 0.942187 -0.574829
Cl7   Cl    Cl    0.493246 0.360123 0.942187 -0.574816
Cl8   Cl    Cl    0.493393 0.639907 0.942187 -0.574829

loop_
_geom_bond_atom_site_label_1
_geom_bond_atom_site_label_2
_ccdc_geom_bond_type
C99   C103  A    
C133  H1    S    
C36   C42   S    
C136  H4    S    
O4    Zn12  S    
C114  O34   A    
C135  H3    S    
C108  H28   S    
O39   Zn7   S    
C71   H7    S    
O43   Zn15  S    
C5    C6    S    
C92   O32   A    
C3    O15   A    
C100  C104  A    
C1    O21   A    
C64   C84   A    
C79   C90   S    
C13   C51   S    
C14   C52   S    
C5    C126  S    
C70   C74   A    
C7    C128  S    
C124  O44   A    
O13   Zn5   S    
C34   H58   S    
C117  O37   A    
O10   Zn14  S    
C98   C109  S    
C130  C134  A    
O1    Zn13  S    
O2    Zn10  S    
C14   H46   S    
O3    Zn7   S    
O3    Zn3   S    
O4    Zn16  S    
C25   C29   S    
C27   C31   S    
C28   C32   S    
C4    C23   S    
C6    H38   S    
C98   C102  A    
O31   Zn7   S    
C12   C40   S    
O9    Zn13  S    
O47   Zn11  S    
C78   C82   A    
C68   C72   A    
C16   H48   S    
C45   O25   A    
C68   C116  S    
C129  C133  A    
C44   Cl8   S    
C2    O14   A    
O41   Zn13  S    
C111  H31   S    
C41   Cl5   S    
O33   Zn9   S    
C44   C50   S    
C72   H8    S    
C65   C113  S    
C84   C88   S    
C6    C125  S    
C22   C58   T    
C118  O46   A    
C10   C38   S    
C86   H18   S    
C40   C52   S    
C11   C13   S    
C66   C70   A    
C15   C49   S    
C9    C15   S    
C127  C131  A    
O21   Zn13  S    
C42   Cl6   S    
C61   C65   A    
C93   Cl1   S    
O12   Zn16  S    
C100  C111  S    
O25   Zn1   S    
C73   H9    S    
C73   C77   A    
C103  C107  A    
C75   C79   A    
C41   C51   S    
C37   C57   S    
C42   C52   S    
O48   Zn12  S    
C39   C51   S    
C4    O16   A    
C111  C112  S    
C20   C56   T    
O45   Zn9   S    
C123  O43   A    
C97   C98   A    
C7    C8    S    
O2    Zn2   S    
C27   C33   S    
C121  O41   A    
C30   C54   S    
C31   C43   S    
C95   H23   S    
C64   C68   A    
C17   C45   S    
C86   H14   S    
O22   Zn14  S    
C19   C47   S    
C11   C25   S    
C124  C132  S    
O15   Zn7   S    
C119  O47   A    
C85   C93   S    
C87   C95   S    
C107  C108  A    
C1    C22   S    
O28   Zn4   S    
C3    C24   S    
C109  H33   S    
C46   O26   A    
C89   O5    A    
O17   Zn9   S    
C62   C66   A    
C27   H63   S    
C64   C96   S    
C12   C26   S    
C11   C39   S    
C36   H60   S    
C125  C129  A    
C122  O50   A    
C132  C136  A    
O11   Zn15  S    
O2    Zn14  S    
C76   H12   S    
C107  H27   S    
C26   C30   S    
C13   H45   S    
C74   C78   A    
C105  H25   S    
C51   H55   S    
C48   O28   A    
C3    O23   A    
C29   C41   S    
C5    H37   S    
C76   C80   A    
O24   Zn16  S    
C91   O7    A    
C8    H40   S    
C15   C31   S    
C16   C32   S    
C21   C57   T    
C115  O11   A    
C113  O9    A    
C124  O52   A    
C61   C81   A    
C119  O39   A    
C10   H50   S    
C111  H35   S    
O42   Zn14  S    
C35   C41   S    
O1    Zn5   S    
C28   C34   S    
O34   Zn10  S    
C47   O27   A    
C90   O30   A    
C120  O48   A    
C81   C85   S    
O29   Zn5   S    
O50   Zn2   S    
C83   C87   S    
C88   C96   S    
C91   O31   A    
C46   O18   A    
C10   C28   S    
C80   C84   A    
C115  O35   A    
O5    Zn1   S    
C135  C136  A    
C113  O33   A    
C40   C60   S    
C88   H20   S    
C13   C29   S    
C16   C50   S    
C61   C93   S    
C8    H44   S    
C43   Cl7   S    
C126  C130  A    
C69   H5    S    
C94   Cl2   S    
C63   C95   S    
C2    O22   A    
C80   C89   S    
C90   O6    A    
C15   H47   S    
O35   Zn11  S    
C69   C73   A    
O46   Zn10  S    
C35   H59   S    
C118  O38   A    
C62   C82   A    
C33   H57   S    
C94   H22   S    
C6    H42   S    
C18   C46   S    
C1    O13   A    
O19   Zn11  S    
C75   H11   S    
C82   C86   S    
C33   C37   S    
C63   C83   A    
C23   C59   T    
C37   C49   S    
O51   Zn3   S    
C77   C81   A    
C39   C59   S    
C116  O36   A    
C2    C21   S    
O40   Zn8   S    
C20   C48   S    
C109  H29   S    
C25   C35   S    
C110  H34   S    
C26   C36   S    
O36   Zn12  S    
C62   C94   S    
O37   Zn5   S    
C125  C126  A    
C127  C128  A    
C17   C53   T    
C104  C108  A    
C9    C27   S    
C48   O20   A    
C19   C55   T    
C66   C114  S    
C123  C131  S    
C74   H10   S    
C121  C129  S    
C95   Cl3   S    
C117  O45   A    
C105  C106  A    
C9    H49   S    
C101  C117  S    
C116  O12   A    
O3    Zn15  S    
C109  C110  S    
C79   C83   A    
O4    Zn8   S    
C112  H36   S    
C65   C69   A    
C67   C71   A    
C106  H26   S    
C50   H54   S    
O32   Zn8   S    
C30   C42   S    
C31   C55   S    
C32   C56   S    
C104  C120  S    
C12   H52   S    
C77   C92   S    
C45   O17   A    
C35   C39   S    
C72   C76   A    
C122  O42   A    
C28   H64   S    
C11   H51   S    
O1    Zn9   S    
C131  C135  A    
O2    Zn6   S    
O3    Zn11  S    
C49   H53   S    
C38   C58   S    
C112  H32   S    
O49   Zn1   S    
C52   H56   S    
C67   C115  S    
O7    Zn3   S    
C86   C94   S    
C120  O40   A    
O30   Zn6   S    
C7    H39   S    
C102  C106  A    
O23   Zn15  S    
C102  C118  S    
O52   Zn4   S    
C87   H15   S    
C88   H16   S    
O20   Zn12  S    
C14   C30   S    
C26   H62   S    
C128  C132  A    
C101  C105  A    
C63   C67   A    
C70   H6    S    
C33   C43   S    
C36   C40   S    
C34   C44   S    
C10   C16   S    
C43   C49   S    
O27   Zn3   S    
C4    O24   A    
C47   O19   A    
O44   Zn16  S    
C123  O51   A    
C92   O8    A    
C8    C127  S    
C121  O49   A    
C99   C100  A    
C24   C60   T    
C9    C37   S    
C32   C44   S    
C7    H43   S    
C85   H17   S    
C93   H21   S    
C5    H41   S    
C96   H24   S    
C12   C14   S    
O18   Zn10  S    
C87   H19   S    
O16   Zn8   S    
O6    Zn2   S    
C34   C38   S    
C103  C119  S    
C134  H2    S    
C38   C50   S    
C78   C91   S    
C96   Cl4   S    
C114  O10   A    
C71   C75   A    
C97   C110  S    
C110  H30   S    
C133  C134  A    
C29   C53   S    
C99   C112  S    
O38   Zn6   S    
C85   H13   S    
C25   H61   S    
C18   C54   T    
O26   Zn2   S    
O1    Zn1   S    
O4    Zn4   S    
O14   Zn6   S    
O8    Zn4   S    
C89   O29   A    
C122  C130  S    
C97   C101  A    
