data_mof_unit_37944.cif
_audit_creation_date              2012-12-10T18:58:11-0500
_audit_creation_method            fapswitch 2.2
_symmetry_space_group_name_H-M    P1
_symmetry_Int_Tables_number       1
_space_group_crystal_system       triclinic
_cell_length_a                    11.055927
_cell_length_b                    10.797097
_cell_length_c                    9.553309
_cell_angle_alpha                 89.709286
_cell_angle_beta                  102.670026
_cell_angle_gamma                 90.147717
_cell_volume                      1112.61190356

loop_
_atom_site_label
_atom_site_type_symbol
_atom_type_description
_atom_site_fract_x
_atom_site_fract_y
_atom_site_fract_z
_atom_type_partial_charge
C1    C     C_R   0.500868 0.262487 0.500646 0.827007
C2    C     C_R   0.511116 0.129567 0.505702 -0.154217
C3    C     C_R   0.581292 0.067574 0.421987 -0.150857
C4    C     C_R   0.589942 0.938232 0.426792 0.409479
C5    C     C_R   0.518836 0.870851 0.508475 -0.193691
C6    C     C_R   0.464924 0.935285 0.605371 -0.119693
C7    C     C_3   0.338656 0.925042 0.636925 1.076365
C8    C     C_3   0.335626 0.066250 0.637017 0.140718
C9    C     C_R   0.596002 0.551926 0.097384 0.217444
C10   C     C_R   0.411846 0.437818 0.052408 -0.041871
C11   C     C_R   0.411848 0.437794 0.903567 -0.024202
C12   C     C_R   0.262836 0.500258 0.441820 0.895272
C13   C     C_R   0.596037 0.551781 0.950139 0.247443
C14   C     C_3   0.637973 0.683030 0.952967 -0.468597
C15   C     C_3   0.637100 0.683691 0.111443 -0.438217
C16   C     C_R   0.505189 0.737513 0.501440 0.850283
C17   C     C_R   0.737161 0.500379 0.558172 0.834318
C18   C     C_2   0.127906 0.501078 0.409024 -0.315029
C19   C     C_2   0.067295 0.501886 0.515560 -0.100008
C20   C     C_2   0.872077 0.501054 0.590927 -0.325657
C21   C     C_2   0.932668 0.502397 0.484358 -0.143274
C22   C     C_R   0.462785 0.062712 0.605663 -0.120894
Cu1   Cu    Cu3+1 0.499990 0.499980 0.640670 0.994362
Cu2   Cu    Cu3+1 0.500010 0.500020 0.359330 0.965325
H1    H     H_    0.882841 0.503395 0.372694 0.176733
H2    H     H_    0.339266 0.389252 0.089934 0.147027
H3    H     H_    0.339220 0.389239 0.829806 0.166315
H4    H     H_    0.732487 0.691716 0.931571 0.195207
H5    H     H_    0.567414 0.745816 0.888542 0.258222
H6    H     H_    0.731227 0.693618 0.181278 0.207192
H7    H     H_    0.564957 0.745967 0.136577 0.263582
H8    H     H_    0.117110 0.501785 0.627221 0.185193
H9    H     H_    0.922136 0.500194 0.702418 0.155522
H10   H     H_    0.077852 0.501079 0.297529 0.146336
H11   H     H_    0.630284 0.119351 0.354146 0.174643
H12   H     H_    0.264636 0.107911 0.548764 0.132964
N1    N     N_R   0.500780 0.500930 0.148120 -0.187827
N2    N     N_R   0.500790 0.500890 0.852210 -0.185839
O1    O     O_R   0.500000 0.319640 0.618810 -0.559543
O2    O     O_R   0.500010 0.319680 0.381230 -0.592851
O3    O     O_R   0.320680 0.500000 0.575130 -0.573231
O4    O     O_R   0.320690 0.500040 0.337550 -0.583163
O5    O     O_R   0.499990 0.680320 0.618770 -0.557686
O6    O     O_R   0.500000 0.680360 0.381190 -0.574350
O7    O     O_R   0.679310 0.499960 0.662450 -0.587038
O8    O     O_R   0.679320 0.500000 0.424870 -0.592119
O9    O     O_3   0.333972 0.117717 0.771827 -0.695780
H13   H     H_    0.408897 0.089724 0.842512 0.358780
O10   O     O_3   0.668727 0.882890 0.352578 -0.730694
H14   H     H_    0.693354 0.801045 0.396778 0.317099
F1    F     F_    0.252137 0.872996 0.525670 -0.677666
F2    F     F_    0.340470 0.870260 0.768763 -0.648835

loop_
_geom_bond_atom_site_label_1
_geom_bond_atom_site_label_2
_ccdc_geom_bond_type
C2    C22   A    
C11   N2    A    
C8    C22   S    
Cu1   Cu2   S    
C15   H7    S    
C12   O3    A    
Cu1   O7    S    
C11   H3    S    
Cu1   N2    S    
Cu2   O4    S    
C16   O6    A    
O9    H13   S    
Cu1   O3    S    
C3    H11   S    
C4    O10   S    
Cu2   O8    S    
C10   H2    S    
C14   H4    S    
C9    N1    A    
C2    C3    A    
C9    C15   S    
C8    O9    S    
C7    F1    S    
C7    C8    S    
C13   C14   S    
C20   C21   D    
C18   H10   S    
C16   O5    A    
C13   N2    A    
C6    C7    S    
C10   N1    A    
Cu1   O1    S    
C20   H9    S    
C19   C21   S    
C17   O7    A    
C7    F2    S    
Cu2   N1    S    
C5    C6    A    
Cu2   O6    S    
C10   C11   A    
C1    O1    A    
C14   H5    S    
C12   O4    A    
C3    C4    A    
C6    C22   A    
C17   C20   S    
Cu1   O5    S    
C17   O8    A    
C15   H6    S    
C1    C2    S    
C8    H12   S    
C12   C18   S    
O10   H14   S    
C21   H1    S    
C14   C15   S    
C18   C19   D    
C5    C16   S    
C9    C13   A    
C1    O2    A    
Cu2   O2    S    
C19   H8    S    
C4    C5    A    
