data_mof_unit_39077.cif
_audit_creation_date              2013-03-05T16:08:50-0500
_audit_creation_method            fapswitch 2.2
_symmetry_space_group_name_H-M    P1
_symmetry_Int_Tables_number       1
_space_group_crystal_system       triclinic
_cell_length_a                    27.81451
_cell_length_b                    11.556376
_cell_length_c                    10.753764
_cell_angle_alpha                 89.975116
_cell_angle_beta                  89.80973
_cell_angle_gamma                 89.916565
_cell_volume                      3456.61239754

loop_
_atom_site_label
_atom_site_type_symbol
_atom_site_description
_atom_site_fract_x
_atom_site_fract_y
_atom_site_fract_z
_atom_type_partial_charge
O1    O     O_R   0.500000 0.334450 0.602530 -0.623727
O2    O     O_R   0.500000 0.665550 0.397470 -0.620687
O3    O     O_R   0.500000 0.665550 0.602530 -0.604098
O4    O     O_R   0.500000 0.334450 0.397470 -0.604494
C1    C     C_R   0.499944 0.281135 0.500023 0.887706
C2    C     C_R   0.500107 0.718865 0.499972 0.900022
O5    O     O_R   0.428750 0.500000 0.602520 -0.592204
O6    O     O_R   0.571250 0.500000 0.397480 -0.576097
O7    O     O_R   0.571250 0.500000 0.602520 -0.576492
O8    O     O_R   0.428750 0.500000 0.397480 -0.592155
C3    C     C_R   0.405564 0.500784 0.500255 1.029399
C4    C     C_R   0.594278 0.498348 0.499785 0.978505
Zn1   Zn    Zn3+2 0.500000 0.500000 0.636920 1.011254
Zn2   Zn    Zn3+2 0.500000 0.500000 0.363080 1.010760
C5    C     C_R   0.177772 0.398889 0.512630 0.587617
C6    C     C_R   0.820987 0.589004 0.534264 0.659860
C7    C     C_R   0.176195 0.605462 0.507666 0.589055
C8    C     C_R   0.823061 0.389223 0.478245 0.572269
O9    O     O_2   0.204151 0.300843 0.516340 -0.481594
O10   O     O_2   0.794354 0.683985 0.559047 -0.497685
O11   O     O_2   0.201006 0.705532 0.500677 -0.481241
O12   O     O_2   0.798591 0.293906 0.443523 -0.550662
N1    N     N_R   0.200657 0.503102 0.508224 -0.323136
N2    N     N_R   0.798408 0.488280 0.504361 -0.299230
C9    C     C_R   0.277529 0.542304 0.610513 0.442228
C10   C     C_R   0.721764 0.439390 0.602056 0.419062
C11   C     C_R   0.276456 0.467660 0.397274 0.441856
C12   C     C_R   0.723193 0.530959 0.397551 0.400058
C13   C     C_R   0.327835 0.542550 0.608229 0.348609
C14   C     C_R   0.671353 0.436469 0.598826 0.357015
C15   C     C_R   0.326770 0.466035 0.395642 0.350340
C16   C     C_R   0.673045 0.539340 0.399319 0.330210
C17   C     C_R   0.251993 0.504903 0.505076 -0.070649
C18   C     C_R   0.747163 0.486090 0.501162 -0.033108
C19   C     C_R   0.101093 0.499161 0.514978 -0.200850
C20   C     C_R   0.897846 0.491016 0.514718 -0.195603
C21   C     C_R   0.127357 0.394082 0.514138 -0.146184
C22   C     C_R   0.871419 0.593448 0.538749 -0.148838
C23   C     C_R   0.125752 0.606244 0.513267 -0.148300
C24   C     C_R   0.873382 0.387034 0.486391 -0.123822
C25   C     C_R   0.102641 0.287680 0.515429 0.557113
C26   C     C_R   0.896021 0.696359 0.568154 0.570259
C27   C     C_R   0.099441 0.710546 0.516434 0.557161
C28   C     C_R   0.899768 0.284469 0.466412 0.558623
C29   C     C_R   0.352651 0.503158 0.501259 -0.444795
C30   C     C_R   0.646857 0.490643 0.499084 -0.426037
C31   C     C_R   0.974950 0.388783 0.501247 0.019701
C32   C     C_R   0.023988 0.602166 0.524314 0.021098
C33   C     C_R   0.973199 0.598989 0.534936 0.020868
C34   C     C_R   0.025656 0.389978 0.511650 0.022881
C35   C     C_R   0.948764 0.492821 0.517681 0.078098
C36   C     C_R   0.050150 0.497120 0.517158 0.082300
C37   C     C_R   0.949720 0.286887 0.471521 -0.326469
C38   C     C_R   0.049415 0.707425 0.518714 -0.325332
C39   C     C_R   0.946046 0.698732 0.563200 -0.315597
C40   C     C_R   0.052615 0.286878 0.517594 -0.328105
H1    H     H_    0.967884 0.207639 0.446745 0.162059
H2    H     H_    0.031454 0.789867 0.511837 0.160765
H3    H     H_    0.962640 0.780292 0.585501 0.152207
H4    H     H_    0.035793 0.203352 0.527607 0.156594
C41   C     C_1   0.500200 0.161058 0.500077 -0.175760
C42   C     C_1   0.500312 0.838946 0.499928 -0.172360
C43   C     C_1   0.500374 0.059146 0.500055 0.008718
C44   C     C_1   0.500417 0.940860 0.499971 0.008575
N3    N     N_1   0.500000 0.500000 0.180630 -0.073431
N4    N     N_1   0.500000 0.500000 0.819370 -0.072916
C45   C     C_1   0.499979 0.499999 0.069694 0.043201
C46   C     C_1   0.499981 0.499995 0.930307 0.042861
O13   O     O_3   0.350681 0.418100 0.294789 -0.540061
C47   C     C_3   0.353803 0.500898 0.198405 -0.184510
H5    H     H_    0.363290 0.588939 0.232832 0.137109
H6    H     H_    0.319909 0.504199 0.144609 0.161881
H7    H     H_    0.382684 0.473790 0.133191 0.164359
O14   O     O_3   0.649800 0.593293 0.301579 -0.563067
C48   C     C_3   0.645941 0.712331 0.328772 -0.171733
H8    H     H_    0.681988 0.753289 0.336858 0.190038
H9    H     H_    0.624583 0.727503 0.415006 0.120265
H10   H     H_    0.626797 0.755471 0.251169 0.177761
O15   O     O_3   0.352871 0.591097 0.706442 -0.542323
C49   C     C_3   0.355560 0.510986 0.805527 -0.177804
H11   H     H_    0.387144 0.533224 0.863488 0.164228
H12   H     H_    0.360525 0.419813 0.773853 0.132773
H13   H     H_    0.323372 0.518039 0.866083 0.164623
O16   O     O_3   0.646619 0.388341 0.698050 -0.543681
C50   C     C_3   0.629967 0.277440 0.663374 -0.254770
H14   H     H_    0.601044 0.282763 0.592815 0.149340
H15   H     H_    0.614641 0.234533 0.746799 0.190381
H16   H     H_    0.659381 0.221332 0.627317 0.123878
O17   O     O_3   0.251869 0.422564 0.296376 -0.544676
C51   C     C_3   0.226991 0.511521 0.233061 -0.286946
H17   H     H_    0.244440 0.598143 0.240509 0.150661
H18   H     H_    0.189240 0.516419 0.266133 0.172920
H19   H     H_    0.225780 0.489117 0.132824 0.172311
O18   O     O_3   0.749295 0.578555 0.300651 -0.573544
C52   C     C_3   0.751792 0.496949 0.203459 -0.206683
H20   H     H_    0.715526 0.477205 0.165674 0.194772
H21   H     H_    0.769905 0.415932 0.234046 0.172662
H22   H     H_    0.773533 0.534177 0.126641 0.190456
O19   O     O_3   0.253924 0.587920 0.713182 -0.545176
C53   C     C_3   0.230850 0.498764 0.780772 -0.288115
H23   H     H_    0.230375 0.523229 0.880500 0.171754
H24   H     H_    0.249330 0.413218 0.773852 0.151218
H25   H     H_    0.192853 0.490637 0.751247 0.171727
O20   O     O_3   0.746707 0.410636 0.709085 -0.572862
C54   C     C_3   0.749041 0.289358 0.723557 -0.229956
H26   H     H_    0.746755 0.240139 0.634703 0.167168
H27   H     H_    0.720402 0.260302 0.788419 0.193878
H28   H     H_    0.784059 0.267170 0.766574 0.166614
O21   O     O_3   0.127103 0.183485 0.522445 -0.583905
C55   C     C_3   0.125258 0.128700 0.405307 -0.193195
H29   H     H_    0.138712 0.186358 0.329788 0.164486
H30   H     H_    0.088260 0.098354 0.384108 0.136164
H31   H     H_    0.148977 0.051503 0.407521 0.230042
O22   O     O_3   0.871469 0.798206 0.592071 -0.578284
C56   C     C_3   0.872284 0.819362 0.721217 -0.282849
H32   H     H_    0.909324 0.838427 0.753949 0.138132
H33   H     H_    0.856748 0.745589 0.774512 0.181321
H34   H     H_    0.849849 0.896691 0.740934 0.189509
O23   O     O_3   0.122216 0.816773 0.509466 -0.582649
C57   C     C_3   0.121613 0.868154 0.628471 -0.205218
H35   H     H_    0.143766 0.947820 0.625470 0.230272
H36   H     H_    0.137600 0.809959 0.699945 0.166678
H37   H     H_    0.084537 0.893902 0.656008 0.129752
O24   O     O_3   0.877269 0.182151 0.434057 -0.563200
C58   C     C_3   0.875316 0.109857 0.539703 -0.202609
H38   H     H_    0.854184 0.031657 0.515998 0.239681
H39   H     H_    0.856816 0.153236 0.619077 0.135445
H40   H     H_    0.911852 0.080712 0.567687 0.136309

loop_
_geom_bond_atom_site_label_1
_geom_bond_atom_site_label_2
_geom_bond_distance
_ccdc_geom_bond_type
N4    C46   1.192985 T    
C39   H3    1.077549 S    
C56   H33   1.114019 S    
C52   H20   1.112714 S    
O3    C2    1.263079 A    
O22   C56   1.410532 S    
C52   H22   1.109203 S    
C50   H14   1.109300 S    
C11   C17   1.409427 A    
C32   C38   1.409134 A    
C54   H27   1.109366 S    
C7    N1    1.363792 A    
C21   C25   1.409653 A    
O1    C1    1.263082 A    
C19   C21   1.416228 A    
C22   C26   1.409529 A    
C32   C36   1.416423 A    
O13   C47   1.412873 S    
C16   O14   1.383576 S    
N3    C45   1.192987 T    
C56   H32   1.112199 S    
C12   O18   1.382449 S    
C7    C23   1.404151 A    
C41   C43   1.177734 T    
O7    Zn1   2.014807 S    
C55   H29   1.114348 S    
C5    C21   1.403511 A    
C20   C24   1.415563 A    
C42   C44   1.177768 T    
C10   O20   1.385919 S    
C5    O9    1.349616 S    
C28   C37   1.390964 A    
C26   O22   1.383674 S    
C33   C35   1.416017 A    
N2    C18   1.426123 S    
C58   H40   1.112517 S    
C34   C36   1.415451 A    
C6    C22   1.404731 A    
C47   H5    1.115180 S    
O3    Zn1   1.948417 S    
C57   H37   1.112163 S    
O6    C4    1.274992 A    
C31   C37   1.409081 A    
C5    N1    1.363728 A    
C12   C18   1.399383 A    
C6    N2    1.362553 A    
C25   O21   1.384335 S    
O4    Zn2   1.948418 S    
O2    C2    1.263041 A    
C49   H13   1.108241 S    
O20   C54   1.411505 S    
O7    C4    1.275332 A    
C57   H36   1.114326 S    
O5    C3    1.276752 A    
C31   C34   1.415245 A    
Zn1   N4    1.962023 S    
C50   H15   1.109111 S    
C9    C13   1.399367 A    
C54   H28   1.109317 S    
O14   C48   1.410382 S    
C11   C15   1.399607 A    
C45   C46   1.498934 S    
C12   C16   1.398127 A    
O16   C50   1.414004 S    
C4    C30   1.465032 S    
O8    Zn2   2.014807 S    
C37   H1    1.078401 S    
O4    C1    1.263031 A    
C31   C35   1.415641 A    
N1    C17   1.428365 S    
C33   C39   1.409852 A    
C28   O24   1.383756 S    
C53   H25   1.108664 S    
C34   C40   1.408393 A    
O15   C49   1.413346 S    
C13   C29   1.414642 A    
C19   C23   1.415803 A    
C48   H8    1.113035 S    
C25   C40   1.391633 A    
C26   C39   1.392565 A    
C27   C38   1.392122 A    
C51   H18   1.108870 S    
O19   C53   1.414203 S    
C13   O15   1.386249 S    
O5    Zn1   2.017222 S    
C6    O10   1.349505 S    
C56   H34   1.109330 S    
C47   H7    1.109472 S    
C53   H24   1.115981 S    
C1    C41   1.387663 S    
C48   H9    1.113460 S    
C55   H31   1.109088 S    
C20   C35   1.416927 A    
C49   H12   1.115709 S    
C32   C33   1.417431 A    
C10   C14   1.403133 A    
C58   H38   1.109007 S    
C8    N2    1.362430 A    
C3    C29   1.471963 S    
O1    Zn1   1.948733 S    
C57   H35   1.108958 S    
C51   H19   1.109323 S    
C38   H2    1.077737 S    
C50   H16   1.112060 S    
O6    Zn2   2.017222 S    
C10   C18   1.401102 A    
C8    O12   1.349161 S    
C16   C30   1.412002 A    
C14   C30   1.417640 A    
C49   H11   1.109389 S    
C23   C27   1.409576 A    
O23   C57   1.411068 S    
C52   H21   1.112682 S    
C54   H26   1.114254 S    
C2    C42   1.387713 S    
C9    O19   1.386589 S    
C15   O13   1.385676 S    
O21   C55   1.411198 S    
C51   H17   1.116140 S    
C20   C22   1.415910 A    
C53   H23   1.109243 S    
Zn2   N3    1.962024 S    
C11   O17   1.386736 S    
C14   O16   1.384537 S    
O18   C52   1.409535 S    
O2    Zn2   1.948732 S    
C48   H10   1.109197 S    
C55   H30   1.112034 S    
O8    C3    1.277794 A    
C43   C44   1.366958 S    
C40   H4    1.078477 S    
C24   C28   1.409374 A    
C8    C24   1.402893 A    
C15   C29   1.413863 A    
C9    C17   1.408397 A    
C19   C36   1.417320 A    
C58   H39   1.114164 S    
C47   H6    1.108345 S    
O17   C51   1.414103 S    
C27   O23   1.384107 S    
O24   C58   1.410858 S    
C7    O11   1.349512 S    
