data_mof_unit_68099.cif
_audit_creation_date              2013-03-05T15:58:24-0500
_audit_creation_method            fapswitch 2.2
_symmetry_space_group_name_H-M    P1
_symmetry_Int_Tables_number       1
_space_group_crystal_system       triclinic
_cell_length_a                    7.260403
_cell_length_b                    14.156517
_cell_length_c                    16.510764
_cell_angle_alpha                 90.000359
_cell_angle_beta                  90.000018
_cell_angle_gamma                 89.999145
_cell_volume                      1697.00965061

loop_
_atom_site_label
_atom_site_type_symbol
_atom_site_description
_atom_site_fract_x
_atom_site_fract_y
_atom_site_fract_z
_atom_type_partial_charge
O1    O     O_R   0.388780 0.834790 0.412340 -0.588330
O2    O     O_R   0.111220 0.165210 0.912340 -0.588330
O3    O     O_R   0.888780 0.665210 0.587660 -0.588329
O4    O     O_R   0.611220 0.334790 0.087660 -0.588329
O5    O     O_R   0.059040 0.845930 0.587040 -0.591237
O6    O     O_R   0.440960 0.154070 0.087040 -0.591247
O7    O     O_R   0.559040 0.654070 0.412960 -0.591238
O8    O     O_R   0.940960 0.345930 0.912960 -0.591246
C1    C     C_R   0.228035 0.869334 0.614272 0.837584
C2    C     C_R   0.271964 0.130668 0.114274 0.837588
C3    C     C_R   0.728036 0.630666 0.385728 0.837585
C4    C     C_R   0.771963 0.369334 0.885727 0.837589
O9    O     O_R   0.059070 0.845930 0.412970 -0.593215
O10   O     O_R   0.440930 0.154070 0.912970 -0.593206
O11   O     O_R   0.559070 0.654070 0.587030 -0.593217
O12   O     O_R   0.940930 0.345930 0.087030 -0.593208
O13   O     O_R   0.888760 0.665210 0.412340 -0.589305
O14   O     O_R   0.611240 0.334790 0.912340 -0.589304
O15   O     O_R   0.388760 0.834790 0.587660 -0.589306
O16   O     O_R   0.111240 0.165210 0.087660 -0.589304
C5    C     C_R   0.225649 0.866588 0.383698 0.838423
C6    C     C_R   0.274352 0.133412 0.883697 0.838460
C7    C     C_R   0.725650 0.633413 0.616303 0.838425
C8    C     C_R   0.774351 0.366586 0.116304 0.838461
O17   O     O_3   0.222280 0.690700 0.500000 -0.290834
O18   O     O_3   0.277720 0.309300 0.000000 -0.290854
O19   O     O_3   0.722280 0.809300 0.500000 -0.290832
O20   O     O_3   0.777720 0.190700 0.000000 -0.290848
V1    V     V_3+5 0.947430 0.761000 0.500000 1.114464
V2    V     V_3+5 0.552570 0.239000 0.000000 1.114459
V3    V     V_3+5 0.447430 0.739000 0.500000 1.114461
V4    V     V_3+5 0.052570 0.261000 0.000000 1.114456
C9    C     C_3   0.848252 0.607568 0.758341 -0.469883
C10   C     C_3   0.651822 0.392410 0.258363 -0.469842
C11   C     C_3   0.348257 0.892435 0.241660 -0.469876
C12   C     C_3   0.151819 0.107588 0.741640 -0.469824
H1    H     H_    0.783693 0.673840 0.780780 0.151533
H2    H     H_    0.716423 0.326141 0.280784 0.151543
H3    H     H_    0.283707 0.826161 0.219222 0.151535
H4    H     H_    0.216409 0.173860 0.719223 0.151541
C13   C     C_3   0.877239 0.533916 0.827941 0.063869
C14   C     C_3   0.622868 0.466051 0.327978 0.063868
C15   C     C_3   0.377240 0.966085 0.172059 0.063861
C16   C     C_3   0.122874 0.033952 0.672020 0.063852
H5    H     H_    0.970869 0.489934 0.652581 0.190578
H6    H     H_    0.529066 0.510008 0.152590 0.190573
H7    H     H_    0.470858 0.010067 0.347428 0.190578
H8    H     H_    0.029083 0.989988 0.847425 0.190577
C17   C     C_3   0.827416 0.470934 0.666009 -0.407122
C18   C     C_3   0.672501 0.529041 0.166023 -0.407218
C19   C     C_3   0.327409 0.029068 0.333994 -0.407096
C20   C     C_3   0.172512 0.970955 0.833979 -0.407195
C21   C     C_3   0.533826 0.543879 0.730390 0.059850
C22   C     C_3   0.966185 0.456159 0.230368 0.059831
C23   C     C_3   0.033826 0.956125 0.269612 0.059838
C24   C     C_3   0.466187 0.043836 0.769633 0.059813
C25   C     C_3   0.728883 0.564571 0.689397 0.067612
C26   C     C_3   0.771118 0.435427 0.189400 0.067606
C27   C     C_3   0.228882 0.935431 0.310604 0.067604
C28   C     C_3   0.271121 0.064570 0.810601 0.067594
H9    H     H_    0.493405 0.610583 0.761283 0.072618
H10   H     H_    0.006652 0.389468 0.261265 0.072622
H11   H     H_    0.993408 0.889422 0.238718 0.072620
H12   H     H_    0.506649 0.110525 0.738734 0.072629
C29   C     C_3   0.758315 0.441725 0.815360 0.066624
C30   C     C_3   0.741680 0.558273 0.315363 0.066620
C31   C     C_3   0.258318 0.058278 0.184642 0.066621
C32   C     C_3   0.241679 0.941726 0.684637 0.066611
C33   C     C_3   0.828517 0.396765 0.735510 -0.426823
C34   C     C_3   0.671337 0.603205 0.235528 -0.426813
C35   C     C_3   0.328523 0.103235 0.264491 -0.426822
C36   C     C_3   0.171320 0.896797 0.764471 -0.426794
C37   C     C_3   0.553548 0.468211 0.798329 -0.372518
C38   C     C_3   0.946457 0.531845 0.298291 -0.372495
C39   C     C_3   0.053549 0.031795 0.201674 -0.372509
C40   C     C_3   0.446457 0.968147 0.701713 -0.372476
H13   H     H_    0.985622 0.629224 0.734774 0.151224
H14   H     H_    0.514441 0.370744 0.234816 0.151209
H15   H     H_    0.485628 0.870781 0.265228 0.151224
H16   H     H_    0.014435 0.129248 0.765188 0.151210
H17   H     H_    0.478972 0.402549 0.780736 0.160494
H18   H     H_    0.020928 0.597524 0.280661 0.160468
H19   H     H_    0.978978 0.097459 0.219270 0.160492
H20   H     H_    0.520917 0.902465 0.719349 0.160465
H21   H     H_    0.773680 0.439478 0.610283 0.159118
H22   H     H_    0.726222 0.560514 0.110305 0.159224
H23   H     H_    0.273660 0.060526 0.389717 0.159097
H24   H     H_    0.226259 0.939475 0.889691 0.159199
H25   H     H_    0.740863 0.335436 0.718292 0.152131
H26   H     H_    0.758869 0.664576 0.218298 0.152139
H27   H     H_    0.240878 0.164570 0.281707 0.152121
H28   H     H_    0.258825 0.835413 0.781696 0.152119
C41   C     C_3   0.869069 0.580338 0.911532 -0.465008
C42   C     C_3   0.680004 0.615474 0.940082 -0.215845
C43   C     C_3   0.700339 0.699879 0.996444 -1.026889
H29   H     H_    0.811123 0.689228 0.041776 0.273085
H30   H     H_    0.735678 0.761560 0.959181 0.285000
H31   H     H_    0.569237 0.714409 0.028056 0.267668
H32   H     H_    0.592876 0.638673 0.888914 0.201156
H33   H     H_    0.608774 0.557259 0.972278 0.190504
H34   H     H_    0.918227 0.526947 0.954213 0.173953
H35   H     H_    0.970099 0.639376 0.911649 0.210825
C44   C     C_3   0.631235 0.419632 0.411569 -0.464883
C45   C     C_3   0.820375 0.384523 0.440039 -0.215916
C46   C     C_3   0.800240 0.300052 0.496333 -1.027109
H36   H     H_    0.689666 0.310653 0.541766 0.273133
H37   H     H_    0.764751 0.238420 0.459039 0.285005
H38   H     H_    0.931465 0.285477 0.527815 0.267766
H39   H     H_    0.907458 0.361401 0.388835 0.201175
H40   H     H_    0.891580 0.442727 0.472257 0.190599
H41   H     H_    0.582160 0.473012 0.454274 0.173780
H42   H     H_    0.530225 0.360589 0.411730 0.210856
C47   C     C_3   0.369060 0.919665 0.088467 -0.464955
C48   C     C_3   0.179994 0.884525 0.059927 -0.215902
C49   C     C_3   0.200321 0.800102 0.003588 -1.026934
H43   H     H_    0.311021 0.810755 0.958220 0.273102
H44   H     H_    0.235773 0.738447 0.040860 0.285008
H45   H     H_    0.069183 0.785533 0.972024 0.267699
H46   H     H_    0.092870 0.861342 0.111101 0.201174
H47   H     H_    0.108761 0.942731 0.027720 0.190521
H48   H     H_    0.418196 0.973057 0.045784 0.173928
H49   H     H_    0.470102 0.860631 0.088344 0.210826
C50   C     C_3   0.131259 0.080374 0.588431 -0.464865
C51   C     C_3   0.320401 0.115483 0.559969 -0.215938
C52   C     C_3   0.300275 0.199961 0.503684 -1.027138
H50   H     H_    0.189758 0.189357 0.458229 0.273139
H51   H     H_    0.264717 0.261582 0.540980 0.285012
H52   H     H_    0.431521 0.214556 0.472229 0.267784
H53   H     H_    0.407477 0.138596 0.611177 0.201184
H54   H     H_    0.391611 0.057282 0.527747 0.190612
H55   H     H_    0.082197 0.026998 0.545722 0.173763
H56   H     H_    0.030247 0.139416 0.588267 0.210860
H57   H     H_    0.023599 0.510656 0.822909 0.106821
H58   H     H_    0.476476 0.489271 0.322993 0.106810
H59   H     H_    0.523601 0.989343 0.177089 0.106816
H60   H     H_    0.976480 0.010737 0.676999 0.106805
H61   H     H_    0.970732 0.368901 0.743599 0.155488
H62   H     H_    0.529080 0.631004 0.243642 0.155506
H63   H     H_    0.470741 0.131092 0.256403 0.155490
H64   H     H_    0.029051 0.869017 0.756354 0.155511
C53   C     C_3   0.361086 0.521873 0.677642 -0.422490
C54   C     C_3   0.396489 0.453796 0.607867 -0.176716
C55   C     C_3   0.233361 0.446328 0.550229 -1.013649
H65   H     H_    0.129633 0.398247 0.576407 0.259701
H66   H     H_    0.171052 0.516376 0.538075 0.293554
H67   H     H_    0.277265 0.416343 0.491363 0.251580
H68   H     H_    0.509852 0.482783 0.573098 0.203339
H69   H     H_    0.434997 0.382754 0.630908 0.179440
H70   H     H_    0.251845 0.491491 0.716805 0.163470
H71   H     H_    0.300905 0.588752 0.654443 0.216918
C56   C     C_3   0.138912 0.478161 0.177615 -0.422549
C57   C     C_3   0.103523 0.546249 0.107847 -0.176665
C58   C     C_3   0.266649 0.553683 0.050198 -1.013547
H72   H     H_    0.370446 0.601725 0.076376 0.259632
H73   H     H_    0.328881 0.483624 0.038023 0.293553
H74   H     H_    0.222776 0.583698 0.991342 0.251536
H75   H     H_    0.990094 0.517293 0.073098 0.203311
H76   H     H_    0.065097 0.617300 0.130896 0.179379
H77   H     H_    0.248157 0.508533 0.216782 0.163478
H78   H     H_    0.199084 0.411282 0.154410 0.216949
C59   C     C_3   0.861084 0.978132 0.322359 -0.422493
C60   C     C_3   0.896480 0.046205 0.392137 -0.176723
C61   C     C_3   0.733350 0.053673 0.449773 -1.013658
H79   H     H_    0.629625 0.101759 0.423596 0.259717
H80   H     H_    0.671038 0.983626 0.461923 0.293551
H81   H     H_    0.777254 0.083652 0.508641 0.251576
H82   H     H_    0.009839 0.017214 0.426906 0.203339
H83   H     H_    0.934988 0.117247 0.369098 0.179440
H84   H     H_    0.751843 0.008516 0.283195 0.163475
H85   H     H_    0.800904 0.911252 0.345555 0.216916
C62   C     C_3   0.638920 0.021837 0.822385 -0.422563
C63   C     C_3   0.603544 0.953748 0.892153 -0.176664
C64   C     C_3   0.766672 0.946314 0.949801 -1.013550
H86   H     H_    0.870457 0.898254 0.923632 0.259652
H87   H     H_    0.828921 0.016371 0.961964 0.293544
H88   H     H_    0.722790 0.916319 0.008663 0.251522
H89   H     H_    0.490116 0.982705 0.926904 0.203309
H90   H     H_    0.565121 0.882699 0.869104 0.179374
H91   H     H_    0.748167 0.991466 0.783216 0.163486
H92   H     H_    0.699085 0.088717 0.845588 0.216950
H93   H     H_    0.482523 0.492587 0.853940 0.131262
H94   H     H_    0.017581 0.507513 0.353891 0.131288
H95   H     H_    0.982521 0.007424 0.146063 0.131267
H96   H     H_    0.517590 0.992472 0.646113 0.131293

loop_
_geom_bond_atom_site_label_1
_geom_bond_atom_site_label_2
_geom_bond_distance
_ccdc_geom_bond_type
C63   H89   1.084177 S    
O17   V3    1.771931 S    
C55   H67   1.107433 S    
C62   C63   1.523815 S    
O1    C5    1.352425 A    
C41   C42   1.534222 S    
C24   C40   1.557625 S    
C23   C27   1.596707 S    
C50   H56   1.111963 S    
O19   V1    1.771911 S    
O13   V1    2.028572 S    
O3    C7    1.352431 A    
C61   H79   1.103321 S    
C10   C14   1.565916 S    
O4    V2    2.028539 S    
C39   H95   1.108166 S    
C14   C44   1.529808 S    
C40   H20   1.114279 S    
C35   H27   1.113385 S    
C13   H57   1.115579 S    
C59   C60   1.523821 S    
C43   H31   1.104872 S    
C17   C25   1.554991 S    
C50   C51   1.534180 S    
C64   H86   1.103332 S    
O7    C3    1.348110 A    
C46   H37   1.098549 S    
C44   H41   1.093233 S    
C61   H80   1.108263 S    
O10   V2    2.041405 S    
C5    C27   1.551396 S    
C16   H60   1.115572 S    
C6    C28   1.551401 S    
C45   H39   1.105261 S    
C36   H28   1.113388 S    
C10   C26   1.554834 S    
C29   C33   1.550160 S    
C63   H90   1.111000 S    
C55   H65   1.103315 S    
C30   C38   1.558802 S    
C55   H66   1.108262 S    
O1    V3    2.028544 S    
C29   C37   1.558813 S    
O2    V4    2.028533 S    
O3    V1    2.028552 S    
C20   C28   1.554968 S    
C22   C38   1.557627 S    
C21   H9    1.112641 S    
C1    O15   1.339365 A    
C13   C41   1.529773 S    
C47   H49   1.112013 S    
C43   H29   1.109008 S    
C2    O16   1.339366 A    
C49   H44   1.098536 S    
C23   H11   1.112637 S    
O2    C6    1.352434 A    
C52   H52   1.104727 S    
C56   C57   1.523816 S    
C24   H12   1.112606 S    
O14   V2    2.028583 S    
H5    C17   1.098314 S    
C58   H73   1.108241 S    
C11   C15   1.565882 S    
C21   C53   1.558351 S    
C48   H46   1.105316 S    
C3    C30   1.552351 S    
C32   C36   1.550143 S    
C23   C39   1.557650 S    
O11   C7    1.334855 A    
O15   V3    2.028561 S    
O12   C8    1.334852 A    
C17   C33   1.555412 S    
C62   H91   1.110046 S    
C34   H26   1.113389 S    
C19   C35   1.555418 S    
C38   H18   1.114279 S    
C33   H25   1.113389 S    
C37   H17   1.114279 S    
C45   C46   1.521590 S    
C53   H71   1.110857 S    
C48   C49   1.521646 S    
O5    V1    2.041433 S    
C64   H87   1.108242 S    
C33   H61   1.113356 S    
C46   H38   1.104752 S    
C57   H76   1.111004 S    
O7    V3    2.041421 S    
C53   H70   1.110036 S    
O8    V4    2.041430 S    
C54   H69   1.111000 S    
C12   H4    1.112250 S    
C61   H81   1.107434 S    
C23   C59   1.558355 S    
C47   C48   1.534215 S    
C12   H16   1.113604 S    
C41   H34   1.093269 S    
C21   C25   1.596715 S    
O18   V4    1.771930 S    
H7    C19   1.098304 S    
C22   H10   1.112610 S    
C2    C31   1.552377 S    
C9    H1    1.112259 S    
C24   C28   1.596702 S    
C44   H42   1.111977 S    
C56   H77   1.110045 S    
C11   H3    1.112253 S    
O5    C1    1.348113 A    
C20   C36   1.555401 S    
C17   H21   1.094099 S    
C37   H93   1.108166 S    
C4    C29   1.552378 S    
C42   H33   1.108705 S    
O8    C4    1.348120 A    
C49   H45   1.104828 S    
C22   C26   1.596705 S    
C18   C26   1.554961 S    
C51   H54   1.108671 S    
C32   C40   1.558811 S    
C58   H74   1.107392 S    
C15   H59   1.115575 S    
C60   H83   1.110999 S    
C59   H85   1.110856 S    
C15   C31   1.578600 S    
O6    V2    2.041445 S    
C34   H62   1.113360 S    
C24   C62   1.558324 S    
C52   H50   1.108888 S    
C62   H92   1.110857 S    
C16   C32   1.578601 S    
C31   C39   1.558819 S    
C36   H64   1.113361 S    
C19   H23   1.094099 S    
C63   C64   1.523082 S    
C52   H51   1.098538 S    
C60   C61   1.523002 S    
O16   V4    2.028574 S    
C64   H88   1.107392 S    
O9    V1    2.041415 S    
C7    C25   1.551393 S    
C57   H75   1.084177 S    
C3    O13   1.339370 A    
C9    C25   1.554796 S    
C50   H55   1.093210 S    
C10   H2    1.112257 S    
C54   H68   1.084146 S    
C21   C37   1.557649 S    
C12   C28   1.554842 S    
C41   H35   1.112012 S    
O6    C2    1.348123 A    
C35   H63   1.113353 S    
C43   H30   1.098561 S    
O11   V3    2.041401 S    
C22   C56   1.558316 S    
C38   H94   1.108163 S    
O12   V4    2.041389 S    
C47   H48   1.093266 S    
C46   H36   1.108929 S    
H6    C18   1.098320 S    
C16   C50   1.529809 S    
C9    H13   1.113609 S    
C14   H58   1.115574 S    
C9    C13   1.565880 S    
C56   H78   1.110859 S    
O10   C6    1.334852 A    
O20   V2    1.771912 S    
C18   C34   1.555400 S    
C1    C32   1.552350 S    
C59   H84   1.110037 S    
C53   C54   1.523823 S    
C15   C47   1.529779 S    
C45   H40   1.108674 S    
C39   H19   1.114278 S    
C30   C34   1.550146 S    
C42   H32   1.105333 S    
O4    C8    1.352437 A    
C11   H15   1.113604 S    
C51   H53   1.105252 S    
C31   C35   1.550158 S    
O9    C5    1.334858 A    
C13   C29   1.578607 S    
C42   C43   1.521681 S    
C20   H24   1.094063 S    
C48   H47   1.108698 S    
C12   C16   1.565913 S    
C11   C27   1.554804 S    
C18   H22   1.094060 S    
C60   H82   1.084143 S    
H8    C20   1.098312 S    
C19   C27   1.554990 S    
C57   C58   1.523082 S    
C8    C26   1.551399 S    
C4    O14   1.339372 A    
C44   C45   1.534191 S    
C14   C30   1.578605 S    
C54   C55   1.523006 S    
C58   H72   1.103310 S    
C40   H96   1.108165 S    
C10   H14   1.113609 S    
C49   H43   1.108962 S    
C51   C52   1.521576 S    
