data_mof_unit_10810.cif
_audit_creation_date              2012-12-10T20:45:35-0500
_audit_creation_method            fapswitch 2.2
_symmetry_space_group_name_H-M    P1
_symmetry_Int_Tables_number       1
_space_group_crystal_system       triclinic
_cell_length_a                    10.766939
_cell_length_b                    10.653297
_cell_length_c                    9.86131
_cell_angle_alpha                 89.650437
_cell_angle_beta                  91.172044
_cell_angle_gamma                 90.001854
_cell_volume                      1130.86807205

loop_
_atom_site_label
_atom_site_type_symbol
_atom_type_description
_atom_site_fract_x
_atom_site_fract_y
_atom_site_fract_z
_atom_type_partial_charge
C1    C     C_R   0.499124 0.260225 0.500506 0.879194
C2    C     C_R   0.826211 0.526953 0.976537 -0.167926
C3    C     C_R   0.822250 0.404700 0.028263 -0.160150
C4    C     C_R   0.260029 0.501724 0.498303 0.867696
C5    C     C_R   0.854132 0.303390 0.946461 0.172664
C6    C     C_R   0.888157 0.324324 0.811901 -0.217889
C7    C     C_R   0.890581 0.446935 0.758933 0.111800
C8    C     C_R   0.549186 0.063100 0.609050 0.063456
C9    C     C_R   0.491134 0.128402 0.503151 -0.058274
C10   C     C_R   0.420335 0.065408 0.404297 -0.200815
C11   C     C_R   0.421909 0.935577 0.402708 -0.207897
C12   C     C_R   0.212147 0.649107 0.999937 -0.105805
C13   C     C_R   0.493619 0.871428 0.500624 -0.053928
C14   C     C_R   0.551618 0.935168 0.606849 0.055941
C15   C     C_3   0.683503 0.929486 0.658304 -0.010404
C16   C     C_R   0.499440 0.739669 0.499658 0.905461
C17   C     C_3   0.680380 0.071813 0.660564 -0.484743
C18   C     C_R   0.452571 0.400309 0.070765 0.223652
C19   C     C_R   0.533923 0.603833 0.072081 -0.130244
C20   C     C_R   0.533883 0.603874 0.928136 -0.128962
C21   C     C_R   0.452774 0.400347 0.928220 0.200749
C22   C     C_3   0.499550 0.269114 0.924317 -0.487300
C23   C     C_R   0.930859 0.534192 0.384360 -0.206034
C24   C     C_3   0.498265 0.268360 0.077959 -0.480501
C25   C     C_R   0.740061 0.499702 0.501824 0.899800
C26   C     C_R   0.208949 0.734044 0.107386 -0.129674
C27   C     C_R   0.159336 0.697489 0.231567 -0.104319
C28   C     C_R   0.113086 0.575360 0.248571 0.136423
C29   C     C_R   0.116964 0.490421 0.140637 -0.131118
C30   C     C_R   0.166479 0.527334 0.016851 -0.136810
C31   C     C_R   0.872629 0.501726 0.505069 -0.070435
C32   C     C_R   0.942478 0.471522 0.623493 0.006745
C33   C     C_R   0.069400 0.469443 0.615584 -0.232650
C34   C     C_R   0.127521 0.502822 0.495590 -0.081804
C35   C     C_R   0.058091 0.536526 0.378345 -0.004272
C36   C     C_R   0.860244 0.548259 0.842405 -0.084583
H1    H     H_    0.250661 0.677325 0.903908 0.143646
H2    H     H_    0.565279 0.686337 0.874379 0.148956
H3    H     H_    0.430852 0.203796 0.877375 0.205163
H4    H     H_    0.594416 0.264441 0.883129 0.229636
H5    H     H_    0.427460 0.203495 0.118919 0.196945
H6    H     H_    0.592161 0.260166 0.126102 0.237237
H7    H     H_    0.156600 0.763957 0.314126 0.130266
H8    H     H_    0.170213 0.461024 0.934630 0.130386
H9    H     H_    0.877363 0.560863 0.294352 0.167805
H10   H     H_    0.123093 0.442532 0.705155 0.161053
H11   H     H_    0.804419 0.605471 0.040940 0.149505
H12   H     H_    0.796622 0.388925 0.132507 0.162317
H13   H     H_    0.370549 0.885897 0.324185 0.149155
H14   H     H_    0.081950 0.395771 0.152633 0.147541
H15   H     H_    0.865437 0.643657 0.804286 0.150154
H16   H     H_    0.915501 0.245889 0.749867 0.161643
H17   H     H_    0.367188 0.116127 0.327446 0.150461
H18   H     H_    0.690873 0.886852 0.761355 0.151450
H19   H     H_    0.686832 0.109611 0.764733 0.205082
H20   H     H_    0.742630 0.118255 0.586934 0.218737
H21   H     H_    0.565143 0.686308 0.126257 0.161993
H22   H     H_    0.244743 0.828186 0.094362 0.131613
I1    I     I_    0.856528 0.120008 0.028582 -0.456017
I2    I     I_    0.814442 0.858238 0.516085 -0.401529
N1    N     N_R   0.499160 0.499140 0.142800 -0.105670
N2    N     N_R   0.499160 0.499180 0.857150 -0.103944
O1    O     O_R   0.500020 0.316790 0.614690 -0.620186
O2    O     O_R   0.500000 0.316760 0.385350 -0.623741
O3    O     O_R   0.316770 0.500030 0.614670 -0.630558
O4    O     O_R   0.316750 0.499990 0.385330 -0.612265
O5    O     O_R   0.500000 0.683240 0.614650 -0.633026
O6    O     O_R   0.499980 0.683210 0.385310 -0.619077
O7    O     O_R   0.683250 0.500010 0.614670 -0.607891
O8    O     O_R   0.683230 0.499970 0.385330 -0.627351
Zn1   Zn    Zn3+2 0.500010 0.500020 0.653130 0.948365
Zn2   Zn    Zn3+2 0.499990 0.499980 0.346870 0.955101

loop_
_geom_bond_atom_site_label_1
_geom_bond_atom_site_label_2
_ccdc_geom_bond_type
C25   C31   S    
O8    Zn2   S    
C15   H18   S    
C18   N1    A    
C29   C30   A    
C11   H13   S    
C2    H11   S    
C18   C21   A    
C20   H2    S    
C7    C36   A    
C17   H19   S    
C23   C35   A    
C8    C17   S    
C14   C15   S    
O6    Zn2   S    
C22   H4    S    
C32   C33   A    
C22   C24   S    
C2    C3    A    
C26   C27   A    
C1    C9    S    
C16   O5    A    
O3    Zn1   S    
C13   C14   A    
C19   H21   S    
C4    O4    A    
C33   H10   S    
C11   C13   A    
C17   H20   S    
C30   H8    S    
C21   N2    A    
C6    C7    A    
C36   H15   S    
C24   H5    S    
C23   H9    S    
C19   N1    A    
C16   O6    A    
C22   H3    S    
C1    O1    A    
N1    Zn2   S    
C28   C29   A    
O1    Zn1   S    
N2    Zn1   S    
C33   C34   A    
O5    Zn1   S    
C29   H14   S    
O2    Zn2   S    
C20   N2    A    
C5    C6    A    
C7    C32   S    
C4    C34   S    
C25   O7    A    
C10   C11   A    
C5    I1    S    
C19   C20   A    
C1    O2    A    
C27   H7    S    
C3    H12   S    
C27   C28   A    
C24   H6    S    
C18   C24   S    
O7    Zn1   S    
C34   C35   A    
C9    C10   A    
C13   C16   S    
C2    C36   A    
C12   H1    S    
C15   C17   S    
C10   H17   S    
C4    O3    A    
C8    C14   A    
C25   O8    A    
C6    H16   S    
C21   C22   S    
C12   C30   A    
C26   H22   S    
C15   I2    S    
O4    Zn2   S    
C31   C32   A    
C28   C35   S    
C12   C26   A    
C8    C9    A    
C3    C5    A    
C23   C31   A    
