data_mof_unit_28252.cif
_audit_creation_date              2012-12-10T19:47:56-0500
_audit_creation_method            fapswitch 2.2
_symmetry_space_group_name_H-M    P1
_symmetry_Int_Tables_number       1
_space_group_crystal_system       triclinic
_cell_length_a                    14.988781
_cell_length_b                    14.287145
_cell_length_c                    10.685109
_cell_angle_alpha                 87.725524
_cell_angle_beta                  92.161448
_cell_angle_gamma                 89.869014
_cell_volume                      2284.73703329

loop_
_atom_site_label
_atom_site_type_symbol
_atom_type_description
_atom_site_fract_x
_atom_site_fract_y
_atom_site_fract_z
_atom_type_partial_charge
C1    C     C_R   0.327684 0.500001 0.499799 0.938834
C2    C     C_R   0.671893 0.499909 0.499269 0.874853
C3    C     C_R   0.046754 0.499689 0.469043 0.104218
C4    C     C_R   0.950247 0.497656 0.471032 0.104182
C5    C     C_R   0.452821 0.107212 0.407552 -0.216753
C6    C     C_R   0.571679 0.893264 0.554088 -0.227991
C7    C     C_R   0.550185 0.101775 0.589694 -0.236019
C8    C     C_R   0.429247 0.897171 0.445524 -0.221452
C9    C     C_R   0.450746 0.205498 0.410390 0.508476
C10   C     C_R   0.569132 0.794821 0.558081 0.505107
C11   C     C_R   0.551666 0.200220 0.586994 0.552868
C12   C     C_R   0.431371 0.798932 0.441878 0.494755
C13   C     C_R   0.501049 0.052917 0.499182 -0.000849
C14   C     C_R   0.500637 0.946817 0.499674 0.005467
C15   C     C_R   0.499157 0.501605 0.259504 0.924630
C16   C     C_R   0.487807 0.497655 0.738487 0.948365
C17   C     C_R   0.349649 0.599543 0.124330 0.265990
C18   C     C_R   0.509468 0.319789 0.907679 0.304600
C19   C     C_R   0.357123 0.625255 0.864853 0.349163
C20   C     C_R   0.610004 0.381258 0.115298 0.268232
C21   C     C_R   0.298768 0.671599 0.062936 0.353187
C22   C     C_R   0.571771 0.258577 0.971529 0.432387
C23   C     C_R   0.306022 0.687658 0.933124 0.297176
C24   C     C_R   0.625986 0.291440 0.069886 0.393574
C25   C     C_R   0.415889 0.559439 0.929536 -0.072678
C26   C     C_R   0.537728 0.435933 0.061180 -0.135548
C27   C     C_R   0.419297 0.555662 0.061405 -0.152026
C28   C     C_R   0.503994 0.414463 0.943659 -0.173872
C29   C     C_R   0.465005 0.489451 0.869954 -0.071888
C30   C     C_R   0.489578 0.503115 0.124922 -0.069072
C31   C     C_R   0.091904 0.583383 0.491551 -0.162290
C32   C     C_R   0.908352 0.424293 0.536766 -0.153597
C33   C     C_R   0.900043 0.571342 0.413709 -0.155588
C34   C     C_R   0.094131 0.416870 0.452714 -0.151165
C35   C     C_R   0.184038 0.583800 0.500355 -0.112524
C36   C     C_R   0.816711 0.424842 0.545603 -0.164642
C37   C     C_R   0.808517 0.572781 0.424708 -0.149770
C38   C     C_R   0.186177 0.416862 0.463992 -0.193746
C39   C     C_R   0.231339 0.500106 0.489528 -0.007289
C40   C     C_R   0.767131 0.499638 0.490907 -0.001355
H1    H     H_    0.056027 0.647780 0.505657 0.150287
H2    H     H_    0.946551 0.367859 0.583674 0.145729
H3    H     H_    0.931625 0.627713 0.361199 0.149136
H4    H     H_    0.059901 0.352119 0.432850 0.147235
H5    H     H_    0.217854 0.649225 0.517034 0.185214
H6    H     H_    0.784795 0.368136 0.597131 0.167061
H7    H     H_    0.770008 0.630016 0.380191 0.164344
H8    H     H_    0.221732 0.351884 0.452306 0.170336
H9    H     H_    0.415831 0.074214 0.332542 0.183576
H10   H     H_    0.629557 0.926816 0.595626 0.183734
H11   H     H_    0.588523 0.064414 0.663573 0.185708
H12   H     H_    0.371759 0.933786 0.403314 0.180713
N1    N     N_R   0.500000 0.252470 0.500000 -0.200942
N2    N     N_R   0.500000 0.747530 0.500000 -0.202308
O1    O     O_R   0.369060 0.579480 0.500010 -0.562969
O2    O     O_R   0.630940 0.420520 0.499990 -0.620267
O3    O     O_R   0.630940 0.579480 0.499990 -0.626951
O4    O     O_R   0.369060 0.420520 0.500010 -0.679318
O5    O     O_R   0.499990 0.579480 0.316780 -0.629929
O6    O     O_R   0.500010 0.420520 0.683220 -0.630873
O7    O     O_R   0.500010 0.579480 0.683220 -0.597785
O8    O     O_R   0.499990 0.420520 0.316780 -0.594486
Zn1   Zn    Zn3+2 0.500000 0.606140 0.500000 0.986780
Zn2   Zn    Zn3+2 0.500000 0.393860 0.500000 0.976899
O9    O     O_3   0.691241 0.231988 0.122555 -0.681774
H13   H     H_    0.722677 0.262195 0.193294 0.380758
O10   O     O_3   0.257290 0.757757 0.868534 -0.754696
H14   H     H_    0.230606 0.800035 0.928199 0.397009
O11   O     O_3   0.581538 0.166012 0.941275 -0.667548
H15   H     H_    0.537501 0.150585 0.873980 0.384869
O12   O     O_3   0.235496 0.721374 0.124278 -0.736784
H16   H     H_    0.237903 0.703392 0.214731 0.407719
O13   O     O_3   0.320943 0.564127 0.237296 -0.785788
H17   H     H_    0.328255 0.495088 0.238248 0.326665
O14   O     O_3   0.448420 0.282735 0.823128 -0.739380
H18   H     H_    0.396139 0.325393 0.812880 0.354031
O15   O     O_3   0.344753 0.622772 0.736650 -0.751174
H19   H     H_    0.303976 0.673382 0.704459 0.382652
O16   O     O_3   0.666170 0.414065 0.209075 -0.756435
H20   H     H_    0.664178 0.483476 0.204380 0.323027
O17   O     O_3   0.398706 0.251299 0.318572 -0.764541
H21   H     H_    0.384470 0.313712 0.347137 0.369416
O18   O     O_3   0.638425 0.748746 0.621888 -0.749752
H22   H     H_    0.615026 0.689205 0.656137 0.375296
O19   O     O_3   0.607943 0.240553 0.673679 -0.754019
H23   H     H_    0.608726 0.308239 0.656088 0.378143
O20   O     O_3   0.363350 0.756953 0.376334 -0.760381
H24   H     H_    0.388436 0.699194 0.344855 0.395808

loop_
_geom_bond_atom_site_label_1
_geom_bond_atom_site_label_2
_ccdc_geom_bond_type
O20   H24   S    
C18   O14   S    
O13   H17   S    
C19   C23   A    
O17   H21   S    
C2    O3    A    
O15   H19   S    
C7    C11   A    
C21   O12   S    
C32   C36   A    
C28   C29   A    
C37   C40   A    
C38   C39   A    
N1    Zn2   S    
N2    Zn1   S    
C10   O18   S    
C19   O15   S    
C16   O6    A    
C23   O10   S    
O7    Zn1   S    
O8    Zn2   S    
C20   C24   A    
O1    Zn1   S    
O2    Zn2   S    
C36   H6    S    
C37   H7    S    
C8    H12   S    
C22   O11   S    
C5    C13   A    
C38   H8    S    
C11   N1    A    
C34   C38   A    
C13   C14   S    
C27   C30   A    
C17   O13   S    
C5    H9    S    
C10   N2    A    
O3    Zn1   S    
C25   C29   A    
O10   H14   S    
C17   C27   A    
C36   C40   A    
C34   H4    S    
O4    Zn2   S    
C16   C29   S    
O19   H23   S    
C17   C21   A    
C33   H3    S    
C35   C39   A    
O14   H18   S    
C5    C9    A    
C6    C14   A    
O18   H22   S    
C8    C12   A    
C18   C28   A    
C6    H10   S    
C3    C31   A    
C4    C32   A    
C24   O9    S    
C26   C30   A    
C21   C23   A    
C22   C24   A    
O5    Zn1   S    
C9    N1    A    
C16   O7    A    
C3    C4    S    
C35   H5    S    
C15   C30   S    
C4    C33   A    
C8    C14   A    
C31   H1    S    
C20   O16   S    
C18   C22   A    
C15   O5    A    
C6    C10   A    
C25   C27   A    
C26   C28   A    
C3    C34   A    
O6    Zn2   S    
C1    O1    A    
C7    H11   S    
O12   H16   S    
C12   O20   S    
C2    O2    A    
C1    O4    A    
C20   C26   A    
C11   O19   S    
C15   O8    A    
C31   C35   A    
O11   H15   S    
C19   C25   A    
C33   C37   A    
C1    C39   S    
O16   H20   S    
C2    C40   S    
C7    C13   A    
O9    H13   S    
C32   H2    S    
C12   N2    A    
C9    O17   S    
