data_mof_unit_43293.cif
_audit_creation_date              2012-12-10T18:18:20-0500
_audit_creation_method            fapswitch 2.2
_symmetry_space_group_name_H-M    P1
_symmetry_Int_Tables_number       1
_space_group_crystal_system       triclinic
_cell_length_a                    14.114758
_cell_length_b                    15.01343
_cell_length_c                    15.348137
_cell_angle_alpha                 87.839644
_cell_angle_beta                  66.866925
_cell_angle_gamma                 87.171913
_cell_volume                      2986.68872179

loop_
_atom_site_label
_atom_site_type_symbol
_atom_type_description
_atom_site_fract_x
_atom_site_fract_y
_atom_site_fract_z
_atom_type_partial_charge
C1    C     C_R   0.497110 0.672955 0.501198 0.965350
C2    C     C_R   0.502445 0.326854 0.499414 0.848859
C3    C     C_R   0.427819 0.393909 0.083129 -0.350126
C4    C     C_R   0.618640 0.527411 0.891814 -0.336496
C5    C     C_R   0.357212 0.374310 0.044276 -0.013618
C6    C     C_R   0.691736 0.543750 0.928776 -0.005395
C7    C     C_R   0.425889 0.186929 0.576297 -0.045645
C8    C     C_R   0.565475 0.814332 0.422287 -0.093898
C9    C     C_R   0.504954 0.230735 0.502548 -0.176827
C10   C     C_R   0.492245 0.768814 0.498879 -0.145355
C11   C     C_R   0.580309 0.182532 0.428469 -0.077093
C12   C     C_R   0.414656 0.815086 0.573012 -0.115478
C13   C     C_R   0.563451 0.092485 0.419545 -0.000523
C14   C     C_R   0.425122 0.906941 0.580855 0.044857
C15   C     C_R   0.495846 0.046407 0.500834 -0.005913
C16   C     C_R   0.491913 0.953696 0.499564 0.040576
C17   C     C_R   0.432898 0.093324 0.583295 0.071249
C18   C     C_R   0.554513 0.907535 0.416438 -0.072564
C19   C     C_R   0.609373 0.048391 0.331378 -0.042642
C20   C     C_R   0.373997 0.952413 0.667686 -0.110035
C21   C     C_R   0.602544 0.955345 0.329745 -0.088655
C22   C     C_R   0.379836 0.045644 0.669322 -0.055015
C23   C     C_R   0.435072 0.499303 0.676581 0.850527
C24   C     C_R   0.565070 0.500446 0.323457 0.936738
C25   C     C_R   0.176845 0.449461 0.565445 -0.078149
C26   C     C_R   0.818990 0.558384 0.442210 -0.095115
C27   C     C_R   0.224335 0.555321 0.437721 0.069014
C28   C     C_R   0.777588 0.441664 0.558434 0.068275
C29   C     C_R   0.122895 0.558519 0.438881 -0.034476
C30   C     C_R   0.874640 0.446681 0.565390 -0.032408
C31   C     C_R   0.048344 0.504302 0.504052 0.062796
C32   C     C_R   0.947672 0.504033 0.503293 0.067229
C33   C     C_R   0.074268 0.450684 0.570071 -0.023092
C34   C     C_R   0.920728 0.559386 0.439045 -0.032079
C35   C     C_R   0.094525 0.614622 0.376078 -0.264405
C36   C     C_R   0.900154 0.395496 0.632820 -0.280651
C37   C     C_R   0.995676 0.614950 0.374761 0.009447
C38   C     C_R   0.997041 0.399263 0.638015 0.007308
C39   C     C_R   0.393845 0.487882 0.779073 -0.066807
C40   C     C_R   0.609093 0.499035 0.220488 -0.052045
C41   C     C_R   0.292475 0.402628 0.917543 -0.133224
C42   C     C_R   0.735680 0.544676 0.069191 -0.171432
C43   C     C_R   0.309753 0.434950 0.826589 -0.240986
C44   C     C_R   0.703557 0.536297 0.167001 -0.189018
C45   C     C_R   0.452907 0.515981 0.825797 -0.269156
C46   C     C_R   0.552311 0.462532 0.175843 -0.280225
C47   C     C_R   0.447925 0.473611 0.910147 0.069251
C48   C     C_R   0.578704 0.475238 0.078513 0.071050
C49   C     C_R   0.364730 0.416346 0.958160 0.126722
C50   C     C_R   0.670177 0.521275 0.024563 0.132899
C51   C     C_R   0.525339 0.485170 0.945711 0.058093
C52   C     C_R   0.510595 0.450859 0.036528 0.060318
H1    H     H_    0.199477 0.407730 0.613480 0.162029
H2    H     H_    0.794252 0.602941 0.397629 0.170975
H3    H     H_    0.149520 0.658273 0.325705 0.163920
H4    H     H_    0.843262 0.354477 0.684944 0.158876
H5    H     H_    0.482180 0.431576 0.220828 0.148087
H6    H     H_    0.508255 0.565886 0.790112 0.142153
H7    H     H_    0.751324 0.560592 0.200904 0.181154
H8    H     H_    0.260475 0.415494 0.792043 0.160734
H9    H     H_    0.225009 0.363923 0.952873 0.184823
H10   H     H_    0.809731 0.573015 0.030765 0.185994
H11   H     H_    0.419978 0.358461 0.147870 0.134466
H12   H     H_    0.638018 0.548376 0.819183 0.136598
N1    N     N_R   0.249980 0.499930 0.499960 -0.119708
N2    N     N_R   0.750020 0.500070 0.500040 -0.118253
O1    O     O_R   0.419720 0.632140 0.499980 -0.612429
O2    O     O_R   0.580280 0.367860 0.500020 -0.593156
O3    O     O_R   0.580270 0.632160 0.499970 -0.607491
O4    O     O_R   0.419730 0.367840 0.500030 -0.634837
O5    O     O_R   0.373870 0.499980 0.632250 -0.625305
O6    O     O_R   0.626130 0.500020 0.367750 -0.600519
O7    O     O_R   0.534420 0.500000 0.632240 -0.615894
O8    O     O_R   0.465580 0.500000 0.367760 -0.613730
Zn1   Zn    Zn3+2 0.392800 0.499980 0.500010 0.951492
Zn2   Zn    Zn3+2 0.607200 0.500020 0.499990 0.965311
C53   C     C_2   0.279272 0.307681 0.096481 0.351569
H13   H     H_    0.250448 0.303532 0.173277 0.062314
O9    O     O_2   0.251771 0.253173 0.055031 -0.573809
C54   C     C_2   0.786121 0.588609 0.864239 0.348154
H14   H     H_    0.820331 0.571070 0.789959 0.073985
O10   O     O_2   0.822337 0.649080 0.890786 -0.594003
C55   C     C_R   0.301393 0.612902 0.367739 0.178458
C56   C     C_R   0.345476 0.588936 0.272012 -0.166956
C57   C     C_R   0.406314 0.648671 0.202861 -0.117837
C58   C     C_R   0.422345 0.733102 0.228490 -0.089245
C59   C     C_R   0.375323 0.758808 0.322931 -0.153315
C60   C     C_R   0.313079 0.699648 0.391736 -0.119280
H15   H     H_    0.330190 0.524972 0.250947 0.128543
H16   H     H_    0.439683 0.630131 0.129197 0.148128
H17   H     H_    0.469007 0.779275 0.174723 0.133963
H18   H     H_    0.385171 0.825160 0.342557 0.129246
H19   H     H_    0.272664 0.721568 0.463473 0.139801
C61   C     C_R   0.713685 0.364882 0.604732 0.173689
C62   C     C_R   0.739689 0.281986 0.560770 -0.129495
C63   C     C_R   0.691829 0.205005 0.608697 -0.175298
C64   C     C_R   0.619427 0.210059 0.701821 -0.068776
C65   C     C_R   0.595086 0.291947 0.747196 -0.119848
C66   C     C_R   0.643724 0.368571 0.699225 -0.165634
H20   H     H_    0.800167 0.277145 0.490873 0.143784
H21   H     H_    0.712682 0.141038 0.574838 0.133340
H22   H     H_    0.584758 0.150031 0.739559 0.181288
H23   H     H_    0.541089 0.295534 0.820284 0.170847
H24   H     H_    0.630504 0.430104 0.736147 0.143504
C67   C     C_R   0.975105 0.671894 0.302543 0.113159
C68   C     C_R   0.953386 0.633147 0.230779 -0.180460
C69   C     C_R   0.935891 0.686990 0.161810 -0.118190
C70   C     C_R   0.940514 0.779637 0.163627 -0.085179
C71   C     C_R   0.962847 0.818607 0.234322 -0.163832
C72   C     C_R   0.980490 0.765008 0.303406 -0.170100
H25   H     H_    0.950163 0.561385 0.228284 0.124944
H26   H     H_    0.919020 0.656892 0.106804 0.134928
H27   H     H_    0.926871 0.821217 0.110248 0.158555
H28   H     H_    0.966455 0.890371 0.235594 0.137282
H29   H     H_    0.997861 0.795963 0.357756 0.132364
C73   C     C_R   0.012110 0.352903 0.718949 0.115763
C74   C     C_R   0.996566 0.261012 0.735162 -0.091509
C75   C     C_R   0.006034 0.218545 0.814207 -0.088504
C76   C     C_R   0.030181 0.267539 0.877912 -0.087495
C77   C     C_R   0.044409 0.359140 0.862962 -0.143844
C78   C     C_R   0.035362 0.401815 0.783923 -0.185900
H30   H     H_    0.977274 0.222393 0.686609 0.123041
H31   H     H_    0.994457 0.147680 0.826188 0.121221
H32   H     H_    0.037379 0.234625 0.939085 0.128186
H33   H     H_    0.061978 0.397228 0.912864 0.122697
H34   H     H_    0.045381 0.473069 0.773845 0.130300
C79   C     C_2   0.334455 0.238960 0.641733 0.482784
H35   H     H_    0.343702 0.302776 0.667661 0.069985
O11   O     O_2   0.247746 0.211484 0.665053 -0.604109
C80   C     C_2   0.655890 0.766207 0.350706 0.379515
H36   H     H_    0.731270 0.794863 0.325977 0.098657
O12   O     O_2   0.645968 0.697792 0.315208 -0.589632
C81   C     C_R   0.680382 0.221551 0.366507 0.149523
C82   C     C_R   0.773046 0.179788 0.363620 -0.194708
C83   C     C_R   0.868138 0.212321 0.303152 -0.172737
C84   C     C_R   0.871806 0.285416 0.243205 -0.126534
C85   C     C_R   0.780458 0.325334 0.243042 -0.125319
C86   C     C_R   0.684990 0.293714 0.304346 -0.068478
H37   H     H_    0.771631 0.121591 0.407849 0.128489
H38   H     H_    0.938919 0.180173 0.302045 0.143545
H39   H     H_    0.945423 0.309977 0.195467 0.134182
H40   H     H_    0.784260 0.379288 0.193572 0.134463
H41   H     H_    0.614904 0.322573 0.300844 0.091786
C87   C     C_R   0.318270 0.770389 0.634430 0.146913
C88   C     C_R   0.318727 0.702374 0.699658 -0.069063
C89   C     C_R   0.226828 0.662449 0.757220 -0.114882
C90   C     C_R   0.134325 0.689197 0.749316 -0.116305
C91   C     C_R   0.133079 0.757168 0.685094 -0.139547
C92   C     C_R   0.224385 0.798287 0.628582 -0.182497
H42   H     H_    0.389765 0.682043 0.707222 0.085917
H43   H     H_    0.226896 0.611308 0.808629 0.133522
H44   H     H_    0.063479 0.657872 0.793625 0.154136
H45   H     H_    0.061262 0.778408 0.679504 0.146063
H46   H     H_    0.222248 0.851414 0.579572 0.129410
C93   C     C_R   0.647090 0.100546 0.240258 0.161118
C94   C     C_R   0.576890 0.151896 0.213124 -0.184439
C95   C     C_R   0.611885 0.202215 0.128611 -0.135581
C96   C     C_R   0.716934 0.201748 0.070683 -0.109156
C97   C     C_R   0.787232 0.150540 0.096890 -0.128355
C98   C     C_R   0.752658 0.100160 0.181327 -0.009759
H47   H     H_    0.495354 0.153220 0.257666 0.134231
H48   H     H_    0.557624 0.241598 0.107981 0.145281
H49   H     H_    0.743845 0.241061 0.005527 0.135035
H50   H     H_    0.868587 0.150285 0.052092 0.120665
H51   H     H_    0.807969 0.061340 0.201313 0.131790
C99   C     C_R   0.330032 0.902382 0.759704 0.114543
C100  C     C_R   0.222923 0.902883 0.812199 -0.154337
C101  C     C_R   0.182477 0.855938 0.898609 -0.110999
C102  C     C_R   0.248510 0.808599 0.933346 -0.106741
C103  C     C_R   0.355162 0.808487 0.881965 -0.142545
C104  C     C_R   0.395981 0.855498 0.795586 -0.146063
H52   H     H_    0.171106 0.939068 0.785705 0.131296
H53   H     H_    0.099935 0.855949 0.938454 0.132519
H54   H     H_    0.217018 0.772003 0.000056 0.134714
H55   H     H_    0.406193 0.771748 0.908926 0.137207
H56   H     H_    0.478694 0.854858 0.756254 0.132385
C105  C     C_2   0.627951 0.909523 0.238179 0.389479
H57   H     H_    0.576817 0.860039 0.233688 0.086429
O13   O     O_2   0.707456 0.922613 0.169383 -0.584933
C106  C     C_2   0.341317 0.089910 0.763235 0.457241
H58   H     H_    0.269664 0.070836 0.819428 0.085427
O14   O     O_2   0.390980 0.146488 0.779561 -0.603370

loop_
_geom_bond_atom_site_label_1
_geom_bond_atom_site_label_2
_ccdc_geom_bond_type
C63   H21   S    
O5    Zn1   S    
C59   C60   A    
C95   C96   A    
C27   C29   A    
C34   C37   A    
C19   C93   S    
C102  C103  A    
C67   C68   A    
C80   O12   D    
C62   C63   A    
C74   H30   S    
C41   H9    S    
C67   C72   A    
C88   C89   A    
C83   C84   A    
C47   C49   A    
C53   H13   S    
C73   C74   A    
C40   C46   A    
C87   C92   A    
C55   C56   A    
C36   H4    S    
C56   H15   S    
C94   C95   A    
C35   C37   A    
C25   H1    S    
C2    O2    A    
C86   H41   S    
C11   C81   S    
C97   C98   A    
C57   C58   A    
C103  C104  A    
C44   H7    S    
C15   C16   A    
C18   C21   A    
C70   C71   A    
O3    Zn2   S    
C28   C61   S    
C69   H26   S    
C75   C76   A    
C24   C40   S    
C26   C34   A    
C90   C91   A    
C7    C17   A    
C30   C36   A    
C102  H54   S    
C31   C33   A    
C42   H10   S    
C88   H42   S    
O6    Zn2   S    
C103  H55   S    
C21   C105  S    
C55   C60   A    
C81   C86   A    
C59   H18   S    
C41   C43   A    
C5    C49   A    
C99   C100  A    
C83   H38   S    
C42   C44   A    
C23   O7    A    
C26   H2    S    
C41   C49   A    
C106  O14   D    
C64   C65   A    
C68   H25   S    
C45   C47   A    
C101  H53   S    
C57   H16   S    
C46   C48   A    
C45   H6    S    
C85   H40   S    
O8    Zn1   S    
C13   C19   A    
C4    C51   A    
C35   H3    S    
C51   C52   A    
C26   N2    A    
C23   O5    A    
C25   N1    A    
C56   C57   A    
C22   C106  S    
C73   C78   A    
C100  C101  A    
C58   C59   A    
C54   H14   S    
C39   C43   A    
C105  O13   D    
C76   H32   S    
C1    O3    A    
C12   C87   S    
C32   C34   A    
C70   H27   S    
C28   N2    A    
C92   H46   S    
C79   O11   D    
C37   C67   S    
C84   H39   S    
C27   N1    A    
C14   C20   A    
C38   C73   S    
C6    C54   S    
C31   C32   A    
C48   C52   A    
C69   C70   A    
N2    Zn2   S    
C63   C64   A    
C53   O9    D    
C16   C18   A    
C98   H51   S    
C6    C50   A    
C76   C77   A    
C48   C50   A    
C9    C11   A    
C100  H52   S    
C10   C12   A    
C71   H28   S    
C42   C50   A    
C43   H8    S    
C4    C6    A    
C101  C102  A    
C12   C14   A    
C94   H47   S    
C65   C66   A    
C13   C15   A    
C46   H5    S    
C8    C80   S    
C81   C82   A    
O7    Zn2   S    
C14   C16   A    
C91   C92   A    
O1    Zn1   S    
C91   H45   S    
C5    C53   S    
C79   H35   S    
C82   H37   S    
C77   C78   A    
C24   O6    A    
C89   C90   A    
C104  H56   S    
C15   C17   A    
C4    H12   S    
C60   H19   S    
C66   H24   S    
C19   C21   A    
C93   C98   A    
C62   H20   S    
C96   H49   S    
C1    C10   S    
C64   H22   S    
C20   C22   A    
C87   C88   A    
C3    C5    A    
C47   C51   A    
C3    C52   A    
C82   C83   A    
C3    H11   S    
O2    Zn2   S    
C20   C99   S    
C85   C86   A    
C29   C35   A    
C17   C22   A    
N1    Zn1   S    
C39   C45   A    
C58   H17   S    
C27   C55   S    
C90   H44   S    
C78   H34   S    
C29   C31   A    
C74   C75   A    
C36   C38   A    
C30   C32   A    
C11   C13   A    
C24   O8    A    
C96   C97   A    
C61   C66   A    
C23   C39   S    
C72   H29   S    
C28   C30   A    
C1    O1    A    
C54   O10   D    
C80   H36   S    
C75   H31   S    
C77   H33   S    
C61   C62   A    
C8    C18   A    
C99   C104  A    
C89   H43   S    
C7    C9    A    
C40   C44   A    
O4    Zn1   S    
C8    C10   A    
C105  H57   S    
C68   C69   A    
C71   C72   A    
C93   C94   A    
C97   H50   S    
C84   C85   A    
C33   C38   A    
C7    C79   S    
C2    O4    A    
C2    C9    S    
C95   H48   S    
C106  H58   S    
C65   H23   S    
C25   C33   A    
