data_mof_unit_60774.cif
_audit_creation_date              2012-10-26T17:22:13-0400
_audit_creation_method            fapswitch 2.2
_symmetry_space_group_name_H-M    P1
_symmetry_Int_Tables_number       1
_space_group_crystal_system       triclinic
_cell_length_a                    21.786374
_cell_length_b                    21.786374
_cell_length_c                    18.325832
_cell_angle_alpha                 89.999959
_cell_angle_beta                  89.999955
_cell_angle_gamma                 90.000021
_cell_volume                      8698.28454269

loop_
_atom_site_label
_atom_site_type_symbol
_atom_type_description
_atom_site_fract_x
_atom_site_fract_y
_atom_site_fract_z
_atom_type_partial_charge
C1    C     C_R   1.000000 0.381456 0.500000 0.642015
C2    C     C_R   0.500000 0.000000 0.360338 0.633799
C3    C     C_R   1.000000 0.500000 0.639662 0.633799
C4    C     C_R   0.500000 1.000000 0.639662 0.633799
C5    C     C_R   0.500000 0.000000 0.860338 0.633799
C6    C     C_R   1.000000 0.500000 0.860338 0.633799
C7    C     C_R   0.500000 1.000000 0.139662 0.633799
C8    C     C_R   0.000000 0.500000 0.139662 0.633799
C9    C     C_1   1.000000 0.500000 0.282690 0.102528
C10   C     C_1   0.500000 0.000000 0.282690 0.102528
C11   C     C_1   1.000000 0.500000 0.717310 0.102527
C12   C     C_R   0.381456 1.000000 0.500000 0.642015
C13   C     C_1   0.500000 1.000000 0.717310 0.102528
C14   C     C_1   0.500000 1.000000 0.782690 0.102528
C15   C     C_1   1.000000 0.500000 0.782690 0.102528
C16   C     C_1   0.500000 0.000000 0.217310 0.102528
C17   C     C_1   0.000000 0.500000 0.217310 0.102528
C18   C     C_R   0.017755 0.282954 0.563679 0.195071
C19   C     C_R   0.282954 0.982245 0.563679 0.195072
C20   C     C_R   0.982245 0.717046 0.563679 0.195071
C21   C     C_R   0.717046 0.017755 0.563679 0.195071
C22   C     C_R   0.017755 0.717046 0.436321 0.195072
C23   C     C_R   0.000000 0.618544 0.500000 0.642015
C24   C     C_R   0.282954 0.017755 0.436321 0.195072
C25   C     C_R   0.982245 0.282954 0.436321 0.195072
C26   C     C_R   0.717046 0.982245 0.436321 0.195071
C27   C     C_R   0.517755 0.782954 0.063679 0.195071
C28   C     C_R   0.782954 0.482245 0.063679 0.195072
C29   C     C_R   0.482245 0.217046 0.063679 0.195071
C30   C     C_R   0.217046 0.517755 0.063679 0.195072
C31   C     C_R   0.517755 0.217046 0.936321 0.195072
C32   C     C_R   0.782954 0.517755 0.936321 0.195071
C33   C     C_R   0.482245 0.782954 0.936321 0.195071
C34   C     C_R   0.618544 1.000000 0.500000 0.642015
C35   C     C_R   0.217046 0.482246 0.936321 0.195071
C36   C     C_R   0.022171 0.218868 0.561385 0.208968
C37   C     C_R   0.218868 0.977828 0.561385 0.208968
C38   C     C_R   0.977828 0.781131 0.561385 0.208968
C39   C     C_R   0.781131 0.022171 0.561385 0.208968
C40   C     C_R   0.022172 0.781132 0.438615 0.208968
C41   C     C_R   0.218868 0.022171 0.438615 0.208968
C42   C     C_R   0.977828 0.218868 0.438615 0.208968
C43   C     C_R   0.781131 0.977829 0.438615 0.208968
C44   C     C_R   0.522172 0.718868 0.061385 0.208968
C45   C     C_R   0.500000 0.881456 1.000000 0.642015
C46   C     C_R   0.718868 0.477828 0.061385 0.208968
C47   C     C_R   0.477828 0.281131 0.061385 0.208968
C48   C     C_R   0.281131 0.522171 0.061385 0.208968
C49   C     C_R   0.522172 0.281131 0.938615 0.208968
C50   C     C_R   0.718869 0.522171 0.938615 0.208967
C51   C     C_R   0.477828 0.718869 0.938615 0.208969
C52   C     C_R   0.281131 0.477829 0.938615 0.208967
C53   C     C_R   1.000000 0.186645 0.500000 -0.079137
C54   C     C_R   0.186645 1.000000 0.500000 -0.079137
C55   C     C_R   0.000000 0.813355 0.500000 -0.079137
C56   C     C_R   0.881456 0.500000 1.000000 0.642015
C57   C     C_R   0.813355 1.000000 0.500000 -0.079138
C58   C     C_R   0.500000 0.686645 1.000000 -0.079137
C59   C     C_R   0.686645 0.500000 1.000000 -0.079137
C60   C     C_R   0.500000 0.313355 0.000000 -0.079137
C61   C     C_R   0.313355 0.500000 0.000000 -0.079137
C62   C     C_R   0.880678 1.000000 0.500000 0.548129
C63   C     C_R   1.000000 0.119322 0.500000 0.548129
C64   C     C_R   0.119322 1.000000 0.500000 0.548130
C65   C     C_R   0.000000 0.880678 0.500000 0.548130
C66   C     C_R   0.380678 0.500000 0.000000 0.548129
C67   C     C_R   0.500000 0.118544 0.000000 0.642015
C68   C     C_R   0.500000 0.619322 1.000000 0.548129
C69   C     C_R   0.619322 0.500000 1.000000 0.548129
C70   C     C_R   0.500000 0.380678 0.000000 0.548130
C71   C     C_R   1.000000 0.314811 0.500000 -0.085956
C72   C     C_R   0.314811 1.000000 0.500000 -0.085956
C73   C     C_R   1.000000 0.685189 0.500000 -0.085956
C74   C     C_R   0.685189 1.000000 0.500000 -0.085956
C75   C     C_R   0.500000 0.814811 1.000000 -0.085956
C76   C     C_R   0.814811 0.500000 1.000000 -0.085956
C77   C     C_R   0.500000 0.185189 0.000000 -0.085956
C78   C     C_R   0.118544 0.500000 0.000000 0.642015
C79   C     C_R   0.185189 0.500000 0.000000 -0.085956
C80   C     C_3   0.109644 0.180193 0.610018 -0.025076
C81   C     C_3   0.180192 0.890356 0.610018 -0.025077
C82   C     C_3   0.890356 0.819807 0.610018 -0.025077
C83   C     C_3   0.819808 0.109644 0.610018 -0.025076
C84   C     C_3   0.109644 0.819808 0.389982 -0.025077
C85   C     C_3   0.180193 0.109644 0.389982 -0.025077
C86   C     C_3   0.890356 0.180192 0.389982 -0.025077
C87   C     C_3   0.819807 0.890356 0.389982 -0.025077
C88   C     C_3   0.609644 0.680193 0.110018 -0.025077
C89   C     C_R   0.000000 0.500000 0.360338 0.633799
C90   C     C_3   0.680192 0.390356 0.110018 -0.025077
C91   C     C_3   0.390356 0.319807 0.110018 -0.025077
C92   C     C_3   0.319807 0.609644 0.110018 -0.025077
C93   C     C_3   0.609644 0.319808 0.889983 -0.025077
C94   C     C_3   0.680193 0.609644 0.889982 -0.025077
C95   C     C_3   0.390356 0.680192 0.889982 -0.025077
C96   C     C_3   0.319807 0.390356 0.889981 -0.025075
Cu1   Cu    Cu3+1 0.938190 0.500000 0.500000 1.162987
Cu2   Cu    Cu3+1 0.000000 0.000000 0.427470 1.096675
Cu3   Cu    Cu3+1 0.500000 0.500000 0.072530 1.096676
Cu4   Cu    Cu3+1 0.500000 0.500000 0.927470 1.096675
Cu5   Cu    Cu3+1 0.500000 0.061810 0.500000 1.162987
Cu6   Cu    Cu3+1 0.061810 0.500000 0.500000 1.162985
Cu7   Cu    Cu3+1 0.500000 0.938190 0.500000 1.162987
Cu8   Cu    Cu3+1 0.438190 0.000000 0.000000 1.162987
Cu9   Cu    Cu3+1 0.000000 0.561810 0.000000 1.162986
Cu10  Cu    Cu3+1 0.561810 0.000000 0.000000 1.162986
Cu11  Cu    Cu3+1 0.000000 0.438190 0.000000 1.162986
Cu12  Cu    Cu3+1 0.000000 0.000000 0.572530 1.096675
H1    H     H_    0.050349 0.302231 0.760179 0.378874
H2    H     H_    0.802231 0.449650 0.260179 0.378874
H3    H     H_    0.449651 0.197768 0.260179 0.378875
H4    H     H_    0.197768 0.550349 0.260179 0.378874
H5    H     H_    0.550350 0.197769 0.739822 0.378874
H6    H     H_    0.802232 0.550349 0.739821 0.378874
H7    H     H_    0.449650 0.802232 0.739822 0.378874
H8    H     H_    0.197768 0.449658 0.739820 0.378875
H9    H     H_    0.133242 0.225358 0.605404 0.150733
H10   H     H_    0.119569 0.151475 0.561265 0.073779
H11   H     H_    0.128993 0.156176 0.658171 0.178207
H12   H     H_    0.302231 0.949650 0.760179 0.378874
H13   H     H_    0.225357 0.866758 0.605404 0.150731
H14   H     H_    0.151475 0.880431 0.561265 0.073779
H15   H     H_    0.156176 0.871006 0.658171 0.178207
H16   H     H_    0.866758 0.774642 0.605404 0.150732
H17   H     H_    0.880431 0.848525 0.561265 0.073779
H18   H     H_    0.871006 0.843824 0.658171 0.178207
H19   H     H_    0.774643 0.133242 0.605404 0.150731
H20   H     H_    0.848525 0.119569 0.561266 0.073780
H21   H     H_    0.843824 0.128993 0.658171 0.178207
H22   H     H_    0.133242 0.774643 0.394596 0.150731
H23   H     H_    0.949651 0.697768 0.760179 0.378874
H24   H     H_    0.119569 0.848525 0.438735 0.073779
H25   H     H_    0.128994 0.843824 0.341829 0.178207
H26   H     H_    0.225358 0.133242 0.394596 0.150732
H27   H     H_    0.151475 0.119569 0.438734 0.073780
H28   H     H_    0.156176 0.128994 0.341829 0.178207
H29   H     H_    0.866758 0.225357 0.394596 0.150731
H30   H     H_    0.880431 0.151474 0.438735 0.073779
H31   H     H_    0.871007 0.156176 0.341829 0.178207
H32   H     H_    0.774642 0.866758 0.394596 0.150733
H33   H     H_    0.848525 0.880431 0.438734 0.073779
H34   H     H_    0.697768 0.050350 0.760179 0.378874
H35   H     H_    0.843824 0.871007 0.341829 0.178207
H36   H     H_    0.633242 0.725358 0.105404 0.150732
H37   H     H_    0.619569 0.651475 0.061265 0.073779
H38   H     H_    0.628994 0.656176 0.158171 0.178207
H39   H     H_    0.725357 0.366758 0.105404 0.150732
H40   H     H_    0.651475 0.380431 0.061266 0.073780
H41   H     H_    0.656176 0.371006 0.158171 0.178207
H42   H     H_    0.366758 0.274642 0.105404 0.150732
H43   H     H_    0.380430 0.348525 0.061265 0.073779
H44   H     H_    0.371006 0.343824 0.158170 0.178207
H45   H     H_    0.050350 0.697769 0.239821 0.378874
H46   H     H_    0.274643 0.633242 0.105404 0.150731
H47   H     H_    0.348525 0.619569 0.061266 0.073780
H48   H     H_    0.343824 0.628993 0.158171 0.178207
H49   H     H_    0.633242 0.274643 0.894597 0.150730
H50   H     H_    0.619569 0.348526 0.938735 0.073780
H51   H     H_    0.628994 0.343824 0.841829 0.178207
H52   H     H_    0.725358 0.633242 0.894595 0.150732
H53   H     H_    0.651475 0.619569 0.938734 0.073779
H54   H     H_    0.656176 0.628993 0.841829 0.178207
H55   H     H_    0.366758 0.725357 0.894597 0.150731
H56   H     H_    0.302232 0.050349 0.239821 0.378874
H57   H     H_    0.380431 0.651474 0.938735 0.073780
H58   H     H_    0.371006 0.656176 0.841829 0.178207
H59   H     H_    0.274642 0.366759 0.894595 0.150733
H60   H     H_    0.348524 0.380431 0.938734 0.073779
H61   H     H_    0.343824 0.371007 0.841828 0.178207
H62   H     H_    0.949650 0.302232 0.239821 0.378875
H63   H     H_    0.697768 0.949654 0.239821 0.378874
H64   H     H_    0.550351 0.802231 0.260178 0.378875
O1    O     O_R   0.947800 0.409840 0.500040 -0.478954
O2    O     O_R   0.909840 0.552200 0.000040 -0.478954
O3    O     O_3   0.812625 0.045889 0.620521 -0.471595
O4    O     O_3   0.045889 0.812626 0.379479 -0.471595
O5    O     O_3   0.187375 0.045889 0.379479 -0.471595
O6    O     O_3   0.954111 0.187375 0.379479 -0.471595
O7    O     O_3   0.812625 0.954111 0.379479 -0.471595
O8    O     O_3   0.545889 0.687374 0.120521 -0.471595
O9    O     O_3   0.687374 0.454111 0.120521 -0.471595
O10   O     O_3   0.454111 0.312625 0.120521 -0.471595
O11   O     O_3   0.312625 0.545888 0.120522 -0.471595
O12   O     O_3   0.545889 0.312626 0.879479 -0.471595
O13   O     O_R   0.552200 0.090160 0.000040 -0.478954
O14   O     O_3   0.687375 0.545889 0.879479 -0.471595
O15   O     O_3   0.454111 0.687375 0.879479 -0.471595
O16   O     O_3   0.312625 0.454112 0.879478 -0.471595
O17   O     O_R   0.090160 0.447800 0.000040 -0.478955
O18   O     O_R   0.447800 0.090160 0.999960 -0.478954
O19   O     O_R   0.909840 0.447800 0.999960 -0.478954
O20   O     O_R   0.552200 0.909840 0.999960 -0.478954
O21   O     O_R   0.090160 0.552200 0.999960 -0.478954
O22   O     O_R   0.947800 0.500020 0.394230 -0.484393
O23   O     O_R   0.500020 0.052200 0.394230 -0.484393
O24   O     O_R   0.052200 0.499980 0.394230 -0.484393
O25   O     O_R   0.409840 0.052200 0.500040 -0.478954
O26   O     O_R   0.499980 0.947800 0.394230 -0.484393
O27   O     O_R   0.947800 0.499980 0.605770 -0.484393
O28   O     O_R   0.500020 0.947800 0.605770 -0.484393
O29   O     O_R   0.052200 0.500020 0.605770 -0.484395
O30   O     O_R   0.499980 0.052200 0.605770 -0.484393
O31   O     O_R   0.447800 0.000020 0.894230 -0.484393
O32   O     O_R   0.000020 0.552200 0.894230 -0.484393
O33   O     O_R   0.552200 0.999980 0.894230 -0.484393
O34   O     O_R   0.999980 0.447800 0.894230 -0.484393
O35   O     O_R   0.447800 0.999980 0.105770 -0.484393
O36   O     O_R   0.052200 0.590160 0.500040 -0.478955
O37   O     O_R   0.000020 0.447800 0.105770 -0.484393
O38   O     O_R   0.552200 0.000020 0.105770 -0.484394
O39   O     O_R   0.999980 0.552200 0.105770 -0.484393
O40   O     O_R   0.909720 0.000020 0.561240 -0.474712
O41   O     O_R   0.000020 0.090280 0.561240 -0.474712
O42   O     O_R   0.090280 0.999980 0.561240 -0.474712
O43   O     O_R   0.999980 0.909720 0.561240 -0.474712
O44   O     O_R   0.909720 0.999980 0.438760 -0.474712
O45   O     O_R   0.000020 0.909720 0.438760 -0.474712
O46   O     O_R   0.090280 0.000020 0.438760 -0.474712
O47   O     O_R   0.590160 0.947800 0.500040 -0.478954
O48   O     O_R   0.999980 0.090280 0.438760 -0.474712
O49   O     O_R   0.409720 0.500020 0.061240 -0.474712
O50   O     O_R   0.500020 0.590280 0.061240 -0.474712
O51   O     O_R   0.590280 0.499980 0.061240 -0.474712
O52   O     O_R   0.499980 0.409720 0.061240 -0.474712
O53   O     O_R   0.409720 0.499980 0.938760 -0.474712
O54   O     O_R   0.500020 0.409720 0.938760 -0.474712
O55   O     O_R   0.590280 0.500020 0.938760 -0.474712
O56   O     O_R   0.499980 0.590280 0.938760 -0.474712
O57   O     O_2   0.088865 0.361532 0.638429 -0.285224
O58   O     O_R   0.947800 0.590160 0.499960 -0.478954
O59   O     O_2   0.978269 0.363746 0.662776 -0.299954
O60   O     O_3   0.041836 0.275084 0.718008 -0.444775
O61   O     O_2   0.361532 0.911134 0.638429 -0.285227
O62   O     O_2   0.363746 0.021730 0.662776 -0.299953
O63   O     O_3   0.275084 0.958163 0.718008 -0.444775
O64   O     O_2   0.911135 0.638468 0.638429 -0.285226
O65   O     O_2   0.021730 0.636254 0.662776 -0.299954
O66   O     O_3   0.958163 0.724916 0.718008 -0.444775
O67   O     O_2   0.638468 0.088865 0.638429 -0.285227
O68   O     O_2   0.636254 0.978269 0.662776 -0.299953
O69   O     O_R   0.409840 0.947800 0.499960 -0.478954
O70   O     O_3   0.724916 0.041836 0.718008 -0.444775
O71   O     O_2   0.088866 0.638468 0.361571 -0.285227
O72   O     O_2   0.978270 0.636254 0.337224 -0.299953
O73   O     O_3   0.041837 0.724916 0.281992 -0.444775
O74   O     O_2   0.361532 0.088865 0.361571 -0.285226
O75   O     O_2   0.363746 0.978270 0.337224 -0.299953
O76   O     O_3   0.275084 0.041837 0.281992 -0.444775
O77   O     O_2   0.911135 0.361532 0.361571 -0.285227
O78   O     O_2   0.021730 0.363746 0.337224 -0.299953
O79   O     O_3   0.958163 0.275084 0.281992 -0.444775
O80   O     O_R   0.052200 0.409840 0.499960 -0.478954
O81   O     O_2   0.638468 0.911135 0.361571 -0.285225
O82   O     O_2   0.636254 0.021731 0.337224 -0.299956
O83   O     O_3   0.724916 0.958164 0.281992 -0.444775
O84   O     O_2   0.588865 0.861532 0.138429 -0.285226
O85   O     O_2   0.478270 0.863746 0.162776 -0.299953
O86   O     O_3   0.541837 0.775084 0.218008 -0.444776
O87   O     O_2   0.861532 0.411135 0.138429 -0.285227
O88   O     O_2   0.863746 0.521730 0.162776 -0.299953
O89   O     O_3   0.775084 0.458163 0.218008 -0.444775
O90   O     O_2   0.411134 0.138468 0.138429 -0.285226
O91   O     O_R   0.590160 0.052200 0.499960 -0.478954
O92   O     O_2   0.521730 0.136254 0.162776 -0.299955
O93   O     O_3   0.458163 0.224916 0.218008 -0.444775
O94   O     O_2   0.138468 0.588865 0.138429 -0.285227
O95   O     O_2   0.136254 0.478269 0.162776 -0.299953
O96   O     O_3   0.224916 0.541836 0.218008 -0.444775
O97   O     O_2   0.588866 0.138468 0.861571 -0.285227
O98   O     O_2   0.478270 0.136254 0.837224 -0.299954
O99   O     O_3   0.541837 0.224916 0.781992 -0.444775
O100  O     O_2   0.861532 0.588865 0.861571 -0.285226
O101  O     O_2   0.863746 0.478269 0.837224 -0.299954
O102  O     O_R   0.447800 0.909840 0.000040 -0.478954
O103  O     O_3   0.775084 0.541837 0.781992 -0.444775
O104  O     O_2   0.411135 0.861532 0.861571 -0.285227
O105  O     O_2   0.521730 0.863746 0.837224 -0.299953
O106  O     O_3   0.458163 0.775084 0.781992 -0.444775
O107  O     O_2   0.138468 0.411135 0.861570 -0.285222
O108  O     O_2   0.136254 0.521731 0.837224 -0.299958
O109  O     O_3   0.224916 0.458164 0.781992 -0.444776
O110  O     O_3   0.045889 0.187375 0.620521 -0.471595
O111  O     O_3   0.187374 0.954111 0.620521 -0.471595
O112  O     O_3   0.954111 0.812625 0.620521 -0.471595
S1    S     S_3+6 0.032164 0.322892 0.646855 0.042704
S2    S     S_3+6 0.822892 0.467836 0.146855 0.042703
S3    S     S_3+6 0.467836 0.177107 0.146855 0.042703
S4    S     S_3+6 0.177107 0.532164 0.146855 0.042703
S5    S     S_3+6 0.532165 0.177108 0.853145 0.042703
S6    S     S_3+6 0.822893 0.532164 0.853145 0.042703
S7    S     S_3+6 0.467836 0.822893 0.853145 0.042703
S8    S     S_3+6 0.177108 0.467837 0.853145 0.042702
S9    S     S_3+6 0.322892 0.967836 0.646855 0.042703
S10   S     S_3+6 0.967836 0.677107 0.646855 0.042703
S11   S     S_3+6 0.677107 0.032164 0.646855 0.042703
S12   S     S_3+6 0.032164 0.677108 0.353145 0.042703
S13   S     S_3+6 0.322892 0.032164 0.353145 0.042703
S14   S     S_3+6 0.967836 0.322893 0.353145 0.042703
S15   S     S_3+6 0.677108 0.967836 0.353145 0.042702
S16   S     S_3+6 0.532164 0.822892 0.146855 0.042703

loop_
_geom_bond_atom_site_label_1
_geom_bond_atom_site_label_2
_ccdc_geom_bond_type
Cu1   O22   S    
C70   O54   A    
Cu3   O49   S    
C80   O110  S    
C56   C76   S    
Cu2   O48   S    
C46   C59   A    
Cu4   O55   S    
C53   C63   S    
C20   S10   S    
Cu10  O33   S    
C96   O16   S    
C20   C73   A    
C21   S11   S    
O82   S15   D    
Cu10  O20   S    
C87   H32   S    
C22   S12   S    
C44   O8    S    
O98   S5    D    
Cu8   Cu10  S    
C19   C72   A    
C1    O80   A    
C95   O15   S    
O70   S11   S    
C18   S1    S    
C37   O111  S    
Cu9   O21   S    
O106  S7    S    
Cu9   Cu11  S    
C1    O1    A    
C1    C71   S    
C49   C60   A    
C54   C64   S    
C34   O91   A    
C81   H15   S    
Cu6   O80   S    
C50   C59   A    
C6    O34   A    
C46   O9    S    
C30   C48   A    
C35   S8    S    
Cu6   O29   S    
C23   C73   S    
O84   S16   D    
C83   O3    S    
C52   C61   A    
C90   H41   S    
C42   C53   A    
H63   O83   S    
C91   H44   S    
C23   O36   A    
C93   O12   S    
Cu5   O25   S    
O67   S11   D    
C61   C66   S    
O73   S12   S    
C45   O102  A    
Cu10  O38   S    
C95   H57   S    
C86   O6    S    
H23   O66   S    
Cu2   Cu12  S    
C66   O53   A    
Cu4   O56   S    
C2    O23   A    
Cu8   O35   S    
C35   C79   A    
C4    C13   S    
C93   H51   S    
Cu1   O27   S    
C88   H36   S    
C82   H18   S    
Cu11  O34   S    
C90   H40   S    
C36   C53   A    
C45   O20   A    
C86   H29   S    
O100  S6    D    
C6    C15   S    
Cu3   O52   S    
O104  S7    D    
C11   C15   T    
C27   C44   A    
C33   C75   A    
C56   O2    A    
C38   C55   A    
Cu1   O58   S    
O86   S16   S    
H2    O89   S    
C67   C77   S    
C25   S14   S    
H62   O79   S    
C3    C11   S    
C3    O27   A    
C12   O25   A    
C96   H60   S    
C31   C77   A    
C25   C71   A    
C45   C75   S    
C8    O39   A    
C19   C37   A    
C83   H20   S    
C26   C43   A    
Cu1   Cu6   S    
C50   O14   S    
C38   O112  S    
C85   H26   S    
C28   S2    S    
O77   S14   D    
C12   C72   S    
C56   O19   A    
C82   O112  S    
Cu5   Cu7   S    
C2    O26   A    
C13   C14   T    
O96   S4    S    
C30   S4    S    
C24   C41   A    
O92   S3    D    
C9    C17   T    
H8    O109  S    
Cu7   O69   S    
C78   O17   A    
C31   C49   A    
C66   O49   A    
C27   C75   A    
Cu12  O43   S    
C69   O55   A    
C82   H16   S    
C55   C65   S    
C5    O33   A    
C32   C76   A    
H6    O103  S    
C88   O8    S    
C80   H10   S    
H1    O60   S    
C85   H27   S    
Cu3   O51   S    
C84   H25   S    
C67   O18   A    
O79   S14   S    
C47   O10   S    
C23   O58   A    
Cu8   O31   S    
C94   O14   S    
C57   C62   S    
O64   S10   D    
H12   O63   S    
H3    O93   S    
C7    O35   A    
C64   O42   A    
C44   C58   A    
C40   O4    S    
C85   O5    S    
C43   C57   A    
C78   C79   S    
O72   S12   D    
Cu9   O32   S    
O109  S8    S    
O74   S13   D    
O78   S14   D    
O71   S12   D    
H34   O70   S    
C89   O24   A    
C87   O7    S    
C21   C74   A    
C84   H24   S    
C87   H33   S    
Cu9   O2    S    
C81   H13   S    
C69   O51   A    
Cu7   O26   S    
C63   O48   A    
O87   S2    D    
Cu4   O54   S    
O63   S9    S    
C82   H17   S    
C6    O32   A    
C90   H39   S    
C95   H55   S    
C29   C47   A    
C49   O12   S    
C20   C38   A    
O85   S16   D    
C70   O52   A    
Cu3   Cu4   S    
C21   C39   A    
C90   O9    S    
C60   C70   S    
C88   H37   S    
C40   C55   A    
C22   C40   A    
Cu11  O17   S    
C31   S5    S    
C96   H59   S    
C92   H48   S    
C51   C58   A    
O108  S8    D    
C63   O41   A    
C93   H49   S    
C94   H53   S    
C32   C50   A    
C5    C14   S    
C86   H31   S    
C34   C74   S    
Cu11  O37   S    
C30   C79   A    
H7    O106  S    
C58   C68   S    
C7    C16   S    
O75   S13   D    
O95   S4    D    
C12   O69   A    
C67   O13   A    
C96   H61   S    
C59   C69   S    
C39   O3    S    
Cu12  O40   S    
C3    O29   A    
H45   O73   S    
O76   S13   S    
C91   O10   S    
O101  S6    D    
C37   C54   A    
C88   H38   S    
H64   O86   S    
C8    O37   A    
C2    C10   S    
C95   H58   S    
Cu8   O102  S    
C47   C60   A    
C7    O38   A    
C24   C72   A    
O81   S15   D    
O89   S2    S    
C33   S7    S    
C41   O5    S    
C18   C71   A    
H4    O96   S    
C80   H9    S    
C94   H52   S    
O93   S3    S    
C19   S9    S    
Cu5   O30   S    
C34   O47   A    
O62   S9    D    
C62   O44   A    
C27   S16   S    
C68   O50   A    
H5    O99   S    
Cu10  O13   S    
C83   H19   S    
Cu2   O44   S    
C92   O11   S    
Cu6   O24   S    
C25   C42   A    
C5    O31   A    
C48   O11   S    
C68   O56   A    
Cu6   O36   S    
C83   H21   S    
O105  S7    D    
C9    C89   S    
C33   C51   A    
C93   H50   S    
C8    C17   S    
Cu9   O39   S    
O60   S1    S    
C64   O46   A    
C81   H14   S    
C28   C46   A    
C87   H35   S    
Cu2   O46   S    
C91   H42   S    
Cu12  O41   S    
C36   O110  S    
O103  S6    S    
C10   C16   T    
C4    O30   A    
C91   H43   S    
C24   S13   S    
O66   S10   S    
O97   S5    D    
C65   O45   A    
C18   C36   A    
C42   O6    S    
C65   O43   A    
C89   O22   A    
O68   S11   D    
Cu8   O18   S    
C84   H22   S    
C26   C74   A    
O61   S9    D    
C26   S15   S    
O90   S3    D    
C92   H47   S    
Cu7   O28   S    
C43   O7    S    
C28   C76   A    
Cu4   O53   S    
H56   O76   S    
Cu12  O42   S    
C41   C54   A    
C80   H11   S    
Cu1   O1    S    
C51   O15   S    
O65   S10   D    
C86   H30   S    
C85   H28   S    
O57   S1    D    
Cu11  O19   S    
Cu5   O91   S    
O94   S4    D    
C4    O28   A    
C29   C77   A    
C29   S3    S    
O107  S8    D    
Cu2   O45   S    
C48   C61   A    
C35   C52   A    
C62   O40   A    
O59   S1    D    
C92   H46   S    
Cu3   O50   S    
C52   O16   S    
C22   C73   A    
C81   O111  S    
C84   O4    S    
O83   S15   S    
O99   S5    S    
C78   O21   A    
O88   S2    D    
C94   H54   S    
Cu5   O23   S    
C32   S6    S    
Cu7   O47   S    
C39   C57   A    
