data_mof_unit_39217.cif
_audit_creation_date              2012-12-10T20:44:44-0500
_audit_creation_method            fapswitch 2.2
_symmetry_space_group_name_H-M    P1
_symmetry_Int_Tables_number       1
_space_group_crystal_system       triclinic
_cell_length_a                    9.87205
_cell_length_b                    10.697036
_cell_length_c                    16.867253
_cell_angle_alpha                 89.003328
_cell_angle_beta                  94.367701
_cell_angle_gamma                 89.182252
_cell_volume                      1775.55121893

loop_
_atom_site_label
_atom_site_type_symbol
_atom_type_description
_atom_site_fract_x
_atom_site_fract_y
_atom_site_fract_z
_atom_type_partial_charge
C1    C     C_R   0.500141 0.259787 0.497084 0.874342
C2    C     C_R   0.654884 0.468906 0.781906 -0.225216
C3    C     C_R   0.584145 0.423653 0.144334 -0.167416
C4    C     C_R   0.591666 0.449094 0.224492 -0.234089
C5    C     C_R   0.457367 0.427597 0.099898 0.331415
C6    C     C_R   0.473223 0.477509 0.261711 -0.027896
C7    C     C_R   0.346478 0.476666 0.218220 -0.217083
C8    C     C_R   0.338976 0.451678 0.137567 -0.198768
C9    C     C_R   0.617192 0.061748 0.473760 0.136241
C10   C     C_R   0.497477 0.128614 0.482849 -0.102301
C11   C     C_R   0.372428 0.066939 0.474737 -0.222811
C12   C     C_R   0.517594 0.495824 0.653258 0.866788
C13   C     C_R   0.371298 0.937587 0.474387 -0.226600
C14   C     C_R   0.495219 0.871351 0.482031 -0.108045
C15   C     C_R   0.615900 0.933999 0.473516 0.138686
C16   C     C_3   0.749618 0.921502 0.520780 -0.464143
C17   C     C_3   0.751249 0.062753 0.521088 -0.511782
C18   C     C_R   0.080266 0.457271 0.564845 0.174627
C19   C     C_R   0.064274 0.562114 0.441917 0.087418
C20   C     C_R   0.918784 0.561797 0.441726 0.089777
C21   C     C_R   0.938266 0.458424 0.565231 0.166826
C22   C     C_3   0.939605 0.332215 0.603569 -0.512412
C23   C     C_R   0.498649 0.740005 0.496659 0.885616
C24   C     C_3   0.093423 0.330539 0.602514 -0.487844
C25   C     C_R   0.482553 0.498017 0.346808 0.867939
C26   C     C_R   0.527623 0.478010 0.739021 -0.027518
C27   C     C_R   0.408635 0.461836 0.777912 -0.236374
C28   C     C_R   0.416253 0.437946 0.858761 -0.164855
C29   C     C_R   0.543824 0.431337 0.902400 0.330497
C30   C     C_R   0.662500 0.445699 0.863391 -0.197121
H1    H     H_    0.690395 0.445620 0.257207 0.161966
H2    H     H_    0.274835 0.890571 0.474522 0.170250
H3    H     H_    0.741492 0.878723 0.580783 0.207348
H4    H     H_    0.829574 0.879905 0.486007 0.197647
H5    H     H_    0.743981 0.101288 0.581463 0.206913
H6    H     H_    0.832094 0.101367 0.485803 0.200206
H7    H     H_    0.903801 0.334411 0.664435 0.199182
H8    H     H_    0.890210 0.263514 0.563666 0.214409
H9    H     H_    0.146690 0.332070 0.662919 0.197406
H10   H     H_    0.677748 0.403580 0.117145 0.146067
H11   H     H_    0.132251 0.259369 0.562304 0.209574
H12   H     H_    0.760827 0.441597 0.896626 0.136222
H13   H     H_    0.748097 0.479945 0.752719 0.157113
H14   H     H_    0.253582 0.495779 0.246195 0.158179
H15   H     H_    0.322030 0.427384 0.886944 0.146660
H16   H     H_    0.241189 0.454791 0.103712 0.135556
H17   H     H_    0.309217 0.467346 0.746038 0.159131
H18   H     H_    0.276357 0.117086 0.474829 0.166340
N1    N     N_2   0.556519 0.422490 0.986057 -0.209218
N2    N     N_2   0.445593 0.419924 0.016457 -0.210142
N3    N     N_R   0.142860 0.499130 0.500540 -0.112088
N4    N     N_R   0.857210 0.499170 0.500530 -0.111231
O1    O     O_R   0.614690 0.316790 0.499990 -0.616962
O2    O     O_R   0.385350 0.316760 0.500000 -0.625552
O3    O     O_R   0.627460 0.498860 0.616130 -0.621059
O4    O     O_R   0.398120 0.498820 0.616130 -0.618835
O5    O     O_R   0.614650 0.683240 0.500000 -0.604178
O6    O     O_R   0.385310 0.683210 0.500010 -0.608840
O7    O     O_R   0.601880 0.501180 0.383870 -0.601158
O8    O     O_R   0.372540 0.501140 0.383870 -0.600037
Zn1   Zn    Zn3+2 0.653130 0.500020 0.499990 0.958760
Zn2   Zn    Zn3+2 0.346870 0.499980 0.500010 0.959882
N5    N     N_3   0.129553 0.629320 0.381890 -0.394122
H19   H     H_    0.102905 0.723923 0.384847 0.154250
H20   H     H_    0.093787 0.596592 0.326312 0.152049
N6    N     N_3   0.836108 0.627580 0.380886 -0.389182
H21   H     H_    0.862044 0.721898 0.381791 0.153346
H22   H     H_    0.856799 0.591705 0.325803 0.156250

loop_
_geom_bond_atom_site_label_1
_geom_bond_atom_site_label_2
_ccdc_geom_bond_type
C14   C23   S    
O6    Zn2   S    
C23   O6    A    
N6    H22   S    
C1    O2    A    
N5    H20   S    
O5    Zn1   S    
C29   C30   A    
C17   H6    S    
C16   H3    S    
C5    C8    A    
C18   C21   A    
C25   O7    A    
C9    C10   A    
C13   H2    S    
C19   C20   A    
C2    H13   S    
C2    C30   A    
C23   O5    A    
N6    H21   S    
C11   H18   S    
C7    C8    A    
C20   N4    A    
C29   N1    S    
C13   C14   A    
O8    Zn2   S    
C24   H11   S    
C11   C13   A    
C26   C27   A    
C12   O4    A    
N3    Zn2   S    
C18   C24   S    
O3    Zn1   S    
C9    C17   S    
C28   C29   A    
C25   O8    A    
C12   C26   S    
C3    H10   S    
N1    N2    D    
C6    C7    A    
C22   C24   S    
N4    Zn1   S    
C9    C15   A    
C28   H15   S    
O4    Zn2   S    
C5    N2    S    
O7    Zn1   S    
C12   O3    A    
C10   C11   A    
C15   C16   S    
C6    C25   S    
C19   N3    A    
C4    H1    S    
C24   H9    S    
C17   H5    S    
C3    C4    A    
C2    C26   A    
C4    C6    A    
C27   H17   S    
C27   C28   A    
C18   N3    A    
C1    O1    A    
C14   C15   A    
C30   H12   S    
C20   N6    S    
O2    Zn2   S    
C8    H16   S    
C16   H4    S    
C21   C22   S    
C22   H7    S    
O1    Zn1   S    
C7    H14   S    
C21   N4    A    
C1    C10   S    
N5    H19   S    
C19   N5    S    
C16   C17   S    
C3    C5    A    
C22   H8    S    
