data_mof_unit_47711.cif
_audit_creation_date              2012-12-10T17:38:09-0500
_audit_creation_method            fapswitch 2.2
_symmetry_space_group_name_H-M    P1
_symmetry_Int_Tables_number       1
_space_group_crystal_system       triclinic
_cell_length_a                    11.955129
_cell_length_b                    12.894528
_cell_length_c                    19.144945
_cell_angle_alpha                 89.817387
_cell_angle_beta                  87.566572
_cell_angle_gamma                 94.259081
_cell_volume                      2940.43943898

loop_
_atom_site_label
_atom_site_type_symbol
_atom_type_description
_atom_site_fract_x
_atom_site_fract_y
_atom_site_fract_z
_atom_type_partial_charge
C1    C     C_R   0.523172 0.700819 0.498747 0.966771
C2    C     C_R   0.558550 0.133837 0.506447 -0.323287
C3    C     C_R   0.448760 0.972937 0.492182 0.108912
C4    C     C_R   0.552901 0.027420 0.501973 0.129956
C5    C     C_R   0.951920 0.406081 0.430830 0.437521
C6    C     C_R   0.047796 0.591553 0.570323 0.425178
C7    C     C_R   0.834452 0.415675 0.438936 -0.136802
C8    C     C_R   0.165002 0.581566 0.562634 -0.122987
C9    C     C_R   0.859511 0.538152 0.530134 0.031832
C10   C     C_R   0.140441 0.462490 0.469542 0.010622
C11   C     C_R   0.976754 0.532791 0.525469 -0.089532
C12   C     C_R   0.477069 0.299335 0.499914 0.878787
C13   C     C_R   0.022978 0.466869 0.474683 -0.080821
C14   C     C_R   0.501069 0.496684 0.634285 0.835330
C15   C     C_R   0.498703 0.502643 0.365708 0.913230
C16   C     C_R   0.441129 0.556630 0.749183 -0.191115
C17   C     C_R   0.552141 0.432731 0.252338 -0.240225
C18   C     C_R   0.445279 0.557032 0.820975 -0.169605
C19   C     C_R   0.541309 0.424336 0.181087 -0.189277
C20   C     C_R   0.511508 0.489282 0.854765 0.029724
C21   C     C_R   0.471409 0.487916 0.146656 0.061717
C22   C     C_R   0.577402 0.420727 0.816167 -0.029128
C23   C     C_R   0.462764 0.187479 0.497624 -0.166485
C24   C     C_R   0.407814 0.559415 0.184094 -0.072480
C25   C     C_R   0.572782 0.420021 0.742492 -0.087297
C26   C     C_R   0.421672 0.570437 0.256539 -0.083987
C27   C     C_R   0.504308 0.489417 0.709820 -0.091286
C28   C     C_R   0.493234 0.504869 0.290210 -0.034997
C29   C     C_R   0.478316 0.487471 0.070839 0.366856
C30   C     C_R   0.503368 0.488039 0.930631 0.354185
C31   C     C_3   0.928982 0.278686 0.341300 0.074099
C32   C     C_3   0.876327 0.182361 0.381400 -0.392457
C33   C     C_3   0.785880 0.124403 0.339556 -0.927270
C34   C     C_R   0.538890 0.812985 0.497676 -0.141815
C35   C     C_3   0.067355 0.734307 0.647373 0.052874
C36   C     C_3   0.120935 0.705766 0.715593 -0.316040
C37   C     C_3   0.209707 0.789853 0.736316 -0.956149
C38   C     C_2   0.649332 0.349677 0.852100 0.487201
C39   C     C_2   0.328039 0.622891 0.148081 0.384289
C40   C     C_2   0.636382 0.346510 0.699189 0.380400
C41   C     C_2   0.362200 0.650687 0.296138 0.384424
C42   C     C_3   0.235759 0.174297 0.399771 0.058808
C43   C     C_3   0.314572 0.241659 0.349602 -0.374927
C44   C     C_3   0.273226 0.238542 0.275317 -0.899414
C45   C     C_R   0.650597 0.975485 0.506807 -0.337453
C46   C     C_3   0.832472 0.857362 0.540201 0.085309
C47   C     C_3   0.919043 0.907439 0.486428 -0.372245
C48   C     C_3   0.007473 0.978819 0.521161 -0.948868
C49   C     C_R   0.352230 0.025538 0.483615 -0.305693
C50   C     C_R   0.645418 0.866361 0.505291 0.487785
C51   C     C_R   0.359517 0.133906 0.482798 0.508917
C52   C     C_R   0.442512 0.866484 0.490296 -0.278160
H1    H     H_    0.389355 0.610103 0.724105 0.154198
H2    H     H_    0.820839 0.588342 0.567779 0.187101
H3    H     H_    0.223617 0.621724 0.596371 0.144383
H4    H     H_    0.774399 0.371793 0.408117 0.146037
H5    H     H_    0.979996 0.250406 0.296441 0.165682
H6    H     H_    0.866457 0.325244 0.316707 0.135471
H7    H     H_    0.942983 0.129406 0.391824 0.221445
H8    H     H_    0.838351 0.204308 0.432641 0.224209
H9    H     H_    0.716446 0.175022 0.330815 0.261374
H10   H     H_    0.751092 0.054069 0.368889 0.272419
H11   H     H_    0.821878 0.099910 0.288314 0.270168
H12   H     H_    0.605607 0.381632 0.278223 0.148228
H13   H     H_    0.012813 0.798628 0.659212 0.159217
H14   H     H_    0.130382 0.766694 0.606975 0.118825
H15   H     H_    0.054541 0.695981 0.758027 0.242739
H16   H     H_    0.160366 0.630766 0.710262 0.222113
H17   H     H_    0.278673 0.798449 0.695470 0.259350
H18   H     H_    0.245554 0.767761 0.786339 0.271819
H19   H     H_    0.171804 0.865421 0.743302 0.275636
H20   H     H_    0.657015 0.271278 0.833057 0.089202
H21   H     H_    0.314302 0.701011 0.165592 0.059902
H22   H     H_    0.599050 0.310821 0.653588 0.073431
H23   H     H_    0.394233 0.609005 0.850523 0.161380
H24   H     H_    0.277102 0.666071 0.284147 0.052084
H25   H     H_    0.149512 0.199413 0.396141 0.209467
H26   H     H_    0.231606 0.091531 0.383037 0.122693
H27   H     H_    0.319496 0.323275 0.367733 0.241825
H28   H     H_    0.400303 0.213674 0.348978 0.201864
H29   H     H_    0.267346 0.157423 0.255720 0.263703
H30   H     H_    0.332983 0.286569 0.240363 0.276655
H31   H     H_    0.189621 0.270458 0.273917 0.271997
H32   H     H_    0.872910 0.795502 0.567940 0.180587
H33   H     H_    0.807749 0.912236 0.581936 0.129747
H34   H     H_    0.590378 0.369983 0.152313 0.166615
H35   H     H_    0.961025 0.845301 0.457673 0.228315
H36   H     H_    0.876868 0.953217 0.447519 0.231375
H37   H     H_    0.967268 0.042384 0.549377 0.277485
H38   H     H_    0.067697 0.014129 0.480560 0.266861
H39   H     H_    0.054238 0.934191 0.558426 0.256458
H40   H     H_    0.638835 0.174827 0.516413 0.188873
H41   H     H_    0.361421 0.825332 0.482816 0.192804
H42   H     H_    0.729673 0.021158 0.510715 0.151658
H43   H     H_    0.272178 0.982798 0.476070 0.145128
H44   H     H_    0.179151 0.413312 0.431406 0.181850
N1    N     N_R   0.484898 0.396909 0.966235 -0.148931
N2    N     N_R   0.496741 0.578467 0.035205 -0.138811
N3    N     N_R   0.473492 0.396548 0.035505 -0.161791
N4    N     N_R   0.508276 0.578816 0.966042 -0.155257
N5    N     N_R   0.207800 0.519350 0.512860 -0.129425
N6    N     N_R   0.792200 0.480650 0.487140 -0.129396
O1    O     O_R   0.421690 0.658830 0.503430 -0.623106
O2    O     O_3   0.998037 0.648984 0.623487 -0.656789
O3    O     O_2   0.702968 0.378989 0.902162 -0.543926
O4    O     O_2   0.274616 0.587429 0.099515 -0.540403
O5    O     O_2   0.732097 0.328329 0.712240 -0.558989
O6    O     O_2   0.409064 0.702475 0.341125 -0.570663
O7    O     O_3   0.266028 0.187500 0.470189 -0.626194
O8    O     O_3   0.740212 0.808981 0.505775 -0.629496
O9    O     O_R   0.578310 0.341170 0.496570 -0.643608
O10   O     O_R   0.609320 0.646410 0.495180 -0.563673
O11   O     O_R   0.390680 0.353590 0.504820 -0.570665
O12   O     O_R   0.406160 0.506220 0.605990 -0.619947
O13   O     O_R   0.593840 0.493780 0.394010 -0.623519
O14   O     O_R   0.593780 0.493810 0.597740 -0.617176
O15   O     O_R   0.406220 0.506190 0.402260 -0.618612
O16   O     O_3   0.002720 0.339748 0.383227 -0.677217
Zn1   Zn    Zn3+2 0.374720 0.508290 0.505510 0.974563
Zn2   Zn    Zn3+2 0.625280 0.491710 0.494490 0.975733

loop_
_geom_bond_atom_site_label_1
_geom_bond_atom_site_label_2
_ccdc_geom_bond_type
C39   O4    D    
C18   H23   S    
C41   O6    D    
C37   H17   S    
C35   C36   S    
C44   H31   S    
C3    C49   A    
C36   H15   S    
C20   C30   S    
C12   C23   S    
C29   N2    A    
C31   H6    S    
C36   C37   S    
C19   C21   A    
C42   O7    S    
C24   C26   A    
C44   H30   S    
O15   Zn1   S    
C25   C40   S    
C35   H13   S    
C43   H27   S    
C22   C38   S    
C30   N4    A    
C50   O8    S    
C24   C39   S    
C16   H1    S    
O11   Zn1   S    
C31   C32   S    
C33   H10   S    
C49   C51   A    
C48   H39   S    
C6    O2    S    
C14   C27   S    
C8    N5    A    
C1    O1    A    
C5    C13   A    
O12   Zn1   S    
C46   H33   S    
C19   H34   S    
C16   C27   A    
C51   O7    S    
C48   H38   S    
C37   H18   S    
C7    H4    S    
C45   H42   S    
C8    H3    S    
N1    N3    A    
C1    C34   S    
C4    C45   A    
C38   H20   S    
C34   C50   A    
C29   N3    A    
C7    N6    A    
N5    Zn1   S    
C44   H29   S    
C6    C11   A    
C5    C7    A    
C9    N6    A    
C6    C8    A    
C35   H14   S    
C43   H28   S    
C14   O12   A    
C21   C29   S    
C22   C25   A    
O14   Zn2   S    
O9    Zn2   S    
C47   H35   S    
C2    C4    A    
C43   C44   S    
C31   O16   S    
C23   C51   A    
C47   C48   S    
C30   N1    A    
C10   H44   S    
C33   H11   S    
C52   H41   S    
C49   H43   S    
C2    H40   S    
C9    C11   A    
C40   O5    D    
C46   H32   S    
C16   C18   A    
C20   C22   A    
C42   H26   S    
N2    N4    A    
C48   H37   S    
C46   O8    S    
C15   O13   A    
C25   C27   A    
C42   C43   S    
C32   H8    S    
C3    C4    A    
N6    Zn2   S    
O10   Zn2   S    
C12   O11   A    
C46   C47   S    
C17   C28   A    
C34   C52   A    
C10   N5    A    
O1    Zn1   S    
C10   C13   A    
C3    C52   A    
C36   H16   S    
C9    H2    S    
C35   O2    S    
C26   C28   A    
C5    O16   S    
C32   C33   S    
C31   H5    S    
C38   O3    D    
C37   H19   S    
C1    O10   A    
C47   H36   S    
C41   H24   S    
C11   C13   A    
C15   C28   S    
C45   C50   A    
C14   O14   A    
C17   C19   A    
C40   H22   S    
C18   C20   A    
C39   H21   S    
C15   O15   A    
C42   H25   S    
C33   H9    S    
O13   Zn2   S    
C21   C24   A    
C2    C23   A    
C17   H12   S    
C32   H7    S    
C12   O9    A    
C26   C41   S    
