data_mof_unit_34702.cif
_audit_creation_date              2012-10-26T19:53:27-0400
_audit_creation_method            fapswitch 2.2
_symmetry_space_group_name_H-M    P1
_symmetry_Int_Tables_number       1
_space_group_crystal_system       triclinic
_cell_length_a                    9.076876
_cell_length_b                    7.82093
_cell_length_c                    10.692456
_cell_angle_alpha                 89.30841
_cell_angle_beta                  90.05249
_cell_angle_gamma                 89.982245
_cell_volume                      758.997647765

loop_
_atom_site_label
_atom_site_type_symbol
_atom_type_description
_atom_site_fract_x
_atom_site_fract_y
_atom_site_fract_z
_atom_type_partial_charge
C1    C     C_R   0.220190 0.500014 0.499963 0.547451
C2    C     C_3   0.635781 0.539629 0.046645 -0.143440
C3    C     C_3   0.505808 0.498096 0.876538 -0.000932
C4    C     C_3   0.494481 0.501957 0.123323 0.005672
C5    C     C_1   0.065438 0.500014 0.499990 -0.062138
C6    C     C_1   0.934560 0.499975 0.500035 -0.065626
C7    C     C_3   0.198138 0.809800 0.987016 -0.300547
C8    C     C_3   0.802063 0.195930 0.021335 -0.296998
C9    C     C_3   0.733100 0.824282 0.858364 -0.274074
C10   C     C_3   0.259929 0.188588 0.141891 -0.290047
C11   C     C_R   0.779810 0.499984 0.500053 0.539663
C12   C     C_R   0.495034 0.500858 0.259242 0.548251
C13   C     C_R   0.505150 0.499166 0.740719 0.534267
C14   C     C_3   0.402834 0.616067 0.035336 0.126537
C15   C     C_3   0.597464 0.383497 0.964872 0.131361
C16   C     C_3   0.541372 0.652989 0.958569 0.124460
C17   C     C_3   0.458416 0.347309 0.041547 0.157427
C18   C     C_3   0.364323 0.460943 0.953335 -0.113774
Cu1   Cu    Cu3+1 0.500000 0.669080 0.500000 0.991577
Cu2   Cu    Cu3+1 0.500000 0.330920 0.500000 0.993621
H1    H     H_    0.255290 0.427684 0.913309 0.100542
H2    H     H_    0.868467 0.302100 0.060170 0.121429
H3    H     H_    0.508296 0.878917 0.857076 0.282274
H4    H     H_    0.752438 0.950277 0.812582 0.167387
H5    H     H_    0.746775 0.724100 0.786674 0.150491
H6    H     H_    0.816950 0.804312 0.932746 0.128169
H7    H     H_    0.483194 0.122872 0.146646 0.271381
H8    H     H_    0.237789 0.071569 0.198133 0.140082
H9    H     H_    0.177643 0.197386 0.065234 0.131992
H10   H     H_    0.245397 0.299534 0.204520 0.162990
H11   H     H_    0.744626 0.573495 0.086744 0.106110
H12   H     H_    0.346178 0.829951 0.135997 0.278222
H13   H     H_    0.111580 0.885748 0.034040 0.128882
H14   H     H_    0.142212 0.706029 0.935371 0.138433
H15   H     H_    0.258319 0.894059 0.920306 0.163743
H16   H     H_    0.760591 0.298351 0.845169 0.243021
H17   H     H_    0.879848 0.101458 0.981990 0.121621
H18   H     H_    0.738250 0.132900 0.097348 0.175569
N1    N     N_1   0.500000 0.076820 0.500000 -0.089121
N2    N     N_1   0.500000 0.923180 0.500000 -0.090575
N3    N     N_2   0.297994 0.739949 0.079911 -0.507766
N4    N     N_2   0.704336 0.258725 0.924056 -0.491078
N5    N     N_2   0.586725 0.819472 0.912042 -0.478181
N6    N     N_2   0.407518 0.183986 0.089892 -0.491328
O1    O     O_R   0.288390 0.642760 0.500000 -0.494080
O2    O     O_R   0.711610 0.357240 0.500000 -0.499141
O3    O     O_R   0.711610 0.642760 0.500000 -0.500923
O4    O     O_R   0.288390 0.357240 0.500000 -0.501148
O5    O     O_R   0.499960 0.642760 0.316850 -0.502422
O6    O     O_R   0.500040 0.357240 0.683150 -0.492778
O7    O     O_R   0.500040 0.642760 0.683150 -0.513204
O8    O     O_R   0.499960 0.357240 0.316850 -0.513305

loop_
_geom_bond_atom_site_label_1
_geom_bond_atom_site_label_2
_ccdc_geom_bond_type
C2    C4    S    
H12   N3    S    
Cu1   O1    S    
C1    O4    A    
C4    C12   S    
C18   H1    S    
C2    C16   S    
Cu1   O5    S    
H16   N4    S    
Cu1   Cu2   S    
C10   H9    S    
C17   C18   S    
C17   N6    S    
C9    H5    S    
C9    H4    S    
C2    C15   S    
C7    H13   S    
C16   N5    S    
C1    O1    A    
Cu2   O4    S    
C8    H18   S    
C14   N3    S    
C1    C5    S    
C4    C17   S    
H7    N6    S    
C7    H15   S    
C12   O8    A    
C8    N4    S    
C9    H6    S    
C12   O5    A    
C14   C16   S    
C7    N3    S    
C4    C14   S    
C5    C6    T    
C7    H14   S    
Cu1   O3    S    
C9    N5    S    
Cu1   N2    S    
C10   N6    S    
C13   O6    A    
Cu1   O7    S    
C6    C11   S    
C3    C15   S    
C3    C18   S    
Cu2   O8    S    
C8    H17   S    
C10   H8    S    
N1    N2    T    
C15   C17   S    
Cu2   N1    S    
C10   H10   S    
C11   O2    A    
Cu2   O6    S    
C13   O7    A    
H3    N5    S    
C11   O3    A    
C8    H2    S    
Cu2   O2    S    
C3    C16   S    
C15   N4    S    
C14   C18   S    
C2    H11   S    
C3    C13   S    
