data_mof_unit_55345.cif
_audit_creation_date              2012-12-10T17:18:18-0500
_audit_creation_method            fapswitch 2.2
_symmetry_space_group_name_H-M    P1
_symmetry_Int_Tables_number       1
_space_group_crystal_system       triclinic
_cell_length_a                    10.2383
_cell_length_b                    10.65751
_cell_length_c                    14.958976
_cell_angle_alpha                 90.954049
_cell_angle_beta                  81.923221
_cell_angle_gamma                 94.643744
_cell_volume                      1610.72673457

loop_
_atom_site_label
_atom_site_type_symbol
_atom_type_description
_atom_site_fract_x
_atom_site_fract_y
_atom_site_fract_z
_atom_type_partial_charge
C1    C     C_R   0.554308 0.733627 0.489778 0.824438
C2    C     C_R   0.445299 0.266387 0.502376 0.812553
C3    C     C_R   0.526585 0.728102 0.954445 0.081680
C4    C     C_R   0.451064 0.265971 0.047021 0.056237
C5    C     C_2   0.580530 0.868799 0.471125 0.185096
C6    C     C_2   0.417209 0.130655 0.492147 0.189488
C7    C     C_2   0.488737 0.929475 0.435568 0.344995
C8    C     C_2   0.500989 0.067371 0.433440 0.376619
C9    C     C_2   0.930749 0.525432 0.495677 0.470179
C10   C     C_2   0.075004 0.504821 0.482805 0.480316
C11   C     C_R   0.500956 0.500131 0.672168 0.863338
C12   C     C_R   0.498792 0.498596 0.327767 0.870421
C13   C     C_R   0.459052 0.382798 0.190346 0.393827
C14   C     C_R   0.531286 0.613042 0.811516 0.400793
C15   C     C_R   0.495344 0.496069 0.232851 -0.197404
C16   C     C_R   0.503339 0.499663 0.767035 -0.232190
C17   C     C_R   0.529135 0.608362 0.185754 0.025996
C18   C     C_R   0.471978 0.385572 0.812427 0.019836
C19   C     C_R   0.516345 0.611723 0.093999 0.118203
C20   C     C_R   0.473235 0.382355 0.906160 0.093497
C21   C     C_R   0.492071 0.496445 0.047690 -0.098619
C22   C     C_R   0.493993 0.497414 0.953394 -0.113718
C23   C     C_R   0.466957 0.380450 0.095614 0.037081
C24   C     C_R   0.517798 0.613652 0.906150 0.058684
C25   C     C_R   0.525830 0.727342 0.047969 0.049790
C26   C     C_R   0.455278 0.267466 0.953474 0.109093
N1    N     N_2   0.842700 0.448880 0.462930 -0.125943
N2    N     N_2   0.157300 0.551120 0.537070 -0.106252
O1    O     O_R   0.431060 0.692470 0.507460 -0.521960
O2    O     O_R   0.568940 0.307530 0.492540 -0.562164
O3    O     O_R   0.651120 0.659650 0.483670 -0.617523
O4    O     O_R   0.348880 0.340350 0.516330 -0.666128
O5    O     O_R   0.389960 0.516440 0.644050 -0.578540
O6    O     O_R   0.610040 0.483560 0.355950 -0.591645
O7    O     O_R   0.610030 0.483620 0.620260 -0.659868
O8    O     O_R   0.389970 0.516380 0.379740 -0.592436
Zn1   Zn    Zn3+2 0.353060 0.521920 0.515880 1.020565
Zn2   Zn    Zn3+2 0.646940 0.478080 0.484120 0.977376
O9    O     O_3   0.418772 0.273947 0.239479 -0.785805
H1    H     H_    0.395076 0.292169 0.304422 0.339804
O10   O     O_3   0.570876 0.723905 0.764373 -0.735000
H2    H     H_    0.601961 0.707047 0.700043 0.325321
N3    N     N_3   0.579943 0.718093 0.231013 -0.422813
H3    H     H_    0.665436 0.697455 0.256856 0.198775
H4    H     H_    0.508790 0.741518 0.284292 0.227334
N4    N     N_3   0.437374 0.273745 0.762726 -0.409142
H5    H     H_    0.516356 0.256612 0.712853 0.202291
H6    H     H_    0.354141 0.287641 0.731931 0.192481
N5    N     N_3   0.526814 0.844525 0.096952 -0.428501
H7    H     H_    0.442736 0.889690 0.088209 0.193005
H8    H     H_    0.611859 0.901546 0.072705 0.187813
N6    N     N_3   0.447313 0.149625 0.906172 -0.411197
H9    H     H_    0.359480 0.097593 0.931920 0.202248
H10   H     H_    0.528309 0.101338 0.917091 0.191689
N7    N     N_3   0.529784 0.845934 0.909010 -0.359258
H11   H     H_    0.445455 0.890687 0.934871 0.175058
H12   H     H_    0.615151 0.901441 0.919674 0.186584
N8    N     N_3   0.436132 0.144566 0.089171 -0.486342
H13   H     H_    0.344966 0.132869 0.130582 0.254871
H14   H     H_    0.515436 0.134008 0.124732 0.244812
O11   O     O_3   0.600771 0.130403 0.374921 -0.759253
H15   H     H_    0.648695 0.067116 0.336732 0.346477
O12   O     O_3   0.378476 0.864571 0.407896 -0.748901
H16   H     H_    0.325996 0.925740 0.382225 0.355849
O13   O     O_3   0.311581 0.066424 0.544711 -0.759044
H17   H     H_    0.265854 0.127500 0.586242 0.340979
O14   O     O_3   0.693607 0.935320 0.492950 -0.769826
H18   H     H_    0.745365 0.876816 0.521805 0.368343
O15   O     O_3   0.121850 0.439953 0.406097 -0.750685
H19   H     H_    0.191079 0.388493 0.421682 0.366466
O16   O     O_3   0.893641 0.635593 0.537304 -0.804803
H20   H     H_    0.809619 0.615032 0.577100 0.362518
N9    N     N_3   0.108663 0.599710 0.621294 -0.357044
H21   H     H_    0.028424 0.541242 0.652129 0.161576
H22   H     H_    0.082412 0.691058 0.612932 0.253740
N10   N     N_3   0.879528 0.330386 0.434641 -0.365790
H23   H     H_    0.823550 0.265053 0.478635 0.231938
H24   H     H_    0.849543 0.314628 0.371201 0.247720

loop_
_geom_bond_atom_site_label_1
_geom_bond_atom_site_label_2
_ccdc_geom_bond_type
N7    H11   S    
O10   H2    S    
C5    O14   S    
C7    C8    S    
O2    Zn2   S    
C1    C5    S    
C22   C24   A    
O8    Zn1   S    
C19   C21   A    
N10   H24   S    
O15   H19   S    
O1    Zn1   S    
N1    Zn2   S    
N8    H14   S    
C1    O3    A    
C13   C23   A    
C2    O4    A    
N9    H21   S    
C14   C24   A    
C3    N7    S    
C6    O13   S    
N5    H8    S    
C12   O8    A    
C9    C10   S    
C8    O11   S    
C21   C22   A    
N9    H22   S    
C3    C24   A    
C2    C6    S    
N2    N9    S    
C18   N4    S    
N6    H10   S    
C21   C23   A    
N4    H6    S    
O14   H18   S    
C11   O5    A    
O7    Zn2   S    
N10   H23   S    
O9    H1    S    
C5    C7    D    
C4    C23   A    
C6    C8    D    
N8    H13   S    
O5    Zn1   S    
N3    H3    S    
C17   N3    S    
C26   N6    S    
C11   C16   S    
C12   C15   S    
C3    C25   A    
C1    O1    A    
O4    Zn1   S    
N3    H4    S    
C7    O12   S    
C14   O10   S    
C20   C22   A    
O13   H17   S    
C13   C15   A    
C14   C16   A    
C12   O6    A    
N1    N10   S    
N6    H9    S    
C9    N1    D    
C10   N2    D    
C15   C17   A    
N4    H5    S    
O6    Zn2   S    
C9    O16   S    
C4    C26   A    
O3    Zn2   S    
C2    O2    A    
N7    H12   S    
O16   H20   S    
C20   C26   A    
N2    Zn1   S    
C11   O7    A    
C17   C19   A    
C18   C20   A    
O11   H15   S    
C19   C25   A    
C25   N5    S    
C13   O9    S    
O12   H16   S    
C10   O15   S    
C16   C18   A    
N5    H7    S    
C4    N8    S    
