data_mof_unit_20780.cif
_audit_creation_date              2012-12-11T16:08:44-0500
_audit_creation_method            fapswitch 2.2
_symmetry_space_group_name_H-M    P1
_symmetry_Int_Tables_number       1
_space_group_crystal_system       triclinic
_cell_length_a                    12.974207
_cell_length_b                    13.283907
_cell_length_c                    27.754429
_cell_angle_alpha                 95.041443
_cell_angle_beta                  89.638514
_cell_angle_gamma                 119.362922
_cell_volume                      4149.04811244

loop_
_atom_site_label
_atom_site_type_symbol
_atom_type_description
_atom_site_fract_x
_atom_site_fract_y
_atom_site_fract_z
_atom_type_partial_charge
C1    C     C_R   0.628253 0.896499 0.427152 0.550900
C2    C     C_R   0.695914 0.439088 0.239533 -0.104129
C3    C     C_R   0.687419 0.422044 0.288728 -0.104619
C4    C     C_R   0.669470 0.316826 0.303592 0.035527
C5    C     C_R   0.686466 0.351051 0.204907 0.034914
C6    C     C_1   0.694252 0.370312 0.154417 -0.057059
C7    C     C_1   0.653402 0.295398 0.353809 -0.063667
C8    C     C_1   0.702717 0.395814 0.113362 -0.011980
C9    C     C_R   0.291411 0.817121 0.341301 -0.123216
C10   C     C_R   0.277388 0.816038 0.291946 0.001840
C11   C     C_R   0.239575 0.803141 0.191862 0.001256
C12   C     C_R   0.601300 0.221881 0.440498 0.541495
C13   C     C_R   0.312151 0.763176 0.210485 -0.126318
C14   C     C_R   0.329835 0.768867 0.260104 -0.135394
C15   C     C_R   0.209075 0.786162 0.142102 -0.026864
C16   C     C_R   0.127406 0.818112 0.126058 -0.014202
C17   C     C_R   0.177402 0.916384 0.356789 -0.138662
C18   C     C_R   0.159638 0.913031 0.306894 0.015532
C19   C     C_R   0.210029 0.862522 0.274367 0.064404
C20   C     C_R   0.092124 0.958478 0.288897 -0.128444
C21   C     C_R   0.071598 0.950690 0.239146 -0.128014
C22   C     C_R   0.119107 0.898111 0.206957 0.003135
C23   C     C_R   0.274006 0.878044 0.424652 0.538973
C24   C     C_R   0.190783 0.855858 0.224306 0.050912
C25   C     C_R   0.089437 0.880349 0.157953 -0.146118
C26   C     C_R   0.241475 0.866534 0.373792 0.004601
C27   C     C_R   0.732539 0.959380 0.352992 -0.180809
C28   C     C_R   0.734969 0.946742 0.303267 -0.010046
C29   C     C_R   0.732310 0.924506 0.202615 0.010495
C30   C     C_R   0.802736 0.032941 0.228243 -0.147087
C31   C     C_R   0.804891 0.043819 0.278430 -0.139763
C32   C     C_R   0.737879 0.911524 0.152738 -0.138834
C33   C     C_R   0.678359 0.800934 0.127731 0.000417
C34   C     C_R   0.627053 0.898367 0.564828 0.542651
C35   C     C_R   0.586597 0.754391 0.353932 0.231372
C36   C     C_R   0.590967 0.739703 0.303270 0.008825
C37   C     C_R   0.662437 0.837352 0.278026 0.019339
C38   C     C_R   0.522486 0.630690 0.277078 -0.138600
C39   C     C_R   0.523362 0.619225 0.226647 -0.166321
C40   C     C_R   0.592448 0.716402 0.201680 -0.001207
C41   C     C_R   0.661523 0.826153 0.227427 0.065519
C42   C     C_R   0.599915 0.704698 0.151625 -0.129588
C43   C     C_R   0.652978 0.866524 0.378212 -0.006557
C44   C     C_R   0.738805 0.303037 0.652171 -0.137090
C45   C     C_R   0.601469 0.225302 0.578943 0.544320
C46   C     C_R   0.752266 0.323074 0.702709 0.010596
C47   C     C_R   0.772995 0.353943 0.804373 0.006771
C48   C     C_R   0.869071 0.365065 0.777236 -0.136893
C49   C     C_R   0.858330 0.348446 0.726685 -0.134955
C50   C     C_R   0.784514 0.377253 0.854706 -0.136402
C51   C     C_R   0.689321 0.372494 0.880869 -0.004367
C52   C     C_R   0.540221 0.277687 0.656496 -0.129657
C53   C     C_R   0.549852 0.291110 0.706526 0.005293
C54   C     C_R   0.655906 0.313337 0.729911 0.061501
C55   C     C_R   0.452923 0.277724 0.733401 -0.141230
C56   C     C_R   0.271564 0.879404 0.563431 0.544985
C57   C     C_R   0.461025 0.286765 0.783622 -0.138404
C58   C     C_R   0.567091 0.312183 0.807342 0.008855
C59   C     C_R   0.665133 0.325546 0.780555 0.061570
C60   C     C_R   0.578842 0.331848 0.857401 -0.130637
C61   C     C_R   0.631345 0.276832 0.629139 -0.004525
C62   C     C_1   0.221739 0.862921 0.610210 -0.017096
C63   C     C_R   0.076123 0.747514 0.718499 -0.114173
C64   C     C_R   0.061598 0.737436 0.768114 -0.118470
C65   C     C_R   0.234639 0.927361 0.785747 -0.106948
C66   C     C_R   0.249274 0.937339 0.736098 -0.109576
C67   C     C_1   0.633959 0.268666 0.394662 -0.022427
C68   C     C_R   0.170329 0.847292 0.702389 0.031608
C69   C     C_R   0.141308 0.826884 0.801827 0.031741
C70   C     C_1   0.124600 0.814613 0.852694 -0.061595
C71   C     C_1   0.192967 0.854123 0.651654 -0.063708
C72   C     C_1   0.101054 0.797359 0.894282 -0.014054
C73   C     C_1   0.645956 0.860059 0.609126 -0.015576
C74   C     C_R   0.770951 0.810074 0.713705 -0.104246
C75   C     C_R   0.783772 0.795206 0.762247 -0.105250
C76   C     C_R   0.590491 0.774651 0.777488 -0.101480
C77   C     C_R   0.577656 0.789452 0.729027 -0.103601
C78   C     C_R   0.660469 0.228888 0.268997 -0.105035
C79   C     C_R   0.668121 0.808109 0.697052 0.036264
C80   C     C_R   0.694024 0.778600 0.794377 0.037106
C81   C     C_1   0.709802 0.769322 0.844885 -0.055824
C82   C     C_1   0.657818 0.833688 0.648429 -0.057527
C83   C     C_1   0.725329 0.762727 0.887083 -0.008885
C84   C     C_R   0.065219 0.773652 0.078811 0.551844
C85   C     C_R   0.716652 0.441385 0.067307 0.545751
C86   C     C_R   0.719449 0.782142 0.080739 0.559833
C87   C     C_R   0.056787 0.766292 0.941243 0.540636
C88   C     C_R   0.710453 0.433255 0.929325 0.536428
C89   C     C_R   0.669290 0.246019 0.219759 -0.105071
C90   C     C_R   0.748512 0.754961 0.936812 0.561506
Cr1   Cr    Cr6+3 0.416430 0.829200 0.492370 1.046043
Cr2   Cr    Cr6+3 0.674630 0.087020 0.504170 1.017567
Cr3   Cr    Cr6+3 0.408920 0.083740 0.503490 1.018654
Cr4   Cr    Cr6+3 0.914010 0.832750 0.013970 1.022537
Cr5   Cr    Cr6+3 0.922310 0.578600 0.003000 1.038855
Cr6   Cr    Cr6+3 0.656280 0.574630 0.003870 1.034183
H1    H     H_    0.645142 0.146593 0.280063 0.124967
H2    H     H_    0.016215 0.983242 0.225877 0.121185
H3    H     H_    0.053243 0.997722 0.313250 0.114841
H4    H     H_    0.141715 0.956963 0.382192 0.110736
H5    H     H_    0.797131 0.985869 0.134004 0.128691
H6    H     H_    0.785743 0.045574 0.371470 0.148017
H7    H     H_    0.857731 0.108714 0.209534 0.111889
H8    H     H_    0.860087 0.128431 0.297819 0.114659
H9    H     H_    0.553161 0.618976 0.132127 0.140431
H10   H     H_    0.470809 0.534207 0.207193 0.121018
H11   H     H_    0.467515 0.554304 0.295386 0.159970
H12   H     H_    0.661801 0.177336 0.193393 0.117130
H13   H     H_    0.869809 0.407557 0.872877 0.133846
H14   H     H_    0.809311 0.302724 0.631099 0.123462
H15   H     H_    0.952556 0.387181 0.795084 0.114785
H16   H     H_    0.933074 0.356253 0.706366 0.112822
H17   H     H_    0.504602 0.326061 0.877622 0.135018
H18   H     H_    0.385414 0.276686 0.803907 0.112465
H19   H     H_    0.370520 0.259064 0.715564 0.111046
H20   H     H_    0.456846 0.257986 0.639191 0.138609
H21   H     H_    0.015292 0.676926 0.692818 0.113823
H22   H     H_    0.709091 0.520685 0.228449 0.120245
H23   H     H_    0.988671 0.659559 0.780204 0.117331
H24   H     H_    0.296422 0.997231 0.811449 0.115779
H25   H     H_    0.323273 0.014306 0.723974 0.121152
H26   H     H_    0.841967 0.825354 0.689507 0.114082
H27   H     H_    0.864375 0.798687 0.774913 0.118531
H28   H     H_    0.520613 0.762102 0.801934 0.117557
H29   H     H_    0.498173 0.788737 0.716719 0.116986
H30   H     H_    0.693587 0.490220 0.315006 0.100795
H31   H     H_    0.345443 0.782801 0.354464 0.158888
H32   H     H_    0.352273 0.723643 0.187099 0.138301
H33   H     H_    0.382547 0.734140 0.273682 0.135840
H34   H     H_    0.028012 0.906700 0.145405 0.142363
O1    O     O_R   0.296680 0.802170 0.437540 -0.512111
O2    O     O_R   0.662610 0.183990 0.557860 -0.498835
O3    O     O_R   0.500730 0.201280 0.562180 -0.523114
O4    O     O_R   0.312500 0.978850 0.548170 -0.497020
O5    O     O_3   0.499990 0.999990 0.500010 -0.249945
O6    O     O_R   0.820790 0.857990 0.068830 -0.519758
O7    O     O_R   0.016700 0.827330 0.062850 -0.509298
O8    O     O_R   0.041970 0.673520 0.060040 -0.489674
O9    O     O_R   0.817980 0.483660 0.048840 -0.488850
O10   O     O_R   0.637200 0.461990 0.052510 -0.511099
O11   O     O_R   0.664790 0.681920 0.057970 -0.493711
O12   O     O_R   0.525380 0.838530 0.443500 -0.459246
O13   O     O_R   0.815840 0.852920 0.961840 -0.500525
O14   O     O_R   0.012100 0.822630 0.963670 -0.511281
O15   O     O_R   0.037010 0.668460 0.953040 -0.503623
O16   O     O_R   0.813390 0.478970 0.949660 -0.506506
O17   O     O_R   0.632250 0.456930 0.945520 -0.523894
O18   O     O_R   0.660200 0.677230 0.958780 -0.485578
O19   O     O_3   0.830870 0.661990 0.006950 -0.272166
O20   O     O_R   0.702130 0.995190 0.446810 -0.534911
O21   O     O_R   0.661770 0.181390 0.458760 -0.496137
O22   O     O_R   0.499820 0.198480 0.455280 -0.509764
O23   O     O_R   0.311660 0.976250 0.449080 -0.498591
O24   O     O_R   0.297580 0.804960 0.544440 -0.506374
O25   O     O_R   0.526220 0.841130 0.542590 -0.497293
O26   O     O_R   0.703030 0.997990 0.553710 -0.508791
O27   O     O_3   0.510588 0.661624 0.378756 -0.557029
C91   C     C_3   0.577125 0.618301 0.400460 -0.013826
H35   H     H_    0.637830 0.682024 0.429963 0.129426
H36   H     H_    0.629823 0.598099 0.373369 0.114982
C92   C     C_3   0.493302 0.506709 0.422201 -0.358066
H37   H     H_    0.432451 0.440955 0.393408 0.157612
H38   H     H_    0.544789 0.471859 0.439372 0.107781
H39   H     H_    0.440537 0.523875 0.450053 0.161449
C93   C     C_1   0.258423 0.733989 0.107823 0.207236
N1    N     N_1   0.297961 0.692507 0.080526 -0.293079

loop_
_geom_bond_atom_site_label_1
_geom_bond_atom_site_label_2
_ccdc_geom_bond_type
C39   H10   S    
C66   C68   A    
C17   C26   A    
C93   N1    T    
C16   C25   A    
C12   O22   A    
C35   C36   A    
Cr5   O15   S    
C42   H9    S    
C72   C87   S    
C92   H37   S    
C2    H22   S    
C3    H30   S    
C34   O25   A    
Cr4   O19   S    
C4    C78   A    
C5    C6    S    
C46   C49   A    
O27   C91   S    
C64   H23   S    
C75   H27   S    
C33   C42   A    
C36   C37   A    
Cr2   O2    S    
C8    C85   S    
C29   C32   A    
Cr3   O3    S    
C52   C61   A    
C38   C39   A    
C63   H21   S    
Cr1   O1    S    
C58   C60   A    
C15   C16   A    
C65   H24   S    
C11   C24   A    
C16   C84   S    
C18   C19   A    
C23   C26   S    
C45   C61   S    
C38   H11   S    
Cr6   O17   S    
C23   O23   A    
C90   O18   A    
C1    O12   A    
C91   C92   S    
C81   C83   T    
Cr6   O11   S    
C13   H32   S    
C11   C15   A    
C1    C43   S    
C22   C25   A    
C30   H7    S    
Cr4   O6    S    
Cr5   O19   S    
C87   O14   A    
C35   C43   A    
C75   C80   A    
C85   O9    A    
C18   C20   A    
C90   O13   A    
Cr1   O12   S    
C40   C42   A    
C84   O8    A    
C21   C22   A    
C91   H36   S    
C12   O21   A    
C60   H17   S    
Cr5   O16   S    
Cr2   O21   S    
C4    C7    S    
C25   H34   S    
C92   H38   S    
C44   C46   A    
C9    C26   A    
C50   C51   A    
C47   C50   A    
C54   C59   A    
C53   C55   A    
C78   C89   A    
Cr6   O18   S    
C12   C67   S    
C66   H25   S    
C74   C75   A    
C76   H28   S    
C76   C77   A    
Cr1   O24   S    
C56   O24   A    
Cr3   O4    S    
C10   C14   A    
C39   C40   A    
C6    C8    T    
C58   C59   A    
C53   C54   A    
C47   C59   A    
C50   H13   S    
C33   C86   S    
C35   O27   S    
Cr1   O25   S    
C29   C30   A    
C47   C48   A    
C10   C19   A    
C46   C54   A    
C78   H1    S    
C17   C18   A    
C77   C79   A    
C23   O1    A    
C1    O20   A    
Cr2   O26   S    
C9    H31   S    
C64   C69   A    
C85   O10   A    
C49   H16   S    
C86   O6    A    
C48   C49   A    
C74   H26   S    
C84   O7    A    
C74   C79   A    
C55   C57   A    
Cr2   O20   S    
C91   H35   S    
C56   C62   S    
Cr2   O5    S    
Cr4   O13   S    
C3    C4    A    
C73   C82   T    
C92   H39   S    
C77   H29   S    
C52   C53   A    
C9    C10   A    
C52   H20   S    
C83   C90   S    
C63   C68   A    
C40   C41   A    
Cr5   O8    S    
C87   O15   A    
C29   C41   A    
Cr5   O9    S    
C28   C31   A    
C76   C80   A    
C80   C81   S    
Cr3   O5    S    
C51   C88   S    
Cr6   O10   S    
C79   C82   S    
C56   O4    A    
C57   H18   S    
C34   O26   A    
C44   C61   A    
C27   H6    S    
C45   O3    A    
Cr4   O14   S    
C32   C33   A    
Cr3   O23   S    
C19   C24   A    
C31   H8    S    
C21   H2    S    
C11   C13   A    
C57   C58   A    
C30   C31   A    
C20   H3    S    
C55   H19   S    
C28   C37   A    
C68   C71   S    
C65   C69   A    
Cr6   O19   S    
C89   H12   S    
C36   C38   A    
C88   O17   A    
C62   C71   T    
C2    C3    A    
C22   C24   A    
C37   C41   A    
C69   C70   S    
C17   H4    S    
C34   C73   S    
C7    C67   T    
C63   C64   A    
C2    C5    A    
C27   C43   A    
C48   H15   S    
Cr1   O5    S    
C20   C21   A    
C45   O2    A    
C65   C66   A    
C27   C28   A    
Cr4   O7    S    
C88   O16   A    
C32   H5    S    
C15   C93   S    
Cr3   O22   S    
C70   C72   T    
C51   C60   A    
C13   C14   A    
C5    C89   A    
C86   O11   A    
C14   H33   S    
C44   H14   S    
