data_mof_unit_67953.cif
_audit_creation_date              2013-03-05T16:41:05-0500
_audit_creation_method            fapswitch 2.2
_symmetry_space_group_name_H-M    P1
_symmetry_Int_Tables_number       1
_space_group_crystal_system       triclinic
_cell_length_a                    8.69305
_cell_length_b                    10.836696
_cell_length_c                    10.017397
_cell_angle_alpha                 93.434575
_cell_angle_beta                  97.306318
_cell_angle_gamma                 94.788744
_cell_volume                      930.371246022

loop_
_atom_site_label
_atom_site_type_symbol
_atom_site_description
_atom_site_fract_x
_atom_site_fract_y
_atom_site_fract_z
_atom_type_partial_charge
O1    O     O_R   0.500020 0.316790 0.614690 -0.600054
O2    O     O_R   0.500000 0.316760 0.385350 -0.601870
C1    C     C_R   0.497753 0.260185 0.495870 0.894247
O3    O     O_R   0.271760 0.500010 0.587850 -0.582067
O4    O     O_R   0.271740 0.499970 0.358500 -0.557642
C2    C     C_R   0.202513 0.498757 0.466208 0.886336
Zn1   Zn    Zn3+2 0.500010 0.500020 0.653130 1.120758
Zn2   Zn    Zn3+2 0.499990 0.499980 0.346870 1.111739
O5    O     O_R   0.500000 0.683240 0.614650 -0.536795
O6    O     O_R   0.499980 0.683210 0.385310 -0.610758
O7    O     O_R   0.728260 0.500030 0.641500 -0.604013
O8    O     O_R   0.728240 0.499990 0.412150 -0.536238
C3    C     C_R   0.494770 0.739341 0.503063 0.973146
C4    C     C_R   0.797894 0.506934 0.533058 0.900637
C5    C     C_2   0.037642 0.477400 0.454483 0.263167
C6    C     C_2   0.960850 0.542911 0.539463 0.058628
C7    C     C_R   0.580883 0.075770 0.596724 -0.086186
C8    C     C_R   0.502129 0.127710 0.488281 -0.235566
C9    C     C_R   0.420638 0.049814 0.380239 0.214479
C10   C     C_R   0.399181 0.921521 0.394512 0.203459
C11   C     C_R   0.481097 0.871091 0.507211 -0.212408
C12   C     C_R   0.578186 0.949210 0.605000 -0.039417
C13   C     C_3   0.578285 0.967481 0.756842 0.408747
C14   C     C_3   0.581317 0.106835 0.743283 0.044303
H1    H     H_    0.475436 0.146634 0.770099 0.183529
C15   C     C_R   0.418552 0.407757 0.055399 0.012899
N1    N     N_R   0.498950 0.499140 0.142680 -0.116951
C16   C     C_R   0.596684 0.583012 0.089378 0.465525
C17   C     C_R   0.598805 0.581677 0.944566 0.458731
N2    N     N_R   0.498950 0.499180 0.857030 -0.118335
C18   C     C_R   0.419443 0.406454 0.914780 -0.046770
C19   C     C_3   0.249206 0.359864 0.889077 0.407904
C20   C     C_3   0.249807 0.362566 0.042911 0.004886
H2    H     H_    0.231247 0.272191 0.086431 0.207855
O9    O     O_3   0.958009 0.389850 0.356789 -0.579881
C21   C     C_3   0.009006 0.270234 0.370294 0.161990
H3    H     H_    0.131569 0.268894 0.418107 0.129104
H4    H     H_    0.000574 0.224561 0.267374 0.251162
C22   C     C_3   0.900547 0.193956 0.447485 -0.709454
H5    H     H_    0.782868 0.179918 0.388434 0.240324
H6    H     H_    0.944495 0.102103 0.464571 0.268830
H7    H     H_    0.893125 0.243841 0.545833 0.285935
O10   O     O_3   0.695355 0.668209 0.891601 -0.618109
C23   C     C_3   0.850067 0.634574 0.906797 0.163728
H8    H     H_    0.893488 0.643651 0.808933 0.244539
H9    H     H_    0.860912 0.536898 0.931707 0.210897
C24   C     C_3   0.957967 0.723167 0.008566 -0.479822
H10   H     H_    0.962730 0.689422 0.111003 0.282636
H11   H     H_    0.077002 0.730211 0.979639 0.303184
H12   H     H_    0.921266 0.817936 0.011343 0.281121
N3    N     N_R   0.148088 0.446233 0.824341 0.208078
O11   O     O_R   0.188663 0.565027 0.837320 -0.361799
O12   O     O_R   0.004631 0.406831 0.779127 -0.389366
N4    N     N_R   0.221586 0.235284 0.819686 0.209963
O13   O     O_R   0.212655 0.223148 0.688897 -0.392379
O14   O     O_R   0.184639 0.138463 0.883837 -0.238922
N5    N     N_R   0.151530 0.453147 0.092798 0.232662
O15   O     O_R   0.005762 0.418894 0.098101 -0.324613
O16   O     O_R   0.201825 0.569900 0.115648 -0.343807
N6    N     N_R   0.013941 0.669628 0.589073 0.200768
O17   O     O_R   0.914791 0.753012 0.579500 -0.361528
O18   O     O_R   0.160012 0.707406 0.624310 -0.260794
N7    N     N_R   0.352794 0.100387 0.260407 0.219171
O19   O     O_R   0.441837 0.131920 0.170733 -0.348172
O20   O     O_R   0.202668 0.086520 0.226632 -0.387296
N8    N     N_R   0.286734 0.843936 0.300770 0.232174
O21   O     O_R   0.276842 0.855553 0.171536 -0.309362
O22   O     O_R   0.185738 0.767085 0.345719 -0.354317
N9    N     N_R   0.434008 0.913623 0.801281 0.220713
O23   O     O_R   0.438275 0.836101 0.895479 -0.319075
O24   O     O_R   0.299135 0.938940 0.742497 -0.253341
N10   N     N_R   0.719272 0.934857 0.837959 0.235586
O25   O     O_R   0.827502 0.886956 0.779229 -0.276072
O26   O     O_R   0.755445 0.986413 0.959910 -0.364748
N11   N     N_R   0.724955 0.181205 0.803293 0.270206
O27   O     O_R   0.859357 0.158627 0.767939 -0.251270
O28   O     O_R   0.718718 0.270152 0.894942 -0.332600
O29   O     O_3   0.700195 0.662158 0.178270 -0.605902
C25   C     C_3   0.658932 0.784778 0.170333 0.128401
H13   H     H_    0.537576 0.791622 0.188428 0.211157
H14   H     H_    0.668653 0.817060 0.070280 0.240695
C26   C     C_3   0.766531 0.871711 0.273219 -0.693495
H15   H     H_    0.889288 0.869833 0.254035 0.292005
H16   H     H_    0.732968 0.967944 0.265970 0.225605
H17   H     H_    0.757199 0.843828 0.376589 0.269584

loop_
_geom_bond_atom_site_label_1
_geom_bond_atom_site_label_2
_geom_bond_distance
_ccdc_geom_bond_type
N8    O22   1.300211 A    
N7    O20   1.299651 A    
C13   N9    1.470633 S    
O9    C21   1.413076 S    
N11   O27   1.301142 A    
C24   H11   1.107377 S    
Zn1   O7    2.002333 S    
C15   N1    1.363399 A    
C10   N8    1.441847 S    
C16   C17   1.452321 A    
N2    C18   1.370206 A    
O7    C4    1.312066 A    
N5    O16   1.300693 A    
C5    C6    1.351132 D    
C1    C8    1.436986 S    
N6    O18   1.298648 A    
C8    C9    1.407641 A    
C6    N6    1.449038 S    
C19   N4    1.467786 S    
N9    O24   1.301593 A    
O5    C3    1.301651 A    
C2    C5    1.421293 S    
C18   C19   1.507986 S    
C9    N7    1.428943 S    
C13   C14   1.522658 S    
C24   H12   1.100360 S    
C16   O29   1.383493 S    
C23   C24   1.526426 S    
N8    O21   1.300856 A    
C15   C18   1.408873 A    
Zn1   N2    2.044300 S    
C11   C12   1.399870 A    
C17   O10   1.380848 S    
O3    Zn1   2.008623 S    
C5    O9    1.394221 S    
C23   H9    1.110800 S    
C20   H2    1.103592 S    
C22   H7    1.106866 S    
N4    O14   1.301543 A    
C7    C14   1.485916 S    
N3    O11   1.300392 A    
C14   H1    1.104833 S    
N10   O26   1.301770 A    
C22   H5    1.108552 S    
C25   H14   1.092103 S    
O29   C25   1.409143 S    
N7    O19   1.300901 A    
N6    O17   1.299226 A    
O1    C1    1.303045 A    
O10   C23   1.414661 S    
C19   N3    1.460937 S    
C17   N2    1.380060 A    
O4    Zn2   2.002333 S    
C15   C20   1.494436 S    
C24   H10   1.106847 S    
Zn2   O8    2.008622 S    
C7    C8    1.383483 A    
C3    C11   1.441092 S    
N11   O28   1.300095 A    
O3    C2    1.287427 A    
O8    C4    1.278363 A    
C26   H16   1.110135 S    
C4    C6    1.429857 S    
C23   H8    1.101215 S    
Zn1   O5    2.045121 S    
N4    O13   1.300632 A    
C21   H3    1.112840 S    
C20   N5    1.460472 S    
O1    Zn1   1.999837 S    
C13   N10   1.463162 S    
C21   C22   1.517242 S    
O2    Zn2   2.045120 S    
N10   O25   1.298651 A    
O6    C3    1.302179 A    
C25   C26   1.521833 S    
C14   N11   1.467323 S    
C26   H17   1.106753 S    
C7    C12   1.377374 A    
C19   C20   1.538872 S    
C9    C10   1.405491 A    
C21   H4    1.107641 S    
O2    C1    1.298771 A    
N5    O15   1.298951 A    
O4    C2    1.300765 A    
N9    O23   1.299542 A    
C25   H13   1.100621 S    
C10   C11   1.419396 A    
C22   H6    1.110548 S    
Zn2   O6    1.999836 S    
C26   H15   1.109706 S    
N1    C16   1.370266 A    
Zn2   N1    2.043793 S    
C12   C13   1.521967 S    
N3    O12   1.298819 A    
