data_mof_unit_30691.cif
_audit_creation_date              2012-12-11T15:49:07-0500
_audit_creation_method            fapswitch 2.2
_symmetry_space_group_name_H-M    P1
_symmetry_Int_Tables_number       1
_space_group_crystal_system       triclinic
_cell_length_a                    21.626455
_cell_length_b                    7.176078
_cell_length_c                    14.893388
_cell_angle_alpha                 90.015261
_cell_angle_beta                  106.630353
_cell_angle_gamma                 89.910329
_cell_volume                      2214.6674135

loop_
_atom_site_label
_atom_site_type_symbol
_atom_type_description
_atom_site_fract_x
_atom_site_fract_y
_atom_site_fract_z
_atom_type_partial_charge
O1    O     O_R   0.335860 0.638190 0.002110 -0.508991
O2    O     O_R   0.664140 0.361810 0.997890 -0.513074
O3    O     O_R   0.164140 0.138190 0.997890 -0.511458
O4    O     O_R   0.835860 0.861810 0.002110 -0.512460
O5    O     O_R   0.217530 0.305920 0.861960 -0.535813
O6    O     O_R   0.782470 0.694080 0.138040 -0.524036
O7    O     O_R   0.282470 0.805920 0.138040 -0.523375
O8    O     O_R   0.717530 0.194080 0.861960 -0.522959
C1    C     C_R   0.206593 0.476809 0.825655 0.765961
C2    C     C_R   0.793917 0.523332 0.174219 0.762168
C3    C     C_R   0.293640 0.976615 0.174301 0.762540
C4    C     C_R   0.706016 0.023380 0.825759 0.762426
O9    O     O_R   0.338690 0.308320 0.993240 -0.544424
O10   O     O_R   0.661310 0.691680 0.006760 -0.539562
O11   O     O_R   0.161310 0.808320 0.006760 -0.539189
O12   O     O_R   0.838690 0.191680 0.993240 -0.539214
O13   O     O_R   0.286170 0.140430 0.130100 -0.551314
O14   O     O_R   0.713830 0.859570 0.869900 -0.552059
O15   O     O_R   0.213830 0.640430 0.869900 -0.544369
O16   O     O_R   0.786170 0.359570 0.130100 -0.552008
C5    C     C_R   0.365349 0.477324 0.000027 0.757602
C6    C     C_R   0.634689 0.522617 0.000183 0.752496
C7    C     C_R   0.134709 0.977618 0.000277 0.753090
C8    C     C_R   0.865312 0.022393 0.999919 0.752163
O17   O     O_3   0.232630 0.472410 0.044750 -0.376382
O18   O     O_3   0.767370 0.527590 0.955250 -0.376959
O19   O     O_3   0.267370 0.972410 0.955250 -0.380084
O20   O     O_3   0.732630 0.027590 0.044750 -0.378097
V1    V     V_3+5 0.253220 0.196620 0.991700 1.517253
V2    V     V_3+5 0.746780 0.803380 0.008300 1.537337
V3    V     V_3+5 0.246780 0.696620 0.008300 1.548700
V4    V     V_3+5 0.753220 0.303380 0.991700 1.538397
C9    C     C_R   0.039702 0.854078 0.045254 -0.223152
C10   C     C_R   0.960361 0.146004 0.955314 -0.223302
C11   C     C_R   0.460326 0.355312 0.954130 -0.218962
C12   C     C_R   0.539871 0.643969 0.046777 -0.224769
H1    H     H_    0.070128 0.741731 0.081959 0.185294
H2    H     H_    0.929951 0.258412 0.918639 0.185656
H3    H     H_    0.429884 0.243992 0.916677 0.173814
H4    H     H_    0.570427 0.754713 0.084649 0.183902
C13   C     C_R   0.975457 0.862978 0.047777 0.404730
C14   C     C_R   0.024610 0.137280 0.952929 0.405080
C15   C     C_R   0.524478 0.365016 0.951255 0.405348
C16   C     C_R   0.475665 0.634449 0.049491 0.402488
C17   C     C_R   0.934558 0.009930 0.001813 -0.182059
C18   C     C_R   0.065492 0.990112 0.998659 -0.181988
C19   C     C_R   0.565464 0.510360 0.998475 -0.180885
C20   C     C_R   0.434653 0.489307 0.002106 -0.173702
C21   C     C_R   0.678990 0.017322 0.723817 -0.071531
C22   C     C_R   0.320329 0.981944 0.276351 -0.072697
C23   C     C_R   0.820850 0.517103 0.276110 -0.070209
C24   C     C_R   0.179188 0.483817 0.723760 -0.071617
C25   C     C_R   0.687764 0.071672 0.567789 -0.231651
C26   C     C_R   0.311507 0.920626 0.431851 -0.233102
C27   C     C_R   0.811157 0.562347 0.432347 -0.232576
C28   C     C_R   0.189648 0.471861 0.566539 -0.229326
C29   C     C_R   0.717008 0.060706 0.664383 0.275263
C30   C     C_R   0.282208 0.936422 0.335398 0.276594
C31   C     C_R   0.782284 0.554696 0.335550 0.274675
C32   C     C_R   0.218400 0.470396 0.663459 0.264940
C33   C     C_R   0.612742 0.985946 0.686718 -0.243009
C34   C     C_R   0.386602 0.011655 0.313775 -0.242472
C35   C     C_R   0.887373 0.490962 0.313244 -0.246785
C36   C     C_R   0.112233 0.498910 0.687193 -0.252318
C37   C     C_R   0.581888 0.002734 0.589542 0.078495
C38   C     C_R   0.417508 0.989319 0.410636 0.079526
C39   C     C_R   0.917897 0.508115 0.410420 0.078707
C40   C     C_R   0.082074 0.497245 0.589513 0.078968
C41   C     C_R   0.621099 0.043828 0.530337 0.099581
C42   C     C_R   0.378295 0.945863 0.469513 0.100378
C43   C     C_R   0.878059 0.538974 0.469883 0.100620
C44   C     C_R   0.122297 0.482062 0.529485 0.101486
C45   C     C_R   0.513564 0.983596 0.549520 0.065604
C46   C     C_R   0.485891 0.005688 0.450563 0.064771
C47   C     C_R   0.986446 0.498378 0.450193 0.064908
C48   C     C_R   0.013562 0.508971 0.549685 0.065282
C49   C     C_R   0.527610 0.040745 0.394722 -0.158642
C50   C     C_R   0.471947 0.944387 0.605063 -0.156926
C51   C     C_R   0.971316 0.533102 0.605845 -0.161338
C52   C     C_R   0.028841 0.483730 0.393708 -0.162876
C53   C     C_R   0.593618 0.059121 0.434012 -0.183254
C54   C     C_R   0.405915 0.925318 0.565614 -0.187384
C55   C     C_R   0.905179 0.549054 0.566480 -0.184630
C56   C     C_R   0.095222 0.476778 0.432746 -0.187421
H5    H     H_    0.623492 0.086532 0.388223 0.122564
H6    H     H_    0.376118 0.893209 0.611052 0.123989
H7    H     H_    0.874911 0.570276 0.612401 0.123195
H8    H     H_    0.125735 0.466549 0.386462 0.124010
H9    H     H_    0.412653 0.046586 0.264423 0.159977
H10   H     H_    0.586629 0.954751 0.736468 0.161590
H11   H     H_    0.085254 0.508335 0.737477 0.169699
H12   H     H_    0.913862 0.460803 0.263772 0.161658
H13   H     H_    0.717169 0.104588 0.521895 0.119205
H14   H     H_    0.282046 0.885986 0.477431 0.116470
H15   H     H_    0.781264 0.589090 0.478327 0.119299
H16   H     H_    0.220085 0.461915 0.520119 0.120707
H17   H     H_    0.511108 0.054443 0.319713 0.159561
H18   H     H_    0.488647 0.926104 0.679816 0.156242
H19   H     H_    0.987631 0.544400 0.680964 0.159465
H20   H     H_    0.012533 0.480944 0.318360 0.165062
Cl1   Cl    Cl    0.950364 0.690898 0.114211 -0.700085
Cl2   Cl    Cl    0.049724 0.310330 0.887128 -0.700931
Cl3   Cl    Cl    0.549366 0.196323 0.882715 -0.699140
Cl4   Cl    Cl    0.450704 0.802961 0.118045 -0.697873
N1    N     N_2   0.214943 0.900587 0.297971 -0.535021
H21   H     H_    0.196897 0.808532 0.337370 0.260093
C57   C     C_3   0.175299 0.065939 0.273640 -0.553099
H22   H     H_    0.178302 0.149992 0.337458 0.196078
H23   H     H_    0.124263 0.024778 0.241443 0.211016
H24   H     H_    0.190811 0.152175 0.222138 0.198535
N2    N     N_2   0.784109 0.099163 0.701510 -0.533767
H25   H     H_    0.801689 0.190974 0.661466 0.262074
C58   C     C_3   0.824444 0.935365 0.726628 -0.554300
H26   H     H_    0.821613 0.850283 0.663227 0.193244
H27   H     H_    0.809397 0.849564 0.778708 0.198857
H28   H     H_    0.875333 0.978429 0.758374 0.211110
N3    N     N_2   0.286718 0.459799 0.699801 -0.543993
H29   H     H_    0.310460 0.542545 0.663681 0.258893
C59   C     C_3   0.311909 0.271684 0.710621 -0.539629
H30   H     H_    0.301480 0.201779 0.641254 0.193101
H31   H     H_    0.290371 0.189763 0.757297 0.212889
H32   H     H_    0.365005 0.275520 0.742487 0.210668
N4    N     N_2   0.714946 0.590019 0.298333 -0.534636
H33   H     H_    0.696635 0.679034 0.338864 0.263327
C60   C     C_3   0.675860 0.424480 0.272196 -0.555168
H34   H     H_    0.679702 0.336797 0.335001 0.191505
H35   H     H_    0.691326 0.342283 0.219255 0.200642
H36   H     H_    0.624594 0.465098 0.241191 0.211082

loop_
_geom_bond_atom_site_label_1
_geom_bond_atom_site_label_2
_ccdc_geom_bond_type
O17   V3    S    
C55   H7    S    
O1    C5    A    
C27   C31   A    
O19   V1    S    
O13   V1    S    
C45   C46   A    
O3    C7    A    
N2    H25   S    
C10   C14   A    
C48   C51   A    
C52   C56   A    
O4    V2    S    
O15   V3    S    
C4    C21   S    
C16   Cl4   S    
C21   C29   A    
N4    H33   S    
C38   C42   A    
O7    C3    A    
N1    C57   S    
O5    C1    A    
C8    C17   S    
C36   C40   A    
O9    V1    S    
N3    C59   S    
O16   V4    S    
O4    C8    A    
N4    C60   S    
C2    C23   S    
C38   C46   A    
C34   H9    S    
O1    V3    S    
C37   C45   A    
C12   C19   A    
O2    V4    S    
C14   C18   A    
O3    V1    S    
C24   C32   A    
C1    O15   A    
C2    O16   A    
C28   C44   A    
C46   C49   A    
C35   H12   S    
C50   H18   S    
C60   H36   S    
C57   H22   S    
C49   H17   S    
O14   V2    S    
C11   C15   A    
C47   C52   A    
C43   C55   A    
C40   C44   A    
C5    C20   S    
O11   C7    A    
C6    C19   S    
C25   C41   A    
O12   C8    A    
C7    C18   S    
C52   H20   S    
C9    C18   A    
C57   H23   S    
C1    C24   S    
O10   V2    S    
C11   C20   A    
C14   Cl2   S    
C53   H5    S    
O5    V1    S    
C59   H31   S    
C31   N4    S    
C35   C39   A    
C21   C33   A    
C34   C38   A    
C25   H13   S    
C22   C30   A    
C12   H4    S    
O7    V3    S    
C27   H15   S    
C24   C36   A    
C25   C29   A    
O18   V4    S    
C54   H6    S    
C45   C50   A    
C9    H1    S    
C28   C32   A    
O8    V4    S    
C11   H3    S    
C47   C48   A    
O2    C6    A    
C50   C54   A    
C26   C42   A    
C49   C53   A    
O8    C4    A    
C23   C35   A    
C32   N3    S    
N2    C58   S    
C10   C17   A    
C40   C48   A    
C44   C56   A    
O6    V2    S    
C60   H34   S    
C22   C34   A    
C57   H24   S    
C12   C16   A    
C23   C31   A    
C33   H10   S    
C58   H26   S    
C26   C30   A    
C59   H32   S    
C51   H19   S    
C28   H16   S    
C3    O13   A    
C10   H2    S    
C56   H8    S    
O6    C2    A    
C59   H30   S    
O11   V3    S    
O12   V4    S    
N1    H21   S    
C30   N1    S    
C9    C13   A    
C58   H28   S    
O20   V2    S    
C3    C22   S    
N3    H29   S    
O9    C5    A    
C51   C55   A    
O10   C6    A    
C29   N2    S    
C37   C41   A    
C13   Cl1   S    
C39   C43   A    
C42   C54   A    
C15   Cl3   S    
C26   H14   S    
C41   C53   A    
C33   C37   A    
C39   C47   A    
C4    O14   A    
C60   H35   S    
C13   C17   A    
C36   H11   S    
C15   C19   A    
C27   C43   A    
C16   C20   A    
C58   H27   S    
