data_mof_unit_15210.cif
_audit_creation_date              2012-12-10T18:02:47-0500
_audit_creation_method            fapswitch 2.2
_symmetry_space_group_name_H-M    P1
_symmetry_Int_Tables_number       1
_space_group_crystal_system       triclinic
_cell_length_a                    10.923627
_cell_length_b                    9.624029
_cell_length_c                    27.542704
_cell_angle_alpha                 88.552707
_cell_angle_beta                  94.552408
_cell_angle_gamma                 89.996736
_cell_volume                      2885.48327574

loop_
_atom_site_label
_atom_site_type_symbol
_atom_type_description
_atom_site_fract_x
_atom_site_fract_y
_atom_site_fract_z
_atom_type_partial_charge
C1    C     C_R   0.262293 0.500052 0.497812 0.909868
C2    C     C_R   0.319104 0.603916 0.868116 -0.036880
C3    C     C_R   0.501304 0.508717 0.353976 -0.388350
C4    C     C_R   0.457960 0.505241 0.644077 -0.351957
C5    C     C_R   0.341017 0.638808 0.970587 0.066061
C6    C     C_R   0.572373 0.589497 0.021565 0.068903
C7    C     C_R   0.565284 0.612380 0.970335 -0.078186
C8    C     C_R   0.354879 0.656817 0.021889 -0.078877
C9    C     C_R   0.447435 0.622862 0.944889 0.014266
C10   C     C_R   0.468489 0.618788 0.047335 0.012344
C11   C     C_R   0.224887 0.628604 0.944358 -0.154546
C12   C     C_R   0.738087 0.501031 0.500827 0.914783
C13   C     C_R   0.677287 0.531052 0.047611 -0.153402
C14   C     C_R   0.214293 0.610680 0.894105 -0.179249
C15   C     C_R   0.682770 0.511418 0.097935 -0.174940
C16   C     C_R   0.498898 0.501713 0.407389 0.912431
C17   C     C_R   0.491605 0.499516 0.592512 0.868158
C18   C     C_R   0.260595 0.710150 0.049141 0.468810
C19   C     C_R   0.670578 0.623842 0.943194 0.454945
C20   C     C_R   0.069868 0.392193 0.521389 0.309815
C21   C     C_R   0.931965 0.616824 0.477875 0.314723
C22   C     C_R   0.943957 0.403506 0.526963 0.355423
C23   C     C_R   0.477835 0.607344 0.098902 -0.059934
C24   C     C_R   0.059463 0.609314 0.472689 0.289625
C25   C     C_R   0.872869 0.505537 0.500869 -0.349180
C26   C     C_R   0.128131 0.499418 0.496367 -0.360817
C27   C     C_R   0.406350 0.075842 0.475737 0.386369
C28   C     C_R   0.587964 0.922683 0.527466 0.414738
C29   C     C_R   0.593352 0.070972 0.524143 0.351528
C30   C     C_R   0.414794 0.928070 0.471223 0.426252
C31   C     C_R   0.391415 0.637563 0.176370 0.634759
C32   C     C_R   0.528476 0.596535 0.816837 0.619413
C33   C     C_R   0.588380 0.531457 0.174885 0.605304
C34   C     C_R   0.435899 0.613552 0.893459 -0.056769
C35   C     C_R   0.310632 0.581860 0.817565 0.619745
C36   C     C_R   0.591916 0.609404 0.283153 0.394707
C37   C     C_R   0.362434 0.637719 0.706261 0.372815
C38   C     C_R   0.598598 0.578393 0.333412 0.283839
C39   C     C_R   0.380206 0.614795 0.656989 0.278908
C40   C     C_R   0.404891 0.454608 0.323160 0.288452
C41   C     C_R   0.502602 0.409286 0.680996 0.314579
C42   C     C_R   0.407780 0.467723 0.272396 0.404728
C43   C     C_R   0.467142 0.421533 0.728900 0.380808
C44   C     C_R   0.497439 0.551582 0.252218 -0.004061
C45   C     C_R   0.380014 0.649783 0.125239 -0.126898
C46   C     C_R   0.409005 0.542566 0.742333 0.042940
C47   C     C_3   0.216851 0.483815 0.349991 -0.308687
C48   C     C_3   0.700840 0.337689 0.693020 -0.296143
C49   C     C_3   0.261308 0.154505 0.415907 -0.196192
C50   C     C_3   0.661778 0.832177 0.602417 -0.249459
C51   C     C_3   0.691657 0.160755 0.592030 -0.054321
C52   C     C_3   0.391044 0.861968 0.392234 -0.287179
C53   C     C_3   0.355936 0.272810 0.231539 -0.251481
C54   C     C_3   0.423878 0.210372 0.760775 -0.291451
C55   C     C_3   0.206953 0.666028 0.609173 -0.239195
C56   C     C_R   0.541362 0.610535 0.867468 -0.112226
C57   C     C_3   0.782595 0.496915 0.363722 -0.236759
C58   C     C_3   0.368477 0.866682 0.723348 -0.266704
C59   C     C_3   0.647850 0.829722 0.265337 -0.261867
C60   C     C_3   0.184160 0.913575 0.016501 -0.336280
C61   C     C_3   0.804597 0.784338 0.974338 -0.300511
C62   C     C_3   0.097156 0.156314 0.536356 -0.102491
C63   C     C_3   0.897135 0.846488 0.490118 -0.173400
C64   C     C_3   0.925896 0.392796 0.608119 -0.352600
C65   C     C_3   0.067322 0.737729 0.400304 -0.186600
C66   C     C_R   0.273648 0.704371 0.100093 -0.209658
C67   C     C_R   0.657466 0.620734 0.892444 -0.209392
C68   C     C_R   0.584384 0.551080 0.124094 -0.029121
Cu1   Cu    Cu3+1 0.500000 0.640660 0.500000 1.057425
Cu2   Cu    Cu3+1 0.500000 0.359340 0.500000 1.025436
H1    H     H_    0.199147 0.742876 0.119788 0.205418
H2    H     H_    0.702690 0.352072 0.732908 0.245362
H3    H     H_    0.737616 0.432486 0.675528 0.138036
H4    H     H_    0.763030 0.249065 0.688351 0.153504
H5    H     H_    0.199944 0.245764 0.410155 0.185441
H6    H     H_    0.205671 0.063905 0.403446 0.169706
H7    H     H_    0.341696 0.171888 0.394122 0.186326
H8    H     H_    0.682449 0.722944 0.614002 0.171756
H9    H     H_    0.566484 0.857037 0.611430 0.159243
H10   H     H_    0.728267 0.895010 0.624806 0.137428
H11   H     H_    0.692946 0.274096 0.596682 0.233104
H12   H     H_    0.739571 0.625038 0.872812 0.204846
H13   H     H_    0.775685 0.118956 0.612450 0.137504
H14   H     H_    0.609473 0.117110 0.608650 0.127284
H15   H     H_    0.360110 0.768546 0.372034 0.175155
H16   H     H_    0.493569 0.861520 0.395468 0.166115
H17   H     H_    0.359206 0.951638 0.368819 0.114501
H18   H     H_    0.371037 0.205892 0.265060 0.161353
H19   H     H_    0.440708 0.277049 0.211620 0.146904
H20   H     H_    0.283097 0.223637 0.207423 0.188148
H21   H     H_    0.426986 0.160529 0.724896 0.175108
H22   H     H_    0.328206 0.242183 0.766597 0.163778
H23   H     H_    0.123366 0.600678 0.875774 0.192032
H24   H     H_    0.453271 0.131738 0.789487 0.182374
H25   H     H_    0.148300 0.679937 0.639903 0.184532
H26   H     H_    0.202763 0.556450 0.597315 0.138714
H27   H     H_    0.168733 0.732629 0.578143 0.175198
H28   H     H_    0.820579 0.483763 0.327810 0.189345
H29   H     H_    0.737361 0.399164 0.375387 0.128663
H30   H     H_    0.860195 0.513993 0.390925 0.159723
H31   H     H_    0.404844 0.897234 0.688010 0.178002
H32   H     H_    0.445204 0.850281 0.752009 0.152421
H33   H     H_    0.311715 0.953812 0.734573 0.171849
H34   H     H_    0.764629 0.464612 0.116239 0.191790
H35   H     H_    0.640142 0.862933 0.303418 0.161750
H36   H     H_    0.560153 0.850186 0.242830 0.145731
H37   H     H_    0.719966 0.894247 0.249770 0.189902
H38   H     H_    0.256707 0.922404 0.990406 0.172878
H39   H     H_    0.212115 0.970264 0.050336 0.169344
H40   H     H_    0.100333 0.964839 0.999081 0.188502
H41   H     H_    0.738952 0.822242 0.999973 0.165216
H42   H     H_    0.796556 0.847844 0.939873 0.159968
H43   H     H_    0.898656 0.799001 0.991698 0.226529
H44   H     H_    0.174315 0.081843 0.543656 0.181167
H45   H     H_    0.140734 0.625140 0.962342 0.212361
H46   H     H_    0.062679 0.146927 0.497385 0.138350
H47   H     H_    0.025345 0.123534 0.560507 0.177908
H48   H     H_    0.900323 0.818813 0.529719 0.171346
H49   H     H_    0.827566 0.929583 0.482257 0.197272
H50   H     H_    0.986820 0.891102 0.481671 0.154126
H51   H     H_    0.868749 0.487413 0.610986 0.144101
H52   H     H_    0.024862 0.420022 0.613709 0.182420
H53   H     H_    0.908964 0.319204 0.638237 0.171250
H54   H     H_    0.028610 0.642736 0.383098 0.117077
H55   H     H_    0.139238 0.776415 0.377300 0.164067
H56   H     H_    0.753599 0.491703 0.029473 0.202493
H57   H     H_    0.996929 0.820830 0.399208 0.200524
H58   H     H_    0.195921 0.556098 0.318130 0.194837
H59   H     H_    0.244681 0.542768 0.383169 0.164909
H60   H     H_    0.130521 0.428029 0.356310 0.164383
N1    N     N_R   0.493075 0.575588 0.200156 -0.414309
N2    N     N_R   0.414866 0.576725 0.793124 -0.408315
N3    N     N_R   0.500000 0.852070 0.500000 -0.270673
N4    N     N_R   0.500000 0.147930 0.500000 -0.273267
O1    O     O_R   0.319640 0.618740 0.500000 -0.512714
O2    O     O_2   0.629229 0.600316 0.791417 -0.563818
O3    O     O_2   0.199853 0.563103 0.793374 -0.523165
O4    O     O_2   0.685871 0.466642 0.198687 -0.527143
O5    O     O_3   0.308018 0.385561 0.341886 -0.575567
O6    O     O_3   0.583023 0.305330 0.671183 -0.593561
O7    O     O_3   0.294378 0.141358 0.466013 -0.553870
O8    O     O_3   0.682667 0.849093 0.552592 -0.554220
O9    O     O_3   0.698597 0.135721 0.542277 -0.539950
O10   O     O_3   0.337365 0.860692 0.437569 -0.507603
O11   O     O_3   0.316392 0.407005 0.242514 -0.512092
O12   O     O_R   0.680360 0.381260 0.500000 -0.537258
O13   O     O_3   0.504602 0.324087 0.764745 -0.545009
O14   O     O_3   0.328893 0.707167 0.621788 -0.543447
O15   O     O_3   0.702719 0.612640 0.362307 -0.521604
O16   O     O_3   0.292668 0.748850 0.718845 -0.524798
O17   O     O_3   0.682591 0.688918 0.263997 -0.509689
O18   O     O_3   0.156411 0.773483 0.027053 -0.599756
O19   O     O_3   0.787443 0.641902 0.965194 -0.595131
O20   O     O_3   0.140450 0.291166 0.547635 -0.555017
O21   O     O_3   0.864487 0.732092 0.460538 -0.533816
O22   O     O_3   0.894466 0.327241 0.563465 -0.548482
O23   O     O_R   0.680360 0.618740 0.500000 -0.499568
O24   O     O_3   0.120768 0.713277 0.448286 -0.529149
O25   O     O_R   0.319640 0.381260 0.500000 -0.497731
O26   O     O_R   0.500020 0.618770 0.430260 -0.558353
O27   O     O_R   0.499980 0.381230 0.569740 -0.568119
O28   O     O_R   0.499980 0.618770 0.569740 -0.547791
O29   O     O_R   0.500020 0.381230 0.430260 -0.583729
O30   O     O_2   0.301282 0.686545 0.202101 -0.537496

loop_
_geom_bond_atom_site_label_1
_geom_bond_atom_site_label_2
_ccdc_geom_bond_type
C2    C35   A    
C34   C56   A    
C23   C45   A    
C16   O26   A    
C37   O16   S    
Cu2   O29   S    
C47   H58   S    
C22   O22   S    
C44   N1    S    
C54   H22   S    
C52   O10   S    
C20   O20   S    
C47   H59   S    
C65   H57   S    
C52   H15   S    
C24   C26   A    
C62   H44   S    
C46   N2    S    
C11   C14   A    
C24   O24   S    
C4    C41   A    
C15   C68   A    
C64   H51   S    
C57   H29   S    
C40   O5    S    
Cu1   O26   S    
C30   O10   S    
Cu2   O25   S    
C60   O18   S    
C65   H54   S    
C12   O12   A    
C62   H47   S    
C31   N1    A    
C60   H39   S    
C3    C38   A    
C41   O6    S    
C22   C25   A    
C57   O15   S    
C39   O14   S    
Cu1   O23   S    
C49   H5    S    
C19   C67   A    
Cu2   O12   S    
C12   O23   A    
C11   H45   S    
C51   H11   S    
C38   O15   S    
C60   H38   S    
C2    C34   A    
C40   C42   A    
C29   N4    A    
Cu1   O1    S    
C50   H9    S    
C27   C30   A    
C41   C43   A    
C42   C44   A    
C48   H2    S    
C18   O18   S    
C50   H8    S    
C16   O29   A    
C59   H36   S    
C48   O6    S    
C47   H60   S    
C28   N3    A    
C48   H4    S    
C1    O25   A    
C43   O13   S    
Cu1   O28   S    
C55   H25   S    
C17   O28   A    
C32   O2    S    
C63   H48   S    
C55   H26   S    
C57   H30   S    
C59   H37   S    
C62   O20   S    
C49   O7    S    
C45   C66   A    
C65   H55   S    
C23   C68   A    
C29   O9    S    
C5    C9    A    
C59   O17   S    
C63   H49   S    
C66   H1    S    
C4    C39   A    
C33   O4    S    
C30   N3    A    
C55   H27   S    
C53   O11   S    
C21   O21   S    
C49   H6    S    
C58   H31   S    
C59   H35   S    
C17   O27   A    
C58   H32   S    
C13   H56   S    
C8    C10   A    
C20   C22   A    
C3    C40   A    
C7    C19   A    
C13   C15   A    
C61   H43   S    
C9    C34   A    
C15   H34   S    
C36   C44   A    
C28   O8    S    
C4    C17   S    
C56   C67   A    
Cu2   O27   S    
C51   H13   S    
C32   N2    A    
C61   O19   S    
C7    C9    A    
C21   C25   A    
C31   O30   S    
C28   C29   A    
Cu1   N3    S    
C14   H23   S    
C27   N4    A    
C48   H3    S    
C52   H17   S    
C65   O24   S    
C50   H10   S    
C6    C10   A    
C5    C8    A    
C36   O17   S    
C5    C11   A    
C6    C7    A    
C51   O9    S    
C10   C23   A    
C18   C66   A    
C64   H53   S    
C64   O22   S    
C12   C25   S    
C52   H16   S    
C63   O21   S    
C54   H21   S    
C37   C39   A    
C35   O3    S    
C6    C13   A    
C53   H19   S    
C63   H50   S    
C61   H42   S    
C33   N1    A    
C55   O14   S    
C1    C26   S    
C20   C26   A    
C19   O19   S    
C57   H28   S    
C35   N2    A    
C36   C38   A    
C27   O7    S    
C49   H7    S    
C53   H18   S    
Cu1   Cu2   S    
C2    C14   A    
C43   C46   A    
C8    C18   A    
C54   H24   S    
C60   H40   S    
C62   H46   S    
C50   O8    S    
C67   H12   S    
C64   H52   S    
C31   C45   A    
C21   C24   A    
C47   O5    S    
C53   H20   S    
Cu2   N4    S    
C58   H33   S    
C37   C46   A    
C1    O1    A    
C42   O11   S    
C51   H14   S    
C32   C56   A    
C3    C16   S    
C58   O16   S    
C33   C68   A    
C54   O13   S    
C61   H41   S    
