data_mof_unit_37435.cif
_audit_creation_date              2012-12-10T20:42:43-0500
_audit_creation_method            fapswitch 2.2
_symmetry_space_group_name_H-M    P1
_symmetry_Int_Tables_number       1
_space_group_crystal_system       triclinic
_cell_length_a                    8.943926
_cell_length_b                    10.755634
_cell_length_c                    9.895135
_cell_angle_alpha                 91.645678
_cell_angle_beta                  89.88665
_cell_angle_gamma                 91.605316
_cell_volume                      951.12146758

loop_
_atom_site_label
_atom_site_type_symbol
_atom_type_description
_atom_site_fract_x
_atom_site_fract_y
_atom_site_fract_z
_atom_type_partial_charge
C1    C     C_R   0.495954 0.259840 0.497944 0.872414
C2    C     C_R   0.368348 0.497288 0.928589 0.059700
C3    C     C_3   0.244770 0.402439 0.914226 0.225174
C4    C     C_R   0.218694 0.499238 0.500065 0.913439
C5    C     C_3   0.256763 0.387439 0.065955 0.194255
C6    C     C_R   0.498636 0.739306 0.501874 0.934809
C7    C     C_R   0.781257 0.499412 0.499902 0.940876
C8    C     C_1   0.065292 0.498672 0.500139 -0.195230
C9    C     C_1   0.934618 0.498605 0.499781 -0.214362
C10   C     C_R   0.520801 0.066349 0.612142 0.041469
C11   C     C_R   0.482842 0.127005 0.495342 -0.128649
C12   C     C_R   0.424723 0.925314 0.390970 -0.261262
C13   C     C_R   0.423673 0.054268 0.384332 0.142626
C14   C     C_3   0.364218 0.105135 0.255765 -0.389291
C15   C     C_3   0.486246 0.109988 0.147085 -0.859473
C16   C     C_3   0.156722 0.221521 0.810992 0.094400
C17   C     C_3   0.198884 0.091955 0.762294 -0.855983
C18   C     C_3   0.053092 0.300346 0.179235 0.114801
C19   C     C_3   0.887397 0.296158 0.146650 -0.879844
C20   C     C_3   0.825941 0.837683 0.815110 0.119127
C21   C     C_3   0.962005 0.763437 0.774397 -0.833680
C22   C     C_3   0.786641 0.140602 0.685366 -0.318925
C23   C     C_R   0.480621 0.869231 0.505221 -0.109676
C24   C     C_3   0.846043 0.109115 0.542993 -0.790389
C25   C     C_R   0.512824 0.941268 0.619971 0.001986
C26   C     C_3   0.621261 0.938782 0.734831 0.314285
C27   C     C_3   0.632903 0.081893 0.723866 -0.112836
C28   C     C_R   0.368181 0.493908 0.071136 0.114851
C29   C     C_R   0.628337 0.521097 0.072071 -0.149685
C30   C     C_R   0.628865 0.518657 0.928510 -0.136631
H1    H     H_    0.313537 0.302368 0.093808 0.109274
H2    H     H_    0.435822 0.124658 0.046656 0.242018
H3    H     H_    0.270230 0.044256 0.217100 0.181596
H4    H     H_    0.314250 0.196134 0.276251 0.198423
H5    H     H_    0.091084 0.265421 0.730640 0.145579
H6    H     H_    0.084469 0.210573 0.901643 0.128557
H7    H     H_    0.292808 0.057996 0.823061 0.253063
H8    H     H_    0.102414 0.026261 0.773112 0.217785
H9    H     H_    0.229231 0.093392 0.653857 0.244121
H10   H     H_    0.067320 0.295840 0.290446 0.155106
H11   H     H_    0.098955 0.213707 0.133076 0.103079
H12   H     H_    0.386865 0.869009 0.304251 0.178732
H13   H     H_    0.869280 0.315717 0.038356 0.243283
H14   H     H_    0.839334 0.202428 0.167979 0.205964
H15   H     H_    0.829875 0.364995 0.211206 0.283396
H16   H     H_    0.751870 0.776975 0.877246 0.135521
H17   H     H_    0.863738 0.920407 0.877401 0.119605
H18   H     H_    0.034327 0.816954 0.704233 0.257249
H19   H     H_    0.027593 0.742083 0.865625 0.205011
H20   H     H_    0.925532 0.674679 0.723330 0.259261
H21   H     H_    0.841751 0.007858 0.519525 0.301872
H22   H     H_    0.782158 0.157217 0.465201 0.232155
H23   H     H_    0.563051 0.907195 0.828259 0.024416
H24   H     H_    0.964271 0.142393 0.535366 0.213167
H25   H     H_    0.779560 0.243395 0.695681 0.198022
H26   H     H_    0.868699 0.112838 0.761356 0.188039
H27   H     H_    0.583998 0.129637 0.814152 0.130873
H28   H     H_    0.731997 0.539457 0.125588 0.172324
H29   H     H_    0.733582 0.531527 0.875349 0.150199
H30   H     H_    0.140289 0.446155 0.879285 0.090941
H31   H     H_    0.567785 0.187121 0.170158 0.279085
H32   H     H_    0.546248 0.020953 0.140283 0.248347
N1    N     N_R   0.499010 0.499140 0.142800 -0.119210
N2    N     N_R   0.499010 0.499180 0.857150 -0.075347
O1    O     O_R   0.500020 0.316790 0.614690 -0.564475
O2    O     O_3   0.121173 0.412764 0.133984 -0.597769
O3    O     O_3   0.751607 0.874521 0.697712 -0.584094
O4    O     O_R   0.500000 0.316760 0.385350 -0.634656
O5    O     O_R   0.285350 0.500020 0.614650 -0.615384
O6    O     O_R   0.285340 0.499980 0.385310 -0.586729
O7    O     O_R   0.500000 0.683240 0.614650 -0.610137
O8    O     O_R   0.499980 0.683210 0.385310 -0.628870
O9    O     O_R   0.714660 0.500020 0.614690 -0.637850
O10   O     O_R   0.714650 0.499980 0.385350 -0.628899
O11   O     O_3   0.286968 0.294634 0.840392 -0.584241
Zn1   Zn    Zn3+2 0.500010 0.500020 0.653130 0.976434
Zn2   Zn    Zn3+2 0.499990 0.499980 0.346870 0.946867

loop_
_geom_bond_atom_site_label_1
_geom_bond_atom_site_label_2
_ccdc_geom_bond_type
C10   C27   S    
C24   H22   S    
C29   N1    A    
C30   N2    A    
C16   O11   S    
C20   O3    S    
C1    C11   S    
C4    C8    S    
C14   H3    S    
C4    O6    A    
C15   H2    S    
C7    O9    A    
C6    O8    A    
C12   C13   A    
C12   C23   A    
C26   C27   S    
O8    Zn2   S    
O1    Zn1   S    
C26   O3    S    
C16   H5    S    
O7    Zn1   S    
C24   H24   S    
C1    O4    A    
O5    Zn1   S    
C18   C19   S    
C17   H9    S    
C18   H10   S    
C21   H20   S    
C12   H12   S    
C19   H13   S    
C8    C9    T    
O10   Zn2   S    
C1    O1    A    
C3    O11   S    
C21   H18   S    
C3    H30   S    
C24   H21   S    
C13   C14   S    
O6    Zn2   S    
C21   H19   S    
C4    O5    A    
C2    N2    A    
C7    O10   A    
C15   H31   S    
C6    O7    A    
C27   H27   S    
C18   H11   S    
C16   C17   S    
C22   H26   S    
C25   C26   S    
C29   C30   A    
C5    C28   S    
C30   H29   S    
N2    Zn1   S    
C17   H7    S    
C29   H28   S    
C10   C25   A    
C22   C27   S    
O9    Zn1   S    
C22   C24   S    
C26   H23   S    
C19   H14   S    
N1    Zn2   S    
O4    Zn2   S    
C7    C9    S    
C5    O2    S    
C3    C5    S    
C14   H4    S    
C19   H15   S    
C22   H25   S    
C18   O2    S    
C2    C3    S    
C16   H6    S    
C11   C13   A    
C6    C23   S    
C15   H32   S    
C17   H8    S    
C23   C25   A    
C20   H17   S    
C10   C11   A    
C28   N1    A    
C20   C21   S    
C14   C15   S    
C2    C28   A    
C20   H16   S    
C5    H1    S    
