data_mof_unit_53661.cif
_audit_creation_date              2012-12-10T16:46:50-0500
_audit_creation_method            fapswitch 2.2
_symmetry_space_group_name_H-M    P1
_symmetry_Int_Tables_number       1
_space_group_crystal_system       triclinic
_cell_length_a                    15.857134
_cell_length_b                    8.692078
_cell_length_c                    7.45047
_cell_angle_alpha                 103.021957
_cell_angle_beta                  93.962834
_cell_angle_gamma                 92.185291
_cell_volume                      996.584010675

loop_
_atom_site_label
_atom_site_type_symbol
_atom_type_description
_atom_site_fract_x
_atom_site_fract_y
_atom_site_fract_z
_atom_type_partial_charge
C1    C     C_R   0.497476 0.199728 0.453256 0.879224
C2    C     C_2   0.503688 0.968173 0.572997 -0.368067
C3    C     C_R   0.340353 0.499931 0.502754 0.822125
C4    C     C_R   0.502499 0.800271 0.546745 0.881558
C5    C     C_R   0.659654 0.500173 0.497280 0.820340
C6    C     C_3   0.048480 0.382220 0.610977 -0.383107
C7    C     C_3   0.043851 0.454937 0.304738 -0.490337
C8    C     C_3   0.946031 0.456727 0.299087 -0.393836
C9    C     C_1   0.749120 0.500616 0.492159 -0.178773
C10   C     C_3   0.083226 0.503970 0.507545 0.237333
C11   C     C_3   0.066862 0.738367 0.926623 -0.321382
C12   C     C_3   0.950768 0.385017 0.609090 -0.388890
C13   C     C_3   0.917058 0.503878 0.497751 0.283093
C14   C     C_3   0.955610 0.671794 0.591961 -0.461458
C15   C     C_3   0.054710 0.673107 0.593896 0.414282
C16   C     C_1   0.824726 0.501760 0.492483 -0.089299
C17   C     C_1   0.175458 0.502385 0.509653 -0.040770
C18   C     C_1   0.250955 0.501215 0.508418 -0.154270
C19   C     C_2   0.496254 0.031823 0.427005 -0.368939
Cu1   Cu    Cu3+1 0.509300 0.517380 0.684380 0.956876
Cu2   Cu    Cu3+1 0.490700 0.482620 0.315620 0.956237
H1    H     H_    0.922197 0.264242 0.546258 0.168215
H2    H     H_    0.068233 0.536906 0.222790 0.155345
H3    H     H_    0.062406 0.334410 0.238134 0.191778
H4    H     H_    0.917795 0.337530 0.227970 0.176279
H5    H     H_    0.923574 0.541737 0.217095 0.161123
H6    H     H_    0.071281 0.747095 0.495867 0.081125
H7    H     H_    0.931357 0.709550 0.730039 0.164396
H8    H     H_    0.030905 0.625300 0.919280 0.148123
H9    H     H_    0.025885 0.839255 0.966827 0.161315
H10   H     H_    0.118268 0.750471 0.038485 0.185695
H11   H     H_    0.077853 0.404955 0.754761 0.175712
H12   H     H_    0.931884 0.417618 0.753289 0.158918
H13   H     H_    0.932022 0.757802 0.512394 0.132949
H14   H     H_    0.489240 0.960220 0.286310 0.180941
H15   H     H_    0.510698 0.039776 0.713692 0.179941
H16   H     H_    0.434947 0.376862 0.948727 0.228047
H17   H     H_    0.565049 0.623143 0.051274 0.224833
H18   H     H_    0.065841 0.261453 0.542086 0.168035
N1    N     N_2   0.476670 0.456430 0.038530 -0.213626
N2    N     N_2   0.523330 0.543570 0.961470 -0.215557
O1    O     O_R   0.506050 0.286130 0.619770 -0.585385
O2    O     O_R   0.490330 0.256780 0.308370 -0.585755
O3    O     O_R   0.387300 0.514690 0.655770 -0.577291
O4    O     O_R   0.371580 0.485340 0.344370 -0.576122
O5    O     O_R   0.509670 0.743220 0.691630 -0.585406
O6    O     O_R   0.493950 0.713870 0.380230 -0.584304
O7    O     O_R   0.628420 0.514660 0.655630 -0.577255
O8    O     O_R   0.612700 0.485310 0.344230 -0.584755
O9    O     O_3   0.103763 0.746691 0.761771 -0.569253

loop_
_geom_bond_atom_site_label_1
_geom_bond_atom_site_label_2
_ccdc_geom_bond_type
C14   H13   S    
C7    C10   S    
Cu1   O1    S    
C5    C9    S    
C8    C13   S    
C8    H5    S    
C2    C4    S    
Cu2   O8    S    
C17   C18   T    
C13   C16   S    
C11   H10   S    
C7    C8    S    
C11   O9    S    
C19   H14   S    
C13   C14   S    
C12   C13   S    
C8    H4    S    
C5    O8    A    
Cu1   O7    S    
Cu2   N1    S    
H17   N2    S    
C7    H2    S    
N1    N2    D    
Cu1   O3    S    
C9    C16   T    
C1    O2    A    
Cu1   N2    S    
H16   N1    S    
Cu2   O4    S    
C10   C15   S    
C6    C12   S    
C5    O7    A    
Cu1   O5    S    
C3    O3    A    
C1    C19   S    
C6    C10   S    
C10   C17   S    
C7    H3    S    
C12   H1    S    
C1    O1    A    
Cu1   Cu2   S    
C11   H8    S    
C3    C18   S    
C6    H11   S    
C15   O9    S    
C2    H15   S    
C2    C19   D    
C6    H18   S    
C4    O5    A    
C14   H7    S    
C12   H12   S    
C14   C15   S    
C15   H6    S    
C3    O4    A    
Cu2   O2    S    
C11   H9    S    
Cu2   O6    S    
C4    O6    A    
