data_mof_unit_57572.cif
_audit_creation_date              2012-12-10T17:51:31-0500
_audit_creation_method            fapswitch 2.2
_symmetry_space_group_name_H-M    P1
_symmetry_Int_Tables_number       1
_space_group_crystal_system       triclinic
_cell_length_a                    10.034925
_cell_length_b                    10.705946
_cell_length_c                    16.598897
_cell_angle_alpha                 94.168682
_cell_angle_beta                  83.850571
_cell_angle_gamma                 86.392091
_cell_volume                      1763.8212586

loop_
_atom_site_label
_atom_site_type_symbol
_atom_type_description
_atom_site_fract_x
_atom_site_fract_y
_atom_site_fract_z
_atom_type_partial_charge
C1    C     C_R   0.496051 0.739868 0.495341 0.908257
C2    C     C_R   0.526127 0.558290 0.264759 -0.030430
C3    C     C_R   0.242982 0.914751 0.539927 -0.267759
C4    C     C_R   0.479748 0.491845 0.653607 0.930318
C5    C     C_R   0.138734 0.995606 0.582107 -0.102388
C6    C     C_R   0.167326 0.114350 0.615198 0.138911
C7    C     C_R   0.298659 0.149414 0.603830 -0.122603
C8    C     C_R   0.397065 0.075966 0.550793 0.074038
C9    C     C_R   0.375928 0.951803 0.527206 0.058620
C10   C     C_R   0.486989 0.874029 0.486676 -0.184992
C11   C     C_R   0.601437 0.928429 0.450537 -0.000072
C12   C     C_R   0.337279 0.512156 0.790772 0.150881
C13   C     C_R   0.610435 0.055918 0.464838 -0.184174
C14   C     C_R   0.509193 0.128959 0.513099 -0.103892
C15   C     C_R   0.841155 0.650896 0.629693 -0.004821
C16   C     C_R   0.503162 0.261269 0.504729 0.871098
C17   C     C_R   0.910051 0.688668 0.696930 0.174332
C18   C     C_R   0.047104 0.698305 0.684854 -0.234773
C19   C     C_R   0.118307 0.652938 0.612401 -0.242319
C20   C     C_R   0.059631 0.579199 0.555134 0.137053
C21   C     C_R   0.914905 0.579748 0.558306 0.048731
C22   C     C_R   0.941804 0.410408 0.456221 -0.022375
C23   C     C_R   0.437483 0.700956 0.171567 -0.168420
C24   C     C_R   0.084788 0.413723 0.452749 0.163470
C25   C     C_R   0.518707 0.509899 0.346919 0.901728
C26   C     C_R   0.464212 0.488921 0.743576 -0.089934
C27   C     C_R   0.579987 0.479768 0.784922 -0.052595
C28   C     C_R   0.572515 0.530857 0.865259 -0.191857
C29   C     C_R   0.449777 0.582554 0.905944 0.187958
C30   C     C_R   0.331926 0.565834 0.870417 -0.150756
C31   C     C_2   0.701121 0.399706 0.749721 0.918879
C32   C     C_2   0.707788 0.857771 0.392199 0.969724
C33   C     C_2   0.999379 0.958126 0.584502 1.007798
C34   C     C_R   0.426297 0.651095 0.247187 0.152242
C35   C     C_3   0.058014 0.212808 0.649219 -0.860921
C36   C     C_2   0.886061 0.295501 0.423917 0.960937
C37   C     C_2   0.720803 0.736452 0.628737 1.005516
C38   C     C_3   0.838012 0.740644 0.778194 -0.734860
C39   C     C_3   0.306918 0.700997 0.306670 -0.796648
C40   C     C_3   0.169541 0.312650 0.398368 -0.768899
C41   C     C_3   0.744154 0.423883 0.216808 -0.817635
C42   C     C_2   0.631248 0.760999 0.984257 0.923310
C43   C     C_3   0.212767 0.455633 0.765940 -0.869189
C44   C     C_R   0.636452 0.521978 0.204769 0.084565
C45   C     C_R   0.643831 0.574375 0.129868 -0.099099
C46   C     C_R   0.544000 0.661557 0.112980 0.059178
C47   C     C_2   0.439362 0.622379 0.992731 -0.300481
C48   C     C_2   0.533014 0.684612 0.028189 -0.067838
H1    H     H_    0.723785 0.541921 0.082325 0.153230
H2    H     H_    0.660500 0.523818 0.897724 0.153056
H3    H     H_    0.772292 0.241802 0.680587 0.363669
H4    H     H_    0.757587 0.715175 0.306232 0.346679
H5    H     H_    0.957031 0.994778 0.706012 0.293743
H6    H     H_    0.975960 0.212948 0.609603 0.267347
H7    H     H_    0.019762 0.195972 0.712370 0.249948
H8    H     H_    0.094164 0.308441 0.649247 0.249939
H9    H     H_    0.790606 0.211527 0.336518 0.324991
H10   H     H_    0.533901 0.796819 0.679568 0.332334
H11   H     H_    0.763975 0.674997 0.799691 0.276850
H12   H     H_    0.214094 0.829677 0.510159 0.201184
H13   H     H_    0.908378 0.751776 0.825138 0.209774
H14   H     H_    0.785881 0.833818 0.773136 0.277651
H15   H     H_    0.245961 0.777061 0.282577 0.228361
H16   H     H_    0.238735 0.625586 0.319841 0.255610
H17   H     H_    0.341773 0.742106 0.362938 0.252576
H18   H     H_    0.273447 0.333780 0.382966 0.277583
H19   H     H_    0.169792 0.222883 0.427937 0.258478
H20   H     H_    0.128227 0.299067 0.339131 0.198610
H21   H     H_    0.696760 0.338145 0.235493 0.252101
H22   H     H_    0.812255 0.396643 0.160133 0.225320
H23   H     H_    0.320726 0.240493 0.629775 0.156660
H24   H     H_    0.806808 0.461951 0.262585 0.289751
H25   H     H_    0.808756 0.839987 0.981758 0.340586
H26   H     H_    0.183701 0.488003 0.708948 0.274213
H27   H     H_    0.231465 0.352018 0.758979 0.239787
H28   H     H_    0.124866 0.478436 0.812512 0.256157
H29   H     H_    0.692215 0.099799 0.433431 0.201251
H30   H     H_    0.099956 0.742594 0.731626 0.169016
H31   H     H_    0.222909 0.666369 0.606535 0.227926
H32   H     H_    0.235742 0.587684 0.906756 0.139775
H33   H     H_    0.359358 0.766830 0.156187 0.152070
H34   H     H_    0.363150 0.578720 0.030768 0.162231
N1    N     N_R   0.857140 0.501200 0.500750 -0.169320
N2    N     N_R   0.142740 0.501280 0.500770 -0.120931
O1    O     O_R   0.385310 0.683220 0.500000 -0.669488
O2    O     O_R   0.686392 0.296772 0.695322 -0.791721
O3    O     O_2   0.821313 0.893909 0.383699 -0.561272
O4    O     O_R   0.677064 0.753726 0.343992 -0.827707
O5    O     O_2   0.961059 0.911011 0.522737 -0.500520
O6    O     O_R   0.910543 0.975334 0.655852 -0.764336
O7    O     O_2   0.911074 0.196279 0.453175 -0.624469
O8    O     O_R   0.811395 0.298147 0.358285 -0.818401
O9    O     O_2   0.729651 0.828484 0.589743 -0.553079
O10   O     O_R   0.606228 0.727606 0.683281 -0.828136
O11   O     O_2   0.605623 0.806042 0.921585 -0.616310
O12   O     O_R   0.614640 0.683250 0.500010 -0.586764
O13   O     O_R   0.750674 0.786035 0.016677 -0.811698
O14   O     O_R   0.371780 0.500010 0.615800 -0.652553
O15   O     O_R   0.601110 0.500030 0.615800 -0.593881
O16   O     O_R   0.385360 0.316750 0.499990 -0.630092
O17   O     O_R   0.614690 0.316780 0.500000 -0.581375
O18   O     O_R   0.398890 0.499970 0.384200 -0.641585
O19   O     O_R   0.628220 0.499990 0.384200 -0.545694
O20   O     O_2   0.811451 0.418879 0.771092 -0.656137
Zn1   Zn    Zn3+2 0.346870 0.499980 0.499990 0.909138
Zn2   Zn    Zn3+2 0.653130 0.500020 0.500010 1.020061

loop_
_geom_bond_atom_site_label_1
_geom_bond_atom_site_label_2
_ccdc_geom_bond_type
H9    O8    S    
C4    O14   A    
C19   C20   A    
C7    C8    A    
C45   C46   A    
H25   O13   S    
C39   H16   S    
C26   C27   A    
O14   Zn1   S    
C29   C47   S    
C28   C29   A    
C12   C43   S    
C7    H23   S    
C5    C6    A    
C25   O18   A    
C32   O4    S    
O17   Zn2   S    
C6    C35   S    
O18   Zn1   S    
C18   C19   A    
C47   H34   S    
C15   C37   S    
C28   H2    S    
C21   N1    A    
C2    C44   A    
C8    C9    A    
C40   H19   S    
C5    C33   S    
C2    C25   S    
C9    C10   A    
C38   H13   S    
C30   H32   S    
C3    H12   S    
C36   O8    S    
C43   H26   S    
C31   O2    S    
C40   H18   S    
C13   C14   A    
C35   H6    S    
C43   H27   S    
C39   H17   S    
O1    Zn1   S    
H3    O2    S    
N2    Zn1   S    
C46   C48   S    
C1    O1    A    
C13   H29   S    
C27   C31   S    
C42   O11   D    
H4    O4    S    
C42   O13   S    
C25   O19   A    
C32   O3    D    
C35   H7    S    
C34   C39   S    
C12   C26   A    
C29   C30   A    
C3    C9    A    
C33   O5    D    
C47   C48   D    
C45   H1    S    
C18   H30   S    
C23   C34   A    
C17   C18   A    
O16   Zn1   S    
C37   O9    D    
C42   C48   S    
C19   H31   S    
C41   H24   S    
C36   O7    D    
C11   C32   S    
C20   N2    A    
C41   C44   S    
C14   C16   S    
H5    O6    S    
C39   H15   S    
C44   C45   A    
C41   H21   S    
C43   H28   S    
C15   C17   A    
O15   Zn2   S    
O12   Zn2   S    
C8    C14   A    
C23   H33   S    
C12   C30   A    
C35   H8    S    
C16   O16   A    
C1    C10   S    
C3    C5    A    
C4    C26   S    
C6    C7    A    
C22   C36   S    
N1    Zn2   S    
C22   N1    A    
C24   N2    A    
C33   O6    S    
C31   O20   D    
C11   C13   A    
C2    C34   A    
C1    O12   A    
C24   C40   S    
C37   O10   S    
O19   Zn2   S    
C22   C24   A    
C17   C38   S    
H10   O10   S    
C10   C11   A    
C38   H11   S    
C16   O17   A    
C15   C21   A    
C20   C21   A    
C40   H20   S    
C4    O15   A    
C27   C28   A    
C23   C46   A    
C41   H22   S    
C38   H14   S    
