data_mof_unit_54769.cif
_audit_creation_date              2012-12-10T18:33:45-0500
_audit_creation_method            fapswitch 2.2
_symmetry_space_group_name_H-M    P1
_symmetry_Int_Tables_number       1
_space_group_crystal_system       triclinic
_cell_length_a                    10.544206
_cell_length_b                    15.026211
_cell_length_c                    15.464575
_cell_angle_alpha                 81.757273
_cell_angle_beta                  90.07421
_cell_angle_gamma                 105.04946
_cell_volume                      2340.06329088

loop_
_atom_site_label
_atom_site_type_symbol
_atom_type_description
_atom_site_fract_x
_atom_site_fract_y
_atom_site_fract_z
_atom_type_partial_charge
C1    C     C_R   0.480027 0.441138 0.662367 0.879463
C2    C     C_R   0.423581 0.474943 0.049014 0.048538
C3    C     C_R   0.411194 0.380289 0.082477 -0.243235
C4    C     C_R   0.390379 0.588603 0.928653 -0.242863
C5    C     C_R   0.404646 0.313626 0.027085 0.094222
C6    C     C_R   0.397685 0.655097 0.984569 0.092033
C7    C     C_R   0.691270 0.840862 0.642895 -0.133840
C8    C     C_R   0.305796 0.158553 0.358639 -0.138426
C9    C     C_R   0.662867 0.752965 0.615641 0.043154
C10   C     C_R   0.336239 0.246965 0.384845 0.045522
C11   C     C_R   0.514815 0.794439 0.511903 -0.067099
C12   C     C_R   0.515337 0.558574 0.337692 0.877689
C13   C     C_R   0.484102 0.205174 0.488608 -0.067464
C14   C     C_R   0.542603 0.885976 0.533048 -0.042496
C15   C     C_R   0.454595 0.113297 0.468248 -0.042323
C16   C     C_R   0.742419 0.501495 0.499748 0.886107
C17   C     C_R   0.257608 0.498503 0.500269 0.884388
C18   C     C_R   0.626892 0.907788 0.603649 0.103529
C19   C     C_R   0.369694 0.091427 0.397985 0.106484
C20   C     C_R   0.487418 0.955281 0.486831 0.078396
C21   C     C_R   0.508866 0.043745 0.514847 0.077097
C22   C     C_R   0.581188 0.059580 0.590143 -0.289790
C23   C     C_R   0.442131 0.464708 0.812276 -0.275159
C24   C     C_R   0.414076 0.939246 0.411958 -0.288627
C25   C     C_R   0.641382 0.994740 0.633202 0.099064
C26   C     C_R   0.354056 0.004182 0.368883 0.098863
C27   C     C_3   0.930948 0.435185 0.565591 -0.311103
C28   C     C_3   0.069179 0.564825 0.434474 -0.310903
C29   C     C_3   0.049333 0.517997 0.577177 0.011762
C30   C     C_3   0.950804 0.482010 0.422895 0.010388
C31   C     C_3   0.122403 0.496845 0.500063 -0.067350
C32   C     C_3   0.877689 0.503160 0.499998 -0.068840
C33   C     C_3   0.005408 0.415874 0.487691 0.132548
C34   C     C_R   0.492953 0.529161 0.187166 -0.271269
C35   C     C_3   0.994718 0.584140 0.512381 0.131805
C36   C     C_R   0.456455 0.403458 0.755619 -0.060915
C37   C     C_R   0.502233 0.592995 0.245255 -0.058165
C38   C     C_R   0.423956 0.279200 0.878746 -0.238490
C39   C     C_R   0.448304 0.701917 0.128682 -0.239477
C40   C     C_R   0.445310 0.309213 0.788845 0.094347
C41   C     C_R   0.480434 0.680845 0.215825 0.094587
C42   C     C_1   0.106239 0.538498 0.661104 0.188206
C43   C     C_1   0.894058 0.461393 0.338974 0.186102
C44   C     C_1   0.273788 0.316536 0.344132 0.262004
C45   C     C_R   0.418850 0.435648 0.902043 0.068880
C46   C     C_1   0.725869 0.683605 0.656079 0.274175
C47   C     C_1   0.789026 0.860476 0.708740 0.210365
C48   C     C_1   0.205788 0.138395 0.294290 0.188212
C49   C     C_R   0.447422 0.545250 0.103221 0.069767
C50   C     C_R   0.414789 0.342027 0.936207 0.131873
C51   C     C_R   0.430892 0.634728 0.071858 0.131099
C52   C     C_R   0.410376 0.499975 0.958930 0.047143
H1    H     H_    0.555351 0.229970 0.535338 0.144637
H2    H     H_    0.434464 0.770383 0.106642 0.159212
H3    H     H_    0.403426 0.356220 0.151970 0.146332
H4    H     H_    0.363450 0.606313 0.862314 0.156974
H5    H     H_    0.917884 0.283659 0.467732 0.185163
H6    H     H_    0.049600 0.293561 0.530059 0.187782
H7    H     H_    0.082312 0.716334 0.532356 0.183994
H8    H     H_    0.950632 0.706485 0.470005 0.187732
H9    H     H_    0.372397 0.206707 0.130289 0.198637
H10   H     H_    0.487133 0.206520 0.055598 0.180632
H11   H     H_    0.364838 0.751621 0.884479 0.194180
H12   H     H_    0.444076 0.769496 0.464973 0.146235
H13   H     H_    0.285660 0.745714 0.979912 0.186561
H14   H     H_    0.557733 0.809015 0.248033 0.187976
H15   H     H_    0.396450 0.763221 0.275622 0.161304
H16   H     H_    0.374362 0.189376 0.739318 0.190653
H17   H     H_    0.538192 0.217216 0.753648 0.167166
H18   H     H_    0.787187 0.078955 0.691677 0.184839
H19   H     H_    0.648507 0.030622 0.754820 0.185190
H20   H     H_    0.207454 0.920101 0.310893 0.184945
H21   H     H_    0.345899 0.967861 0.247407 0.181856
H22   H     H_    0.591565 0.121852 0.619310 0.137579
H23   H     H_    0.402385 0.876691 0.383206 0.135172
H24   H     H_    0.872173 0.382471 0.618119 0.151709
H25   H     H_    0.128040 0.617505 0.381945 0.150447
H26   H     H_    0.521711 0.465945 0.208934 0.170357
H27   H     H_    0.455985 0.536955 0.785548 0.174006
H28   H     H_    0.418342 0.206978 0.903178 0.159855
N1    N     N_R   0.574200 0.731700 0.552740 -0.124048
N2    N     N_3   0.986410 0.676202 0.526699 -0.428541
N3    N     N_3   0.394481 0.218154 0.063080 -0.454304
N4    N     N_3   0.375312 0.744199 0.952183 -0.461779
N5    N     N_3   0.487587 0.747935 0.273980 -0.444006
N6    N     N_3   0.459754 0.244336 0.732489 -0.443916
N7    N     N_3   0.712642 0.017668 0.709549 -0.448570
N8    N     N_3   0.282227 0.981195 0.292753 -0.451003
N9    N     N_R   0.425800 0.268300 0.447260 -0.122666
N10   N     N_1   0.151295 0.554646 0.727181 -0.216209
N11   N     N_1   0.849120 0.445129 0.272897 -0.201868
N12   N     N_1   0.223024 0.371399 0.310610 -0.189301
N13   N     N_1   0.776956 0.628831 0.689377 -0.190826
N14   N     N_1   0.867137 0.875502 0.761144 -0.189881
N15   N     N_1   0.125866 0.122941 0.243096 -0.184717
N16   N     N_3   0.013771 0.323823 0.473374 -0.426568
O1    O     O_R   0.462600 0.383110 0.605620 -0.592909
O2    O     O_R   0.537400 0.616890 0.394380 -0.592029
O3    O     O_R   0.510210 0.531900 0.639510 -0.626461
O4    O     O_R   0.489790 0.468100 0.360490 -0.624529
O5    O     O_R   0.662240 0.425610 0.483080 -0.625061
O6    O     O_R   0.337760 0.574390 0.516920 -0.626434
O7    O     O_R   0.709860 0.574400 0.516970 -0.608977
O8    O     O_R   0.290140 0.425600 0.483030 -0.609204
Zn1   Zn    Zn3+2 0.468210 0.400660 0.477370 0.956646
Zn2   Zn    Zn3+2 0.531790 0.599340 0.522630 0.956056

loop_
_geom_bond_atom_site_label_1
_geom_bond_atom_site_label_2
_ccdc_geom_bond_type
C39   C51   A    
H10   N3    S    
C23   C45   A    
C48   N15   T    
C29   C42   S    
C27   C29   S    
C34   C37   A    
H16   N6    S    
C14   C18   A    
H7    N2    S    
C1    O3    A    
H14   N5    S    
C39   C41   A    
C27   C33   S    
C15   C19   A    
O4    Zn1   S    
C4    C52   A    
C38   C40   A    
C17   O8    A    
C24   C26   A    
C5    N3    S    
C11   C14   A    
C39   H2    S    
C25   N7    S    
C40   N6    S    
C12   C37   S    
C19   C26   A    
H6    N16   S    
C3    H3    S    
C20   C24   A    
C10   N9    A    
C49   C51   A    
C22   C25   A    
C31   C33   S    
C6    C51   A    
C12   O2    A    
C44   N12   T    
O1    Zn1   S    
C9    C46   S    
C21   C22   A    
C4    H4    S    
C18   C25   A    
H8    N2    S    
H18   N7    S    
O8    Zn1   S    
H20   N8    S    
C35   N2    S    
C13   H1    S    
O5    Zn1   S    
H15   N5    S    
C8    C19   A    
C6    N4    S    
C10   C44   S    
C32   C35   S    
C14   C20   A    
C36   C40   A    
C28   C35   S    
C4    C6    A    
C11   H12   S    
H9    N3    S    
C1    O1    A    
H13   N4    S    
C45   C52   A    
H5    N16   S    
C11   N1    A    
C42   N10   T    
C7    C47   S    
C17   O6    A    
C8    C48   S    
H21   N8    S    
C2    C49   A    
C16   O7    A    
C7    C18   A    
C28   H25   S    
C2    C52   A    
H19   N7    S    
C26   N8    S    
C13   C15   A    
C17   C31   S    
C30   C43   S    
C22   H22   S    
C27   H24   S    
C33   N16   S    
C7    C9    A    
O3    Zn2   S    
N1    Zn2   S    
C34   C49   A    
C30   C33   S    
C13   N9    A    
C27   C32   S    
C28   C31   S    
C3    C5    A    
C24   H23   S    
C38   C50   A    
C16   C32   S    
C41   N5    S    
C29   C35   S    
O2    Zn2   S    
H11   N4    S    
C28   C30   S    
C2    C3    A    
C29   C31   S    
C34   H26   S    
C30   C32   S    
C46   N13   T    
C38   H28   S    
C45   C50   A    
C47   N14   T    
O6    Zn2   S    
O7    Zn2   S    
C37   C41   A    
C5    C50   A    
C43   N11   T    
C12   O4    A    
C16   O5    A    
C15   C21   A    
C20   C21   A    
C8    C10   A    
C23   C36   A    
N9    Zn1   S    
C23   H27   S    
H17   N6    S    
C1    C36   S    
C9    N1    A    
