data_mof_unit_13708.cif
_audit_creation_date              2012-12-11T15:17:53-0500
_audit_creation_method            fapswitch 2.2
_symmetry_space_group_name_H-M    P1
_symmetry_Int_Tables_number       1
_space_group_crystal_system       triclinic
_cell_length_a                    15.663121
_cell_length_b                    15.675837
_cell_length_c                    34.499525
_cell_angle_alpha                 90.029306
_cell_angle_beta                  90.130396
_cell_angle_gamma                 119.567707
_cell_volume                      7367.6041015

loop_
_atom_site_label
_atom_site_type_symbol
_atom_type_description
_atom_site_fract_x
_atom_site_fract_y
_atom_site_fract_z
_atom_type_partial_charge
C1    C     C_R   0.578127 0.441696 0.555017 0.589184
C2    C     C_R   0.558662 0.136662 0.554935 0.603204
C3    C     C_R   0.864812 0.422121 0.554589 0.608751
C4    C     C_R   0.441385 0.578515 0.055203 0.575064
C5    C     C_R   0.136647 0.558593 0.054922 0.586815
C6    C     C_R   0.421497 0.862833 0.055284 0.595399
C7    C     C_R   0.994890 0.508106 0.710338 0.393155
C8    C     C_R   0.493681 0.479952 0.712218 0.396783
C9    C     C_R   0.470995 0.928111 0.698865 0.388997
C10   C     C_R   0.490815 0.966131 0.215404 0.383871
C11   C     C_R   0.480338 0.508052 0.214585 0.387823
C12   C     C_R   0.930413 0.464762 0.199322 0.384116
C13   C     C_R   0.028550 0.447082 0.849079 -0.197240
C14   C     C_R   0.560348 0.562906 0.853077 -0.185411
C15   C     C_R   0.367139 0.885342 0.838324 -0.200328
C16   C     C_R   0.432479 0.005046 0.354046 -0.175971
C17   C     C_R   0.574581 0.568030 0.353852 -0.176904
C18   C     C_R   0.848804 0.345866 0.336552 -0.170830
C19   C     C_R   0.059044 0.455745 0.887329 -0.201545
C20   C     C_R   0.550110 0.588482 0.890716 -0.164076
C21   C     C_R   0.356194 0.869652 0.878099 -0.194192
C22   C     C_R   0.446838 0.044117 0.391111 -0.180756
C23   C     C_R   0.598014 0.553650 0.391166 -0.174518
C24   C     C_R   0.833433 0.335722 0.376262 -0.189100
C25   C     C_R   0.059377 0.610410 0.892818 0.260067
C26   C     C_R   0.384987 0.449471 0.893082 0.252871
C27   C     C_R   0.479936 0.819187 0.877809 0.257251
C28   C     C_R   0.602612 0.045779 0.395589 0.273778
C29   C     C_R   0.445371 0.398428 0.394852 0.282888
C30   C     C_R   0.849725 0.498154 0.379719 0.280760
C31   C     C_R   0.033959 0.604572 0.853252 0.285522
C32   C     C_R   0.391782 0.428794 0.853872 0.281089
C33   C     C_R   0.484170 0.826407 0.837200 0.279284
C34   C     C_R   0.587784 0.005623 0.358064 0.295602
C35   C     C_R   0.421286 0.413334 0.357095 0.299825
C36   C     C_R   0.870400 0.510434 0.339689 0.297256
C37   C     C_R   0.019843 0.522735 0.831149 0.006736
C38   C     C_R   0.480024 0.486856 0.833406 -0.016320
C39   C     C_R   0.430792 0.863892 0.817411 -0.004487
C40   C     C_R   0.505487 0.992146 0.336128 -0.015953
C41   C     C_R   0.490142 0.495205 0.335437 -0.017594
C42   C     C_R   0.866376 0.432138 0.317713 -0.008386
C43   C     C_R   0.079912 0.539514 0.908936 -0.018693
C44   C     C_R   0.460718 0.535878 0.910217 -0.014899
C45   C     C_R   0.412267 0.836638 0.898398 -0.014507
C46   C     C_R   0.534619 0.071377 0.411144 -0.026439
C47   C     C_R   0.537710 0.465987 0.410936 -0.027127
C48   C     C_R   0.833527 0.410865 0.398361 -0.026047
C49   C     C_R   0.577620 0.442470 0.445596 0.557643
C50   C     C_R   0.557661 0.135021 0.445608 0.552301
C51   C     C_R   0.811893 0.393545 0.440248 0.572637
C52   C     C_R   0.442109 0.577140 0.945637 0.561952
C53   C     C_R   0.135489 0.558016 0.945439 0.542241
C54   C     C_R   0.393893 0.813156 0.940123 0.575712
C55   C     C_R   0.925287 0.457809 0.590165 -0.069856
C56   C     C_R   0.542051 0.462397 0.591589 -0.055044
C57   C     C_R   0.533965 0.070669 0.588632 -0.067929
C58   C     C_R   0.453879 0.913326 0.093162 -0.091625
C59   C     C_R   0.460126 0.545157 0.092768 -0.088996
C60   C     C_R   0.071262 0.533386 0.088840 -0.091534
C61   C     C_R   0.951171 0.396090 0.610871 0.239493
C62   C     C_R   0.598522 0.551555 0.611786 0.208948
C63   C     C_R   0.435749 0.012934 0.600910 0.214702
C64   C     C_R   0.395762 0.944790 0.113253 0.225877
C65   C     C_R   0.550770 0.600131 0.112238 0.207956
C66   C     C_R   0.012411 0.434588 0.100313 0.216519
C67   C     C_R   0.979935 0.416710 0.649563 0.346094
C68   C     C_R   0.575445 0.559674 0.650424 0.323124
C69   C     C_R   0.415362 0.958435 0.635196 0.326170
C70   C     C_R   0.410482 0.964812 0.152941 0.346379
C71   C     C_R   0.557670 0.584788 0.151769 0.322789
C72   C     C_R   0.963710 0.412822 0.135877 0.341603
C73   C     C_R   0.987382 0.500495 0.667667 -0.058315
C74   C     C_R   0.499600 0.478844 0.669552 -0.046891
C75   C     C_R   0.491979 0.965125 0.658629 -0.052436
C76   C     C_R   0.484693 0.957091 0.172881 -0.067310
C77   C     C_R   0.475953 0.513514 0.172124 -0.065574
C78   C     C_R   0.969840 0.488057 0.159779 -0.068917
C79   C     C_R   0.979861 0.571304 0.644860 0.210158
C80   C     C_R   0.434941 0.395346 0.647869 0.222671
C81   C     C_R   0.589284 0.015939 0.644582 0.223018
C82   C     C_R   0.548454 0.934461 0.152174 0.228764
C83   C     C_R   0.388187 0.452573 0.151960 0.228121
C84   C     C_R   0.023644 0.586378 0.147384 0.221722
C85   C     C_R   0.947896 0.548998 0.606289 0.293903
C86   C     C_R   0.457009 0.387211 0.609232 0.304680
C87   C     C_R   0.609727 0.069591 0.610216 0.323057
C88   C     C_R   0.534629 0.915723 0.112338 0.326590
C89   C     C_R   0.381870 0.466457 0.112256 0.320612
C90   C     C_R   0.072191 0.608311 0.111672 0.314648
C91   C     C_R   0.004217 0.517725 0.788867 0.351338
C92   C     C_R   0.486035 0.477587 0.790879 0.330350
C93   C     C_R   0.442964 0.883170 0.775392 0.334064
C94   C     C_R   0.499917 0.976873 0.293845 0.327933
C95   C     C_R   0.481804 0.500375 0.293042 0.332291
C96   C     C_R   0.882719 0.439411 0.275475 0.328609
Cr1   Cr    Cr6+3 0.522350 0.263930 0.500020 1.092080
Cr2   Cr    Cr6+3 0.736070 0.258420 0.500020 1.092977
Cr3   Cr    Cr6+3 0.741580 0.477650 0.500020 1.082003
Cr4   Cr    Cr6+3 0.263930 0.522350 0.000020 1.108587
Cr5   Cr    Cr6+3 0.258420 0.736070 0.000020 1.104135
Cr6   Cr    Cr6+3 0.477650 0.741580 0.000020 1.100560
H1    H     H_    0.071795 0.399051 0.899232 0.166175
H2    H     H_    0.610726 0.652699 0.903782 0.167725
H3    H     H_    0.303716 0.883952 0.892958 0.168985
H4    H     H_    0.391946 0.059794 0.402845 0.179065
H5    H     H_    0.667569 0.608370 0.403308 0.186432
H6    H     H_    0.819066 0.267399 0.389632 0.200850
H7    H     H_    0.018009 0.383462 0.832813 0.155884
H8    H     H_    0.629173 0.608319 0.838359 0.175207
H9    H     H_    0.325139 0.914004 0.823903 0.150775
H10   H     H_    0.367429 0.992637 0.338290 0.173508
H11   H     H_    0.627102 0.632890 0.338356 0.171344
H12   H     H_    0.845880 0.285148 0.320430 0.189597
N1    N     N_R   0.964955 0.430067 0.770397 -0.222825
N2    N     N_R   0.572693 0.530774 0.772165 -0.231708
N3    N     N_R   0.375557 0.894650 0.754733 -0.240756
N4    N     N_R   0.412276 0.938396 0.275195 -0.243298
N5    N     N_R   0.532127 0.587366 0.274295 -0.245484
N6    N     N_R   0.920732 0.387771 0.258245 -0.231787
N7    N     N_R   0.959870 0.425395 0.731981 -0.115986
N8    N     N_R   0.576478 0.531534 0.733655 -0.133921
N9    N     N_R   0.389508 0.916957 0.717249 -0.140300
N10   N     N_R   0.407787 0.932679 0.236740 -0.164316
N11   N     N_R   0.531000 0.591176 0.235816 -0.176301
N12   N     N_R   0.944218 0.400284 0.220897 -0.155080
N13   N     N_R   0.032943 0.595836 0.728778 -0.181385
N14   N     N_R   0.407327 0.425762 0.730850 -0.187656
N15   N     N_R   0.537538 0.915384 0.719507 -0.168249
N16   N     N_R   0.578505 0.004481 0.234001 -0.140955
N17   N     N_R   0.430196 0.421030 0.233268 -0.142982
N18   N     N_R   0.889472 0.514182 0.216159 -0.146210
N19   N     N_R   0.037954 0.600523 0.767298 -0.185785
N20   N     N_R   0.403628 0.425144 0.769340 -0.177896
N21   N     N_R   0.523883 0.893504 0.756960 -0.149175
N22   N     N_R   0.582994 0.010277 0.272486 -0.153219
N23   N     N_R   0.431461 0.417226 0.271754 -0.146761
N24   N     N_R   0.865466 0.501224 0.253515 -0.144756
O1    O     O_R   0.498680 0.159540 0.541860 -0.470523
O2    O     O_R   0.840460 0.339140 0.541860 -0.447329
O3    O     O_R   0.660860 0.501320 0.541860 -0.481284
O4    O     O_R   0.159540 0.498680 0.041860 -0.447592
O5    O     O_R   0.339140 0.840460 0.041860 -0.446837
O6    O     O_R   0.501320 0.660860 0.041860 -0.457787
O7    O     O_R   0.532760 0.358060 0.540030 -0.448239
O8    O     O_R   0.641940 0.174700 0.540030 -0.446198
O9    O     O_R   0.825300 0.467240 0.540030 -0.452101
O10   O     O_R   0.358060 0.532760 0.040030 -0.444162
O11   O     O_R   0.174700 0.641940 0.040030 -0.447438
O12   O     O_R   0.467240 0.825300 0.040030 -0.438907
O13   O     O_R   0.498590 0.161190 0.456930 -0.505290
O14   O     O_R   0.838810 0.337400 0.456930 -0.520729
O15   O     O_R   0.662600 0.501410 0.456930 -0.505813
O16   O     O_R   0.161190 0.498590 0.956930 -0.513842
O17   O     O_R   0.337400 0.838810 0.956930 -0.518638
O18   O     O_R   0.501410 0.662600 0.956930 -0.500633
O19   O     O_R   0.532680 0.359580 0.461300 -0.467636
O20   O     O_R   0.640420 0.173100 0.461300 -0.489641
O21   O     O_R   0.826900 0.467320 0.461300 -0.469263
O22   O     O_R   0.359580 0.532680 0.961300 -0.464062
O23   O     O_R   0.173100 0.640420 0.961300 -0.479552
O24   O     O_R   0.467320 0.826900 0.961300 -0.473268
O25   O     O_3   0.666667 0.333333 0.499990 -0.313253
O26   O     O_3   0.333333 0.666667 0.999990 -0.318466
O27   O     O_3   0.937705 0.309164 0.595172 -0.439636
C97   C     C_3   0.026359 0.327582 0.577609 -0.058704
H13   H     H_    0.086723 0.352115 0.599310 0.128257
H14   H     H_    0.047549 0.382499 0.553898 0.089332
H15   H     H_    0.015743 0.258336 0.564534 0.149242
O28   O     O_3   0.673999 0.631381 0.593202 -0.539763
C98   C     C_3   0.765008 0.649864 0.608772 0.014531
H16   H     H_    0.768759 0.581295 0.613022 0.164829
H17   H     H_    0.781098 0.691161 0.636441 0.196120
H18   H     H_    0.823581 0.696667 0.588063 0.187493
O29   O     O_3   0.359481 0.006657 0.578419 -0.527811
C99   C     C_3   0.318450 0.058569 0.596820 -0.010434
H19   H     H_    0.375585 0.131323 0.608037 0.184066
H20   H     H_    0.268539 0.014638 0.620634 0.174212
H21   H     H_    0.273947 0.072189 0.575240 0.156131
O30   O     O_3   0.317915 0.947124 0.095375 -0.448373
C100  C     C_3   0.353477 0.039961 0.078078 -0.032898
H22   H     H_    0.409221 0.053161 0.055443 0.085721
H23   H     H_    0.384448 0.099584 0.100173 0.159500
H24   H     H_    0.291304 0.042366 0.063682 0.164930
O31   O     O_3   0.630773 0.675649 0.093977 -0.462215
C101  C     C_3   0.683882 0.636110 0.075654 -0.034561
H25   H     H_    0.638797 0.581410 0.053075 0.077868
H26   H     H_    0.711798 0.602622 0.097110 0.159931
H27   H     H_    0.748372 0.696424 0.060991 0.160690
O32   O     O_3   0.007267 0.358599 0.078225 -0.462626
C102  C     C_3   0.928911 0.328709 0.051739 -0.042712
H28   H     H_    0.940884 0.389311 0.031720 0.076278
H29   H     H_    0.857516 0.300576 0.067036 0.152678
H30   H     H_    0.924678 0.267935 0.033834 0.158883
F1    F     F_    0.934943 0.614924 0.585287 -0.646253
F2    F     F_    0.397772 0.302621 0.589934 -0.640483
F3    F     F_    0.705086 0.125291 0.599432 -0.559989
F4    F     F_    0.596638 0.892968 0.093294 -0.557198
F5    F     F_    0.296001 0.406760 0.093720 -0.569225
F6    F     F_    0.124921 0.703751 0.100690 -0.560227
F7    F     F_    0.996867 0.352019 0.669715 -0.578454
F8    F     F_    0.627972 0.646227 0.669503 -0.611583
F9    F     F_    0.320362 0.899715 0.645739 -0.641989
F10   F     F_    0.350389 0.989972 0.172079 -0.557290
F11   F     F_    0.644142 0.641627 0.170405 -0.572374
F12   F     F_    0.911353 0.317663 0.147258 -0.551858
O33   O     O_3   0.990755 0.656510 0.661319 -0.528846
C103  C     C_3   0.085625 0.733544 0.652574 -0.012257
H31   H     H_    0.094904 0.748290 0.620880 0.180618
H32   H     H_    0.143423 0.718092 0.663714 0.161207
H33   H     H_    0.096178 0.801272 0.667070 0.176797
O34   O     O_3   0.357110 0.316012 0.665515 -0.510826
C104  C     C_3   0.270223 0.318112 0.656578 -0.049369
H34   H     H_    0.253043 0.306523 0.625066 0.149717
H35   H     H_    0.274574 0.387967 0.666250 0.123445
H36   H     H_    0.208379 0.257422 0.672282 0.170642
O35   O     O_3   0.666690 0.022992 0.666376 -0.481077
C105  C     C_3   0.692236 0.954377 0.651933 -0.013954
H37   H     H_    0.720920 0.972603 0.621829 0.160487
H38   H     H_    0.629000 0.878233 0.653149 0.132043
H39   H     H_    0.751470 0.956846 0.670408 0.177757
O36   O     O_3   0.623473 0.928298 0.170848 -0.475464
C106  C     C_3   0.589383 0.829489 0.181003 -0.001747
H40   H     H_    0.569775 0.781752 0.154890 0.184908
H41   H     H_    0.525581 0.801643 0.201027 0.072227
H42   H     H_    0.649106 0.824646 0.196384 0.217093
O37   O     O_3   0.307191 0.380239 0.171064 -0.476579
C107  C     C_3   0.245182 0.418131 0.181365 -0.034121
H43   H     H_    0.215281 0.436239 0.155293 0.169935
H44   H     H_    0.283654 0.483716 0.200456 0.067815
H45   H     H_    0.181998 0.361243 0.197855 0.184031
O38   O     O_3   0.030186 0.661780 0.170347 -0.477192
C108  C     C_3   0.117583 0.700442 0.192326 -0.024485
H46   H     H_    0.183593 0.734988 0.173425 0.180267
H47   H     H_    0.119319 0.643329 0.210957 0.064364
H48   H     H_    0.120857 0.758360 0.211777 0.182121
O39   O     O_3   0.071108 0.689505 0.914607 -0.557386
C109  C     C_3   0.982332 0.662042 0.934119 -0.089457
H49   H     H_    0.963784 0.600302 0.954505 0.101585
H50   H     H_    0.920954 0.642500 0.913297 0.141369
H51   H     H_    0.991127 0.725455 0.951494 0.146128
O40   O     O_3   0.299785 0.389606 0.913165 -0.551331
C110  C     C_3   0.312328 0.317164 0.932326 -0.081373
H52   H     H_    0.373867 0.350401 0.953605 0.104768
H53   H     H_    0.324305 0.270207 0.911296 0.143459
H54   H     H_    0.244345 0.269127 0.948662 0.149116
O41   O     O_3   0.535584 0.786038 0.896818 -0.543582
C111  C     C_3   0.632267 0.864833 0.900831 -0.064559
H55   H     H_    0.633928 0.928549 0.915860 0.118077
H56   H     H_    0.669542 0.887849 0.872288 0.162979
H57   H     H_    0.674730 0.840201 0.918861 0.131538
O42   O     O_3   0.689106 0.069288 0.414789 -0.533376
C112  C     C_3   0.669938 0.995895 0.442507 -0.081290
H58   H     H_    0.646901 0.924040 0.428393 0.108008
H59   H     H_    0.613664 0.988614 0.463907 0.106722
H60   H     H_    0.738639 0.016697 0.458783 0.147844
O43   O     O_3   0.382692 0.312033 0.413718 -0.511739
C113  C     C_3   0.327741 0.331458 0.441132 -0.082511
H61   H     H_    0.278942 0.354534 0.426729 0.104246
H62   H     H_    0.375622 0.387752 0.462707 0.101926
H63   H     H_    0.280351 0.262919 0.457260 0.148797
O44   O     O_3   0.835432 0.566879 0.399583 -0.527831
C114  C     C_3   0.926507 0.645178 0.412021 -0.067078
H64   H     H_    0.953997 0.705558 0.390565 0.140386
H65   H     H_    0.983320 0.623526 0.417914 0.092433
H66   H     H_    0.914650 0.674515 0.439521 0.146236
O45   O     O_3   0.016282 0.674966 0.836791 -0.535260
C115  C     C_3   0.106491 0.761560 0.830593 -0.063081
H67   H     H_    0.162283 0.746702 0.816945 0.120589
H68   H     H_    0.135590 0.803103 0.858005 0.155364
H69   H     H_    0.093692 0.809221 0.810427 0.163982
O46   O     O_3   0.313202 0.349815 0.836009 -0.529724
C116  C     C_3   0.239045 0.374034 0.828173 -0.061345
H70   H     H_    0.268679 0.447783 0.814597 0.101070
H71   H     H_    0.197576 0.369937 0.854800 0.156694
H72   H     H_    0.186107 0.319573 0.807354 0.163307
O47   O     O_3   0.541724 0.796984 0.817313 -0.535344
C117  C     C_3   0.480628 0.700455 0.803897 -0.073306
H73   H     H_    0.424783 0.696380 0.782873 0.119916
H74   H     H_    0.443555 0.649149 0.828363 0.115759
H75   H     H_    0.526878 0.676276 0.788441 0.182869
O48   O     O_3   0.659344 0.988841 0.342242 -0.510812
C118  C     C_3   0.622769 0.886675 0.339672 -0.084014
H76   H     H_    0.566429 0.853031 0.316489 0.125577
H77   H     H_    0.592000 0.848851 0.367681 0.079840
H78   H     H_    0.684264 0.873858 0.331995 0.168210
O49   O     O_3   0.334258 0.342046 0.340775 -0.501390
C119  C     C_3   0.268489 0.378939 0.337753 -0.086324
H79   H     H_    0.291820 0.436096 0.314955 0.115034
H80   H     H_    0.259630 0.408750 0.365797 0.080582
H81   H     H_    0.195351 0.317891 0.329258 0.169974
O50   O     O_3   0.890556 0.598043 0.322386 -0.512852
C120  C     C_3   0.993206 0.656113 0.317248 -0.094528
H82   H     H_    0.019102 0.629157 0.292686 0.130016
H83   H     H_    0.035486 0.659727 0.343784 0.069769
H84   H     H_    0.010544 0.732035 0.310243 0.166112

loop_
_geom_bond_atom_site_label_1
_geom_bond_atom_site_label_2
_ccdc_geom_bond_type
C25   C31   A    
C114  H66   S    
C5    O4    A    
C98   H16   S    
C65   O31   S    
C26   C32   A    
O32   C102  S    
N1    N7    A    
C117  H74   S    
Cr3   O21   S    
C118  H77   S    
C99   H20   S    
Cr5   O5    S    
C6    C58   S    
C1    O7    A    
C106  H40   S    
C84   C90   A    
C79   C85   A    
C49   O19   A    
Cr4   O16   S    
C25   C43   A    
C107  H44   S    
Cr2   O25   S    
O31   C101  S    
C106  H42   S    
C26   C44   A    
C114  H64   S    
C7    C73   S    
Cr2   O14   S    
C104  H34   S    
C27   C33   A    
C3    O9    A    
C98   H17   S    
C109  H51   S    
C28   C46   A    
O48   C118  S    
O27   C97   S    
N2    N8    A    
C29   C47   A    
C18   C24   A    
C2    O1    A    
C49   O15   A    
O50   C120  S    
C11   N11   A    
C1    C56   S    
Cr3   O3    S    
C120  H84   S    
C10   N10   A    
C18   C42   A    
C92   N20   A    
C96   N24   A    
C112  H58   S    
C64   O30   S    
N6    N12   A    
C55   C85   A    
C104  H36   S    
C90   F6    S    
O28   C98   S    
Cr5   O17   S    
C38   C92   S    
C68   C74   A    
C110  H52   S    
C4    O10   A    
Cr3   O15   S    
C116  H72   S    
C5    O11   A    
C114  H65   S    
O43   C113  S    
C59   C89   A    
C88   F4    S    
Cr4   O22   S    
C39   C93   S    
C80   C86   A    
C11   C77   S    
C86   F2    S    
N15   N21   A    
N14   N20   A    
C3    C55   S    
C50   O13   A    
C8    N14   A    
C99   H21   S    
C66   C72   A    
C63   C69   A    
C19   C43   A    
C103  H31   S    
Cr1   O25   S    
C117  H75   S    
C12   C78   S    
C72   C78   A    
C67   C73   A    
C32   C38   A    
C103  H32   S    
C108  H46   S    
C13   C37   A    
C82   C88   A    
C111  H57   S    
C80   O34   S    
C62   O28   S    
C27   C45   A    
C17   H11   S    
C43   C53   S    
N4    N10   A    
C13   H7    S    
C53   O16   A    
C74   C80   A    
O39   C109  S    
C118  H78   S    
C97   H14   S    
C51   O21   A    
C18   H12   S    
C10   C76   S    
C17   C23   A    
C7    N7    A    
C83   C89   A    
C23   H5    S    
C107  H43   S    
C20   C44   A    
C111  H56   S    
C46   C50   S    
C57   C63   A    
C21   C45   A    
C36   C42   A    
C104  H35   S    
C58   C64   A    
C89   F5    S    
C98   H18   S    
C109  H50   S    
C48   C51   S    
C95   N23   A    
C20   H2    S    
C37   C91   S    
C31   O45   S    
O33   C103  S    
C24   C48   A    
C119  H81   S    
C14   C20   A    
C23   C47   A    
C60   C90   A    
C47   C49   S    
C100  H23   S    
C76   C82   A    
C54   O17   A    
C112  H59   S    
C53   O23   A    
C13   C19   A    
C85   F1    S    
C33   O47   S    
Cr2   O8    S    
C110  H53   S    
O35   C105  S    
C22   H4    S    
C19   H1    S    
N16   N22   A    
C78   C84   A    
C50   O20   A    
C57   C87   A    
C31   C37   A    
C30   O44   S    
C119  H80   S    
C100  H22   S    
C113  H62   S    
C28   O42   S    
C102  H29   S    
C120  H82   S    
C67   F7    S    
C27   O41   S    
C14   C38   A    
O46   C116  S    
C92   N2    A    
C61   C67   A    
C56   C86   A    
O37   C107  S    
C91   N19   A    
C115  H69   S    
C25   O39   S    
N18   N24   A    
Cr6   O24   S    
C110  H54   S    
C81   O35   S    
C62   C68   A    
C8    C74   S    
O40   C110  S    
Cr1   O13   S    
Cr4   O26   S    
C33   C39   A    
C54   O24   A    
C108  H47   S    
C15   C39   A    
C81   C87   A    
C35   C41   A    
Cr6   O12   S    
Cr3   O25   S    
N5    N11   A    
C116  H71   S    
C99   H19   S    
C22   C46   A    
C16   C40   A    
C45   C54   S    
C69   F9    S    
C64   C70   A    
C34   O48   S    
O49   C119  S    
C70   C76   A    
C97   H13   S    
C10   N16   A    
C29   O43   S    
C34   C40   A    
C32   O46   S    
C113  H63   S    
C2    O8    A    
C87   F3    S    
C101  H26   S    
Cr6   O18   S    
C40   C94   S    
C71   C77   A    
O30   C100  S    
C16   H10   S    
C105  H39   S    
C100  H24   S    
C30   C48   A    
C102  H28   S    
C36   O50   S    
Cr3   O9    S    
C109  H49   S    
C16   C22   A    
C12   N18   A    
C5    C60   S    
C28   C34   A    
C6    O5    A    
Cr1   O7    S    
C96   N6    A    
Cr5   O26   S    
C75   C81   A    
N13   N19   A    
C97   H15   S    
C115  H68   S    
C93   N21   A    
C11   N17   A    
C44   C52   S    
C4    O6    A    
C112  H60   S    
C72   F12   S    
O45   C115  S    
C26   O40   S    
C68   F8    S    
C63   O29   S    
O44   C114  S    
C83   O37   S    
C9    N15   A    
C52   O18   A    
C73   C79   A    
C51   O14   A    
C29   C35   A    
C115  H67   S    
C93   N3    A    
C30   C36   A    
C105  H38   S    
C42   C96   S    
Cr6   O6    S    
C95   N5    A    
C119  H79   S    
C101  H27   S    
Cr5   O23   S    
C113  H61   S    
N3    N9    A    
C102  H30   S    
C120  H83   S    
O29   C99   S    
C56   C62   A    
C111  H55   S    
C59   C65   A    
C94   N4    A    
C8    N8    A    
C105  H37   S    
C41   C95   S    
C15   C21   A    
Cr4   O10   S    
C103  H33   S    
C14   H8    S    
C55   C61   A    
C4    C59   S    
Cr5   O11   S    
O38   C108  S    
C9    N9    A    
C91   N1    A    
C69   C75   A    
C35   O49   S    
C65   C71   A    
C79   O33   S    
C106  H41   S    
O36   C106  S    
C84   O38   S    
C108  H48   S    
C17   C41   A    
C1    O3    A    
C61   O27   S    
C66   O32   S    
C60   C66   A    
C6    O12   A    
Cr2   O20   S    
C71   F11   S    
C12   N12   A    
O34   C104  S    
C70   F10   S    
Cr6   O26   S    
C82   O36   S    
Cr2   O2    S    
C118  H76   S    
C77   C83   A    
C117  H73   S    
O42   C112  S    
C94   N22   A    
Cr4   O4    S    
C3    O2    A    
C9    C75   S    
C2    C57   S    
C7    N13   A    
C101  H25   S    
O47   C117  S    
C58   C88   A    
C52   O22   A    
Cr1   O1    S    
C107  H45   S    
C21   H3    S    
C24   H6    S    
O41   C111  S    
Cr1   O19   S    
N17   N23   A    
C15   H9    S    
C116  H70   S    
