data_mof_unit_41311.cif
_audit_creation_date              2012-12-10T16:45:20-0500
_audit_creation_method            fapswitch 2.2
_symmetry_space_group_name_H-M    P1
_symmetry_Int_Tables_number       1
_space_group_crystal_system       triclinic
_cell_length_a                    7.705305
_cell_length_b                    8.837599
_cell_length_c                    15.964764
_cell_angle_alpha                 105.889729
_cell_angle_beta                  77.420169
_cell_angle_gamma                 104.266129
_cell_volume                      1000.0930837

loop_
_atom_site_label
_atom_site_type_symbol
_atom_type_description
_atom_site_fract_x
_atom_site_fract_y
_atom_site_fract_z
_atom_type_partial_charge
C1    C     C_R   0.545308 0.801196 0.504438 0.782326
C2    C     C_R   0.454677 0.198805 0.495575 0.782449
C3    C     C_R   0.289568 0.397014 0.061838 -0.231363
C4    C     C_R   0.715390 0.586261 0.934471 -0.230330
C5    C     C_R   0.167878 0.361375 0.003633 -0.237869
C6    C     C_R   0.837128 0.621082 0.992577 -0.238276
C7    C     C_2   0.556106 0.974419 0.518635 0.212258
C8    C     C_2   0.443812 0.025581 0.481414 0.212000
C9    C     C_R   0.389944 0.487471 0.664317 0.765582
C10   C     C_R   0.610066 0.512277 0.335630 0.766169
C11   C     C_R   0.328355 0.466560 0.754719 -0.023149
C12   C     C_R   0.671918 0.530215 0.244677 -0.023877
C13   C     C_R   0.095658 0.363479 0.864829 -0.215502
C14   C     C_R   0.907678 0.623119 0.132449 -0.215274
C15   C     C_R   0.147947 0.397079 0.781877 -0.174071
C16   C     C_R   0.853883 0.593905 0.216366 -0.174337
C17   C     C_R   0.454063 0.507310 0.812317 -0.249094
C18   C     C_R   0.545991 0.490644 0.187243 -0.251084
C19   C     C_R   0.404879 0.475155 0.896912 0.086458
C20   C     C_R   0.597581 0.515308 0.101048 0.085797
C21   C     C_R   0.222431 0.400467 0.922071 0.150925
C22   C     C_R   0.781151 0.586088 0.075099 0.152280
C23   C     C_R   0.531438 0.512775 0.956471 0.063484
C24   C     C_R   0.471985 0.475045 0.040839 0.062836
Cu1   Cu    Cu3+1 0.322120 0.483240 0.490330 0.905880
Cu2   Cu    Cu3+1 0.677880 0.516760 0.509670 0.906140
H1    H     H_    0.029323 0.302230 0.022769 0.154786
H2    H     H_    0.976839 0.676570 0.972638 0.156186
H3    H     H_    0.407924 0.443887 0.212565 0.159811
H4    H     H_    0.589744 0.562440 0.788473 0.157495
H5    H     H_    0.953747 0.625653 0.259854 0.160697
H6    H     H_    0.048325 0.364436 0.738210 0.159915
H7    H     H_    0.956098 0.306840 0.883951 0.147283
H8    H     H_    0.048277 0.676209 0.112606 0.147781
H9    H     H_    0.235044 0.359279 0.122511 0.159777
H10   H     H_    0.772176 0.618617 0.872528 0.160383
N1    N     N_2   0.945180 0.542040 0.524240 -0.152724
N2    N     N_2   0.054820 0.457960 0.475760 -0.152705
O1    O     O_R   0.384450 0.714270 0.493720 -0.574301
O2    O     O_R   0.615550 0.285730 0.506280 -0.574104
O3    O     O_R   0.684880 0.742590 0.510050 -0.628543
O4    O     O_R   0.315120 0.257410 0.489950 -0.628617
O5    O     O_R   0.265540 0.477900 0.617090 -0.613751
O6    O     O_R   0.734460 0.522100 0.382910 -0.614005
O7    O     O_R   0.565970 0.506210 0.633420 -0.594669
O8    O     O_R   0.434030 0.493790 0.366580 -0.595524
O9    O     O_3   0.636178 0.078109 0.588662 -0.606772
C25   C     C_3   0.826505 0.101663 0.566230 -0.219503
H11   H     H_    0.875463 0.102158 0.495431 0.141412
H12   H     H_    0.876829 0.010015 0.584225 0.160603
H13   H     H_    0.885955 0.220472 0.605282 0.198591
O10   O     O_3   0.363689 0.921886 0.411403 -0.607353
C26   C     C_3   0.173365 0.898131 0.433932 -0.219374
H14   H     H_    0.122869 0.989997 0.416253 0.161154
H15   H     H_    0.124561 0.897153 0.504688 0.141278
H16   H     H_    0.113926 0.779518 0.394670 0.198720
C27   C     C_R   0.979722 0.673386 0.606778 0.299004
C28   C     C_R   0.838284 0.756463 0.657403 -0.153632
C29   C     C_R   0.847161 0.868170 0.738454 -0.247094
C30   C     C_R   0.003584 0.913263 0.774521 -0.088166
C31   C     C_R   0.151723 0.850505 0.727451 -0.208049
C32   C     C_R   0.140763 0.738505 0.646332 -0.149029
H17   H     H_    0.712708 0.746381 0.639763 0.202654
H18   H     H_    0.731222 0.921691 0.772776 0.148816
H19   H     H_    0.011697 0.999712 0.837105 0.139550
H20   H     H_    0.278369 0.890298 0.753552 0.140504
H21   H     H_    0.269436 0.717457 0.623486 0.187935
C33   C     C_R   0.020064 0.326147 0.393414 0.298631
C34   C     C_R   0.161429 0.242851 0.342898 -0.153447
C35   C     C_R   0.151730 0.129361 0.262486 -0.247362
C36   C     C_R   0.994682 0.082832 0.226888 -0.089581
C37   C     C_R   0.847059 0.146760 0.273571 -0.208229
C38   C     C_R   0.858843 0.260692 0.354005 -0.149089
H22   H     H_    0.287509 0.253810 0.360217 0.202998
H23   H     H_    0.267503 0.075470 0.228341 0.149507
H24   H     H_    0.985838 0.994678 0.164903 0.140632
H25   H     H_    0.720164 0.106431 0.247690 0.141058
H26   H     H_    0.730513 0.282719 0.376493 0.188102

loop_
_geom_bond_atom_site_label_1
_geom_bond_atom_site_label_2
_ccdc_geom_bond_type
C4    H10   S    
C9    O7    A    
Cu1   O5    S    
Cu2   O6    S    
C15   H6    S    
C26   H14   S    
C16   H5    S    
C29   H18   S    
N1    N2    D    
C32   H21   S    
C19   C21   A    
C36   H24   S    
C6    C22   A    
Cu2   O7    S    
C5    H1    S    
C11   C15   A    
C31   H20   S    
C25   H13   S    
C6    H2    S    
C12   C16   A    
C33   C34   A    
C10   O8    A    
C23   C24   A    
C35   C36   A    
C8    O10   S    
C25   H12   S    
C29   C30   A    
C17   H4    S    
C3    C24   A    
C34   C35   A    
C26   H15   S    
C9    O5    A    
C10   O6    A    
C20   C24   A    
C7    C8    D    
C4    C6    A    
C4    C23   A    
C27   C32   A    
C33   C38   A    
C30   C31   A    
C7    O9    S    
C19   C23   A    
C13   H7    S    
C37   H25   S    
Cu1   N2    S    
O9    C25   S    
C3    H9    S    
C38   H26   S    
C13   C21   A    
C34   H22   S    
C18   H3    S    
C9    C11   S    
C10   C12   S    
C1    O3    A    
C25   H11   S    
N2    C33   S    
C30   H19   S    
C13   C15   A    
C14   C16   A    
C28   C29   A    
O10   C26   S    
C26   H16   S    
C28   H17   S    
C11   C17   A    
C1    C7    S    
C2    C8    S    
C20   C22   A    
C37   C38   A    
C3    C5    A    
Cu1   O4    S    
C14   H8    S    
Cu2   N1    S    
C14   C22   A    
Cu1   Cu2   S    
C36   C37   A    
Cu1   O1    S    
Cu2   O2    S    
C27   C28   A    
C2    O4    A    
C17   C19   A    
C18   C20   A    
C31   C32   A    
C1    O1    A    
C2    O2    A    
C5    C21   A    
C12   C18   A    
C35   H23   S    
Cu1   O8    S    
N1    C27   S    
Cu2   O3    S    
