data_mof_unit_32298.cif
_audit_creation_date              2012-12-11T14:21:16-0500
_audit_creation_method            fapswitch 2.2
_symmetry_space_group_name_H-M    P1
_symmetry_Int_Tables_number       1
_space_group_crystal_system       monoclinic
_cell_length_a                    22.040632
_cell_length_b                    7.196601
_cell_length_c                    14.898404
_cell_angle_alpha                 90.0
_cell_angle_beta                  107.378525
_cell_angle_gamma                 90.0
_cell_volume                      2255.27735921

loop_
_atom_site_label
_atom_site_type_symbol
_atom_type_description
_atom_site_fract_x
_atom_site_fract_y
_atom_site_fract_z
_atom_type_partial_charge
O1    O     O_R   0.584770 0.505770 0.002090 -0.517755
O2    O     O_R   0.415230 0.005770 0.997910 -0.517754
O3    O     O_R   0.467060 0.173340 0.861950 -0.534998
O4    O     O_R   0.532940 0.673340 0.138050 -0.534999
C1    C     C_R   0.454891 0.344100 0.825723 0.770429
C2    C     C_R   0.545109 0.844100 0.174277 0.770428
O5    O     O_R   0.587510 0.175890 0.993210 -0.532216
O6    O     O_R   0.412490 0.675890 0.006790 -0.532216
O7    O     O_R   0.536540 0.008150 0.130100 -0.535505
O8    O     O_R   0.463460 0.508150 0.869900 -0.535506
C3    C     C_R   0.612598 0.344779 0.996448 0.756403
C4    C     C_R   0.387402 0.844779 0.003552 0.756404
O9    O     O_3   0.483140 0.340040 0.044760 -0.374757
O10   O     O_3   0.516860 0.840040 0.955240 -0.374758
V1    V     V_3+5 0.503130 0.064190 0.991700 1.655626
V2    V     V_3+5 0.496870 0.564190 0.008300 1.655625
C5    C     C_2   0.216517 0.734321 0.006512 0.423642
C6    C     C_2   0.783483 0.234319 0.993490 0.423641
C7    C     C_2   0.177160 0.883102 0.985359 -0.269275
C8    C     C_2   0.822840 0.383102 0.014641 -0.269275
H1    H     H_    0.192317 0.004579 0.954326 0.186280
H2    H     H_    0.807682 0.504582 0.045673 0.186282
C9    C     C_2   0.277112 0.732145 0.982479 0.172944
C10   C     C_2   0.722889 0.232146 0.017523 0.172943
C11   C     C_2   0.323925 0.858192 0.017727 0.172952
C12   C     C_2   0.676075 0.358191 0.982273 0.172950
C13   C     C_R   0.927512 0.882744 0.722865 -0.190789
C14   C     C_R   0.072488 0.382744 0.277135 -0.190789
C15   C     C_R   0.572996 0.849041 0.276573 -0.131715
C16   C     C_R   0.427003 0.349040 0.723427 -0.131715
C17   C     C_R   0.937906 0.831282 0.567223 0.439177
C18   C     C_R   0.062094 0.331283 0.432776 0.439176
C19   C     C_R   0.966002 0.862849 0.663783 0.342262
C20   C     C_R   0.033998 0.362850 0.336217 0.342262
C21   C     C_R   0.861455 0.877262 0.685809 -0.237589
C22   C     C_R   0.138545 0.377261 0.314191 -0.237589
C23   C     C_R   0.831491 0.842684 0.589283 0.038661
C24   C     C_R   0.168509 0.342682 0.410716 0.038661
C25   C     C_R   0.870823 0.817140 0.530052 -0.088814
C26   C     C_R   0.129177 0.317140 0.469948 -0.088814
C27   C     C_R   0.763799 0.831623 0.550157 0.048656
C28   C     C_R   0.236201 0.331620 0.449843 0.048655
C29   C     C_R   0.736276 0.804803 0.451147 0.001783
C30   C     C_R   0.263724 0.304803 0.548854 0.001783
C31   C     C_R   0.777175 0.752497 0.397576 0.242481
C32   C     C_R   0.222824 0.252500 0.602424 0.242481
C33   C     C_R   0.842770 0.767423 0.435915 -0.048964
C34   C     C_R   0.157229 0.267425 0.564085 -0.048965
C35   C     C_R   0.722621 0.840542 0.607075 -0.115090
C36   C     C_R   0.277379 0.340535 0.392925 -0.115090
C37   C     C_R   0.657070 0.832157 0.568348 -0.100470
C38   C     C_R   0.342929 0.332148 0.431652 -0.100471
C39   C     C_R   0.629678 0.827747 0.471297 0.046645
C40   C     C_R   0.370322 0.327741 0.528703 0.046645
C41   C     C_R   0.668894 0.823286 0.411311 0.102134
C42   C     C_R   0.331106 0.323285 0.588689 0.102134
C43   C     C_R   0.563191 0.831653 0.433620 -0.169644
C44   C     C_R   0.436809 0.331645 0.566380 -0.169644
C45   C     C_R   0.534750 0.837163 0.336526 0.367773
C46   C     C_R   0.465250 0.337158 0.663474 0.367773
C47   C     C_R   0.639262 0.849230 0.314200 -0.203013
C48   C     C_R   0.360738 0.349231 0.685800 -0.203014
H3    H     H_    0.871844 0.729181 0.391798 0.234436
H4    H     H_    0.128156 0.229184 0.608202 0.234435
H5    H     H_    0.666859 0.875002 0.266724 0.198630
H6    H     H_    0.333141 0.375007 0.733275 0.198630
H7    H     H_    0.627491 0.835896 0.614871 0.176068
H8    H     H_    0.372509 0.335884 0.385129 0.176069
H9    H     H_    0.835054 0.898781 0.735175 0.162262
H10   H     H_    0.164946 0.398780 0.264825 0.162263
H11   H     H_    0.739304 0.848480 0.682594 0.168334
H12   H     H_    0.260696 0.348469 0.317406 0.168335
H13   H     H_    0.533293 0.830168 0.479692 0.166225
H14   H     H_    0.466707 0.330157 0.520308 0.166225
O11   O     O_R   0.036450 0.233070 0.130130 -0.540994
O12   O     O_R   0.963550 0.733070 0.869870 -0.540994
O13   O     O_R   0.912470 0.560570 0.006790 -0.530703
O14   O     O_R   0.087530 0.060570 0.993210 -0.530704
C49   C     C_R   0.887306 0.391382 0.003391 0.782074
C50   C     C_R   0.112694 0.891382 0.996609 0.782075
O15   O     O_R   0.032920 0.562940 0.138050 -0.533266
O16   O     O_R   0.967080 0.062940 0.861950 -0.533266
O17   O     O_R   0.084790 0.730500 0.002090 -0.514617
O18   O     O_R   0.915210 0.230500 0.997910 -0.514618
C51   C     C_R   0.044813 0.394203 0.174787 0.788842
C52   C     C_R   0.955187 0.894203 0.825213 0.788841
O19   O     O_3   0.016820 0.396170 0.955260 -0.374485
O20   O     O_3   0.983180 0.896170 0.044740 -0.374484
V3    V     V_3+5 0.996880 0.672090 0.008300 1.642104
V4    V     V_3+5 0.003120 0.172090 0.991700 1.642103
Cl1   Cl    Cl    0.198913 0.531146 0.060727 -0.557843
Cl2   Cl    Cl    0.801088 0.031139 0.939277 -0.557840
Cl3   Cl    Cl    0.049666 0.873796 0.711468 -0.523312
Cl4   Cl    Cl    0.950334 0.373798 0.288532 -0.523311
Br1   Br    Br    0.750638 0.611086 0.282201 -0.455425
Br2   Br    Br    0.249361 0.111092 0.717800 -0.455427
Br3   Br    Br    0.285232 0.535991 0.898742 -0.406989
Br4   Br    Br    0.714768 0.035995 0.101262 -0.406992
Cl5   Cl    Cl    0.314013 0.040246 0.092084 -0.526465
Cl6   Cl    Cl    0.685987 0.540243 0.907914 -0.526466
Cl7   Cl    Cl    0.451204 0.834189 0.292113 -0.598454
Cl8   Cl    Cl    0.548796 0.334181 0.707887 -0.598453
Cl9   Cl    Cl    0.987906 0.807683 0.494274 -0.473670
Cl10  Cl    Cl    0.012094 0.307685 0.505726 -0.473670

loop_
_geom_bond_atom_site_label_1
_geom_bond_atom_site_label_2
_ccdc_geom_bond_type
C5    Cl1   S    
O2    C4    A    
C2    O7    A    
O14   V4    S    
O5    C3    A    
O13   V3    S    
C5    C9    S    
O18   V4    S    
C6    C10   S    
C21   C23   A    
C10   C12   D    
C24   C28   A    
C33   H3    S    
C49   O18   A    
O14   C50   A    
C34   H4    S    
C44   C46   A    
C43   H13   S    
C36   H12   S    
O11   V4    S    
C18   C20   A    
O11   C51   A    
C15   C45   A    
C30   C32   A    
C35   C37   A    
C16   C46   A    
C36   C38   A    
C17   C19   A    
C38   H8    S    
O12   V3    S    
O15   V3    S    
C38   C40   A    
C31   C33   A    
C14   C20   A    
O6    V2    S    
C27   C29   A    
C28   C30   A    
C50   O17   A    
C46   Cl8   S    
C27   C35   A    
C22   H10   S    
C15   C47   A    
C39   C41   A    
O17   V3    S    
C40   C42   A    
C48   H6    S    
C45   Cl7   S    
O4    C2    A    
C39   C43   A    
C3    C12   S    
C13   C21   A    
O16   C52   A    
C13   C19   A    
C37   C39   A    
C17   Cl9   S    
O4    V2    S    
C13   C52   S    
C30   C42   A    
O6    C4    A    
C2    C15   S    
C18   Cl10  S    
O13   C49   A    
O1    V2    S    
C37   H7    S    
O2    V1    S    
C29   C31   A    
C14   C22   A    
C28   C36   A    
C10   Br4   S    
C29   C41   A    
C9    Br3   S    
C8    H2    S    
C16   C48   A    
C42   C48   A    
O19   V4    S    
C31   Br1   S    
O12   C52   A    
O3    V1    S    
C44   H14   S    
C25   C33   A    
C1    C16   S    
C40   C44   A    
C26   C34   A    
C8    C49   S    
C7    H1    S    
C20   Cl4   S    
O3    C1    A    
C19   Cl3   S    
O16   V4    S    
C4    C11   S    
C6    Cl2   S    
C22   C24   A    
O7    V1    S    
C1    O8    A    
C23   C25   A    
O8    V2    S    
C24   C26   A    
C11   Cl5   S    
C41   C47   A    
O5    V1    S    
C5    C7    D    
C17   C25   A    
C6    C8    D    
C18   C26   A    
C23   C27   A    
C7    C50   S    
C43   C45   A    
C32   C34   A    
C47   H5    S    
C9    C11   D    
C32   Br2   S    
O20   V3    S    
C21   H9    S    
C35   H11   S    
O9    V2    S    
C14   C51   S    
O10   V1    S    
O1    C3    A    
O15   C51   A    
C12   Cl6   S    
