data_mof_unit_55923.cif
_audit_creation_date              2013-03-05T15:47:34-0500
_audit_creation_method            fapswitch 2.2
_symmetry_space_group_name_H-M    P1
_symmetry_Int_Tables_number       1
_space_group_crystal_system       triclinic
_cell_length_a                    7.2407
_cell_length_b                    15.267721
_cell_length_c                    22.571241
_cell_angle_alpha                 89.764308
_cell_angle_beta                  89.996173
_cell_angle_gamma                 89.993292
_cell_volume                      2495.20670359

loop_
_atom_site_label
_atom_site_type_symbol
_atom_site_description
_atom_site_fract_x
_atom_site_fract_y
_atom_site_fract_z
_atom_type_partial_charge
O1    O     O_R   0.390810 0.844810 0.447340 -0.565020
O2    O     O_R   0.109190 0.155190 0.947340 -0.588733
O3    O     O_R   0.890810 0.655190 0.552660 -0.565032
O4    O     O_R   0.609190 0.344810 0.052660 -0.588747
O5    O     O_R   0.720550 0.655820 0.440420 -0.573529
O6    O     O_R   0.779450 0.344180 0.940420 -0.565040
O7    O     O_R   0.220550 0.844180 0.559580 -0.573509
O8    O     O_R   0.279450 0.155820 0.059580 -0.565232
C1    C     C_R   0.552124 0.629245 0.425501 1.018406
C2    C     C_R   0.946919 0.374531 0.927762 0.988304
C3    C     C_R   0.052102 0.870753 0.574496 1.018458
C4    C     C_R   0.446923 0.125474 0.072240 0.987846
O9    O     O_R   0.720530 0.844130 0.440420 -0.560968
O10   O     O_R   0.779470 0.155870 0.940420 -0.559950
O11   O     O_R   0.220530 0.655870 0.559580 -0.560987
O12   O     O_R   0.279470 0.344130 0.059580 -0.559730
O13   O     O_R   0.890830 0.844810 0.552660 -0.588113
O14   O     O_R   0.609170 0.155190 0.052660 -0.573576
O15   O     O_R   0.390830 0.655190 0.447340 -0.588102
O16   O     O_R   0.109170 0.344810 0.947340 -0.573596
C5    C     C_R   0.551980 0.870079 0.423725 0.953312
C6    C     C_R   0.948363 0.129817 0.924313 0.931395
C7    C     C_R   0.051987 0.629926 0.576277 0.953322
C8    C     C_R   0.448339 0.370173 0.075698 0.931164
O17   O     O_3   0.557310 0.749980 0.536820 -0.230867
O18   O     O_3   0.942690 0.250020 0.036820 -0.244762
O19   O     O_3   0.057310 0.750020 0.463180 -0.230871
O20   O     O_3   0.442690 0.249980 0.963180 -0.244773
V1    V     V_3+5 0.832160 0.749980 0.493170 1.337280
V2    V     V_3+5 0.667840 0.250020 0.993170 1.326094
V3    V     V_3+5 0.332160 0.750020 0.506830 1.337277
V4    V     V_3+5 0.167840 0.249980 0.006830 1.326129
C9    C     C_R   0.771649 0.579171 0.858897 -0.083499
C10   C     C_R   0.452560 0.408383 0.368694 -0.069848
C11   C     C_R   0.271737 0.920839 0.141112 -0.083746
C12   C     C_R   0.952280 0.091591 0.631312 -0.069784
H1    H     H_    0.762845 0.521947 0.944956 0.152342
H2    H     H_    0.502087 0.464750 0.453143 0.152735
H3    H     H_    0.263010 0.978032 0.055043 0.152515
H4    H     H_    0.001726 0.035225 0.546854 0.152725
H5    H     H_    0.669268 0.626835 0.872042 0.151061
H6    H     H_    0.408475 0.349310 0.390790 0.149173
H7    H     H_    0.169415 0.873162 0.127965 0.151091
H8    H     H_    0.908051 0.150652 0.609221 0.149092
C13   C     C_R   0.945244 0.450642 0.887167 -0.235525
C14   C     C_R   0.542328 0.557585 0.382616 -0.227382
C15   C     C_R   0.445258 0.049374 0.112840 -0.235566
C16   C     C_R   0.042235 0.942408 0.617380 -0.227419
C17   C     C_R   0.204506 0.500601 0.614653 -0.149885
C18   C     C_R   0.546762 0.519457 0.092946 -0.197699
C19   C     C_R   0.704432 0.999418 0.385362 -0.149807
C20   C     C_R   0.046994 0.980555 0.907052 -0.197739
C21   C     C_R   0.303455 0.468075 0.662778 -0.012585
C22   C     C_R   0.630642 0.582356 0.128331 -0.051657
C23   C     C_R   0.803328 0.031987 0.337237 -0.012653
C24   C     C_R   0.130867 0.917659 0.871655 -0.051699
C25   C     C_R   0.233967 0.479792 0.719303 -0.016801
C26   C     C_R   0.629403 0.571119 0.189823 -0.072945
C27   C     C_R   0.733826 0.020303 0.280715 -0.016897
C28   C     C_R   0.129474 0.928866 0.810160 -0.072946
C29   C     C_R   0.060095 0.517014 0.729039 0.049994
C30   C     C_R   0.523901 0.504654 0.217544 0.106526
C31   C     C_R   0.560002 0.983054 0.270980 0.050006
C32   C     C_R   0.023926 0.995333 0.782456 0.106615
C33   C     C_R   0.976040 0.565760 0.681661 -0.039003
C34   C     C_R   0.442786 0.438432 0.180838 -0.031685
C35   C     C_R   0.475985 0.934286 0.318355 -0.038971
C36   C     C_R   0.942867 0.061572 0.819174 -0.032006
C37   C     C_R   0.979177 0.513071 0.786649 -0.024891
C38   C     C_R   0.507190 0.499731 0.280977 -0.040469
C39   C     C_R   0.479114 0.986981 0.213368 -0.024837
C40   C     C_R   0.007146 0.000256 0.719023 -0.040495
C41   C     C_R   0.838403 0.574277 0.800378 0.039255
C42   C     C_R   0.446314 0.419498 0.306507 0.022932
C43   C     C_R   0.338414 0.925759 0.199637 0.039178
C44   C     C_R   0.946218 0.080490 0.693501 0.022871
C45   C     C_R   0.758916 0.626010 0.755051 -0.204527
C46   C     C_R   0.366520 0.354286 0.270464 -0.198805
C47   C     C_R   0.258915 0.874037 0.244966 -0.204718
C48   C     C_R   0.866600 0.145739 0.729559 -0.198875
C49   C     C_R   0.820061 0.618434 0.695845 0.286208
C50   C     C_R   0.350040 0.367432 0.208742 0.237035
C51   C     C_R   0.320030 0.881616 0.304172 0.286120
C52   C     C_R   0.850194 0.132607 0.791280 0.237207
C53   C     C_R   0.027346 0.447786 0.830493 0.289597
C54   C     C_R   0.542573 0.571866 0.320467 0.302094
C55   C     C_R   0.527255 0.052263 0.169522 0.289352
C56   C     C_R   0.042540 0.928125 0.679529 0.302075
C57   C     C_R   0.826141 0.519090 0.901471 -0.150420
C58   C     C_R   0.505110 0.475386 0.405595 -0.214150
C59   C     C_R   0.326241 0.980909 0.098533 -0.150266
C60   C     C_R   0.004848 0.024594 0.594404 -0.214074
C61   C     C_R   0.057965 0.560088 0.623235 -0.151210
C62   C     C_R   0.464175 0.444837 0.117560 -0.135368
C63   C     C_R   0.557928 0.939932 0.376776 -0.151128
C64   C     C_R   0.964283 0.055159 0.882450 -0.135696
H9    H     H_    0.263898 0.493509 0.570781 0.147813
H10   H     H_    0.557939 0.524894 0.045144 0.147498
H11   H     H_    0.763833 0.006487 0.429231 0.147824
H12   H     H_    0.058235 0.975115 0.954850 0.147418
H13   H     H_    0.321369 0.463178 0.756329 0.185767
H14   H     H_    0.716688 0.613773 0.215512 0.176391
H15   H     H_    0.821207 0.036949 0.243690 0.185793
H16   H     H_    0.216753 0.886208 0.784463 0.176279
C65   C     C_2   0.594843 0.680972 0.767888 1.151337
O21   O     O_2   0.611219 0.747641 0.797221 -0.567811
O22   O     O_R   0.421679 0.655167 0.747171 -0.775276
H17   H     H_    0.318751 0.694073 0.762246 0.373582
C66   C     C_2   0.286348 0.275227 0.298797 1.141373
O23   O     O_2   0.120910 0.260346 0.295003 -0.565800
O24   O     O_R   0.400457 0.221542 0.333345 -0.781341
H18   H     H_    0.329286 0.184962 0.362988 0.326295
C67   C     C_2   0.094862 0.819082 0.232130 1.151406
O25   O     O_2   0.111268 0.752415 0.202791 -0.567518
O26   O     O_R   0.921684 0.844886 0.252856 -0.775322
H19   H     H_    0.818774 0.805986 0.237778 0.373491
C68   C     C_2   0.786633 0.224877 0.701257 1.141300
O27   O     O_2   0.621273 0.239930 0.705127 -0.565615
O28   O     O_R   0.900832 0.278456 0.666667 -0.781298
H20   H     H_    0.829707 0.315117 0.637055 0.326240
N1    N     N_R   0.135571 0.371891 0.815923 0.213573
O29   O     O_R   0.289182 0.356018 0.843899 -0.337267
O30   O     O_R   0.087307 0.321498 0.772351 -0.364250
N2    N     N_R   0.549257 0.660691 0.299289 0.204293
O31   O     O_R   0.428291 0.688273 0.260990 -0.384157
O32   O     O_R   0.669573 0.715584 0.320390 -0.424349
N3    N     N_R   0.635303 0.128195 0.184100 0.213452
O33   O     O_R   0.788949 0.144107 0.156153 -0.337298
O34   O     O_R   0.586783 0.178610 0.227633 -0.364550
N4    N     N_R   0.049307 0.839299 0.700705 0.204295
O35   O     O_R   0.928390 0.811708 0.739017 -0.384139
O36   O     O_R   0.169668 0.784420 0.679595 -0.424301
C69   C     C_2   0.492924 0.433840 0.655791 1.112403
O37   O     O_2   0.551230 0.412859 0.607021 -0.663478
O38   O     O_R   0.608741 0.430818 0.705351 -0.773553
H21   H     H_    0.742553 0.420999 0.695039 0.334724
C70   C     C_2   0.726593 0.658037 0.100502 1.045940
O39   O     O_2   0.786613 0.717391 0.131178 -0.624491
O40   O     O_R   0.746440 0.662415 0.038893 -0.823422
H22   H     H_    0.813506 0.717232 0.025316 0.338811
C71   C     C_2   0.992782 0.066222 0.344218 1.112259
O41   O     O_2   0.051126 0.087128 0.392995 -0.663432
O42   O     O_R   0.108552 0.069319 0.294644 -0.773520
H23   H     H_    0.242380 0.079083 0.304947 0.334807
C72   C     C_2   0.227020 0.842013 0.899467 1.046048
O43   O     O_2   0.286076 0.782413 0.868812 -0.624605
O44   O     O_R   0.248188 0.837970 0.961038 -0.823411
H24   H     H_    0.315299 0.783150 0.974602 0.338984
N5    N     N_R   0.712928 0.660259 0.650784 0.234819
O45   O     O_R   0.695369 0.745050 0.650753 -0.341958
O46   O     O_R   0.598145 0.613518 0.619926 -0.391372
N6    N     N_R   0.223015 0.314136 0.176183 0.239562
O47   O     O_R   0.066556 0.347978 0.159330 -0.336372
O48   O     O_R   0.243526 0.229572 0.174826 -0.353166
N7    N     N_R   0.212891 0.839799 0.349235 0.234838
O49   O     O_R   0.195300 0.755011 0.349257 -0.341904
O50   O     O_R   0.098146 0.886554 0.380112 -0.391360
N8    N     N_R   0.723480 0.186062 0.823853 0.239522
O51   O     O_R   0.566361 0.152564 0.840426 -0.335804
O52   O     O_R   0.744890 0.270568 0.825347 -0.353967

loop_
_geom_bond_atom_site_label_1
_geom_bond_atom_site_label_2
_geom_bond_distance
_ccdc_geom_bond_type
O17   V3    1.765232 S    
C35   C63   1.448905 A    
C26   C30   1.414107 A    
O1    C5    1.339083 A    
C23   C71   1.476714 S    
C23   C27   1.383718 A    
O19   V1    1.765149 S    
O13   V1    2.023842 S    
C65   O21   1.222337 D    
O3    C7    1.339103 A    
O24   H18   1.010981 S    
C10   H6    1.077220 S    
C56   N4    1.436903 S    
C40   C44   1.421687 A    
O15   V3    2.023733 S    
C68   O28   1.399030 S    
C55   N3    1.437946 S    
C72   O43   1.222558 D    
C14   C54   1.418743 A    
N5    O45   1.300786 A    
O38   H21   1.007780 S    
O7    C3    1.329105 A    
C65   O22   1.395591 S    
C11   C43   1.408770 A    
C36   C64   1.439542 A    
C32   C36   1.435546 A    
O9    V1    2.030512 S    
C8    C62   1.488059 S    
C66   O24   1.399013 S    
C22   C26   1.397856 A    
O4    C8    1.333519 A    
C49   N5    1.427799 S    
C22   C70   1.485443 S    
C51   N7    1.427805 S    
O42   H23   1.007784 S    
O1    V3    2.015418 S    
C30   C38   1.438530 A    
O2    V4    2.023372 S    
C24   C72   1.485463 S    
O3    V1    2.015384 S    
C12   C44   1.413865 A    
C40   C56   1.442617 A    
C71   O41   1.222863 D    
C1    O15   1.328631 A    
O44   H24   1.014007 S    
C2    O16   1.334034 A    
C19   C63   1.410461 A    
C38   C42   1.421683 A    
C16   C60   1.382504 A    
O22   H17   1.012706 S    
C16   C56   1.418740 A    
C53   N1    1.437978 S    
N4    O36   1.300638 A    
C26   H14   1.078414 S    
C11   H7    1.081100 S    
C48   C52   1.411639 A    
C34   C62   1.439556 A    
C12   C60   1.375526 A    
O11   C7    1.336811 A    
C1    C14   1.465530 S    
O12   C8    1.336744 A    
C39   C43   1.417857 A    
N8    O52   1.300098 A    
C3    C16   1.465457 S    
C15   C59   1.393771 A    
O10   V2    2.037371 S    
C4    C15   1.476857 S    
H3    C59   1.084223 S    
C72   O44   1.399279 S    
O5    V1    2.037617 S    
C19   H11   1.085378 S    
O40   H22   1.013978 S    
C31   C35   1.435744 A    
C18   H10   1.084798 S    
O7    V3    2.037421 S    
C30   C34   1.435513 A    
O8    V4    2.030561 S    
C21   C69   1.476703 S    
C21   C25   1.383725 A    
O18   V4    1.765151 S    
C18   C62   1.399692 A    
C5    C63   1.500970 S    
O11   V3    2.030582 S    
C20   H12   1.084786 S    
C7    C61   1.500954 S    
C71   O42   1.398718 S    
C36   C52   1.420281 A    
C13   C53   1.411395 A    
N3    O34   1.299052 A    
O5    C1    1.329111 A    
C9    C57   1.383203 A    
C34   C50   1.420276 A    
C70   O40   1.399319 S    
C46   C50   1.411768 A    
C33   C49   1.423604 A    
C10   C58   1.375542 A    
C45   C49   1.412939 A    
O8    C4    1.328757 A    
C2    C13   1.476917 S    
O9    C5    1.336824 A    
C18   C22   1.391217 A    
C35   C51   1.423612 A    
H4    C60   1.085034 S    
C37   C41   1.417869 A    
N7    O50   1.299780 A    
N1    O29   1.301286 A    
C10   C42   1.413888 A    
C39   C55   1.444387 A    
C9    C41   1.408765 A    
O6    V2    2.030631 S    
C31   C39   1.427246 A    
C47   C67   1.483649 S    
C54   N2    1.436899 S    
C69   O37   1.222867 D    
C12   H8    1.077287 S    
N3    O33   1.301260 A    
C38   C54   1.442636 A    
C37   C53   1.444415 A    
N2    O32   1.300654 A    
C67   O25   1.222349 D    
O16   V4    2.015852 S    
C29   C37   1.427254 A    
C48   C68   1.482154 S    
C3    O13   1.328596 A    
C52   N8    1.432866 S    
C13   C57   1.393777 A    
C6    C64   1.488031 S    
C44   C48   1.411952 A    
N6    O48   1.300082 A    
O6    C2    1.328811 A    
O28   H20   1.011014 S    
C25   C29   1.398933 A    
C14   C58   1.382515 A    
O12   V4    2.037568 S    
C25   H13   1.077747 S    
C70   O39   1.222603 D    
H2    C58   1.085007 S    
C27   C31   1.398943 A    
H1    C57   1.084235 S    
C28   C32   1.414062 A    
O2    C6    1.333457 A    
C9    H5    1.081094 S    
O10   C6    1.336749 A    
N5    O46   1.299781 A    
N4    O35   1.299534 A    
C27   H15   1.077729 S    
O20   V2    1.765234 S    
C28   H16   1.078399 S    
C66   O23   1.222341 D    
C47   C51   1.412944 A    
N8    O51   1.301631 A    
C20   C24   1.391180 A    
C17   C21   1.391208 A    
C45   C65   1.483645 S    
C33   C61   1.448900 A    
C20   C64   1.399672 A    
C46   C66   1.482126 S    
C19   C23   1.391204 A    
C32   C40   1.438574 A    
O4    V2    2.023264 S    
N1    O30   1.299088 A    
O14   V2    2.015886 S    
C17   H9    1.085382 S    
C29   C33   1.435736 A    
C24   C28   1.397850 A    
N6    O47   1.301294 A    
C42   C46   1.412036 A    
C4    O14   1.334039 A    
N7    O49   1.300791 A    
C69   O38   1.398712 S    
C41   C45   1.412489 A    
C17   C61   1.410470 A    
C68   O27   1.222338 D    
C43   C47   1.412484 A    
C50   N6    1.432939 S    
O26   H19   1.012715 S    
C15   C55   1.411341 A    
N2    O31   1.299531 A    
C67   O26   1.395615 S    
C11   C59   1.383217 A    
