data_mof_unit_12156.cif
_audit_creation_date              2012-12-10T19:45:46-0500
_audit_creation_method            fapswitch 2.2
_symmetry_space_group_name_H-M    P1
_symmetry_Int_Tables_number       1
_space_group_crystal_system       triclinic
_cell_length_a                    10.876465
_cell_length_b                    14.71187
_cell_length_c                    14.742155
_cell_angle_alpha                 65.442369
_cell_angle_beta                  103.133008
_cell_angle_gamma                 102.204829
_cell_volume                      2071.14021112

loop_
_atom_site_label
_atom_site_type_symbol
_atom_type_description
_atom_site_fract_x
_atom_site_fract_y
_atom_site_fract_z
_atom_type_partial_charge
C1    C     C_R   0.477351 0.119649 0.312519 0.839611
C2    C     C_R   0.482816 0.778817 0.959212 -0.184900
C3    C     C_R   0.490171 0.152812 0.135148 -0.282774
C4    C     C_R   0.509789 0.847193 0.864842 -0.282856
C5    C     C_R   0.465195 0.290533 0.176529 0.536802
C6    C     C_R   0.534836 0.709479 0.823479 0.536805
C7    C     C_R   0.482986 0.360460 0.078369 -0.035833
C8    C     C_R   0.517033 0.639551 0.921637 -0.035844
C9    C     C_R   0.520439 0.324747 0.014287 0.085959
C10   C     C_R   0.479558 0.675260 0.985713 0.085985
C11   C     C_R   0.475950 0.465643 0.044963 0.072744
C12   C     C_R   0.522647 0.880352 0.687481 0.839629
C13   C     C_R   0.524077 0.534367 0.955046 0.072729
C14   C     C_R   0.579645 0.495628 0.902971 -0.127268
C15   C     C_R   0.420376 0.504378 0.097037 -0.127256
C16   C     C_R   0.262986 0.000386 0.501485 0.779463
C17   C     C_R   0.737013 0.999614 0.498515 0.779460
C18   C     C_R   0.570549 0.392876 0.928451 -0.227309
C19   C     C_R   0.429453 0.607130 0.071550 -0.227347
C20   C     C_R   0.710983 0.283551 0.668789 -0.320750
C21   C     C_R   0.289000 0.716445 0.331221 -0.320736
C22   C     C_R   0.680893 0.203445 0.637606 -0.046114
C23   C     C_R   0.870189 0.998431 0.497206 -0.066334
C24   C     C_R   0.319101 0.796554 0.362399 -0.046132
C25   C     C_R   0.516919 0.284138 0.509957 0.775198
C26   C     C_R   0.483079 0.715860 0.490042 0.775157
C27   C     C_R   0.548512 0.371663 0.533633 -0.127754
C28   C     C_R   0.451473 0.628332 0.466373 -0.127738
C29   C     C_R   0.643790 0.366816 0.618418 0.100082
C30   C     C_R   0.356187 0.633176 0.381593 0.100066
C31   C     C_R   0.486789 0.461020 0.480531 0.086370
C32   C     C_R   0.513192 0.538974 0.519475 0.086369
C33   C     C_R   0.598828 0.523932 0.610659 -0.152492
C34   C     C_R   0.129809 0.001573 0.502783 -0.066316
C35   C     C_R   0.401143 0.476058 0.389352 -0.152504
C36   C     C_R   0.666967 0.442360 0.655978 -0.231653
C37   C     C_R   0.332999 0.557628 0.344038 -0.231724
C38   C     C_R   0.309450 0.142708 0.746635 0.161164
C39   C     C_R   0.690423 0.857175 0.253471 0.161183
C40   C     C_R   0.242448 0.078729 0.696918 0.115993
C41   C     C_R   0.757450 0.921191 0.303142 0.116080
C42   C     C_R   0.178299 0.121121 0.596826 0.073122
C43   C     C_R   0.821701 0.878840 0.403207 0.073150
C44   C     C_R   0.181514 0.226114 0.548699 -0.157684
C45   C     C_R   0.909173 0.942278 0.453248 0.022264
C46   C     C_R   0.818566 0.773856 0.451346 -0.157717
C47   C     C_R   0.247054 0.288715 0.598428 -0.171707
C48   C     C_R   0.753014 0.711222 0.401660 -0.171633
C49   C     C_R   0.311102 0.247837 0.696913 0.168008
C50   C     C_R   0.688867 0.752055 0.303204 0.167966
C51   C     C_R   0.961648 0.055267 0.543059 -0.251829
C52   C     C_R   0.038350 0.944742 0.456923 -0.251844
C53   C     C_R   0.090825 0.057722 0.546742 0.022263
C54   C     C_R   0.472287 0.187559 0.205572 -0.156944
C55   C     C_R   0.527708 0.812447 0.794428 -0.156912
C56   C     C_R   0.517151 0.221189 0.040779 -0.184931
Cu1   Cu    Cu3+1 0.466270 0.918260 0.475690 1.012818
Cu2   Cu    Cu3+1 0.533730 0.081740 0.524310 1.012825
F1    F     F_    0.587206 0.728079 0.556178 -0.645782
F2    F     F_    0.412801 0.271919 0.443814 -0.645813
F3    F     F_    0.543544 0.677432 0.751557 -0.663361
F4    F     F_    0.456544 0.322591 0.248458 -0.663336
H1    H     H_    0.541634 0.193510 0.990408 0.165673
H2    H     H_    0.215131 0.720318 0.266963 0.156154
H3    H     H_    0.613963 0.572378 0.651155 0.243106
H4    H     H_    0.386000 0.427612 0.348856 0.243099
H5    H     H_    0.130324 0.259460 0.473007 0.166780
H6    H     H_    0.869835 0.740543 0.527012 0.166734
H7    H     H_    0.246791 0.369450 0.560569 0.175869
H8    H     H_    0.753349 0.630497 0.439528 0.175861
H9    H     H_    0.932865 0.097708 0.578036 0.163400
H10   H     H_    0.067136 0.902298 0.421949 0.163388
H11   H     H_    0.610617 0.366633 0.884216 0.138539
H12   H     H_    0.458313 0.806495 0.009576 0.165694
H13   H     H_    0.389373 0.633372 0.115780 0.138544
H14   H     H_    0.506044 0.926263 0.843939 0.182875
H15   H     H_    0.493888 0.073739 0.156039 0.182910
H16   H     H_    0.471521 0.301031 0.768575 0.234045
H17   H     H_    0.337156 0.295110 0.811113 0.241319
H18   H     H_    0.528446 0.698798 0.231594 0.234106
H19   H     H_    0.662802 0.704735 0.189035 0.241305
H20   H     H_    0.443907 0.062763 0.850475 0.224687
H21   H     H_    0.307344 0.051020 0.893737 0.238265
H22   H     H_    0.555798 0.937006 0.149723 0.224680
H23   H     H_    0.634937 0.542620 0.843999 0.206438
H24   H     H_    0.692314 0.948875 0.106345 0.238266
H25   H     H_    0.139954 0.940941 0.752280 0.223897
H26   H     H_    0.273822 0.942189 0.711130 0.217269
H27   H     H_    0.859868 0.058983 0.247641 0.223859
H28   H     H_    0.726137 0.057740 0.288954 0.217275
H29   H     H_    0.365090 0.457380 0.156012 0.206420
H30   H     H_    0.734798 0.436146 0.724068 0.141598
H31   H     H_    0.265163 0.563841 0.275951 0.141615
H32   H     H_    0.268342 0.861475 0.323142 0.152912
H33   H     H_    0.731653 0.138525 0.676863 0.152916
H34   H     H_    0.784847 0.279676 0.733050 0.156150
N1    N     N_R   0.584450 0.204570 0.560790 -0.223323
N2    N     N_R   0.415550 0.795430 0.439210 -0.223327
N3    N     N_3   0.376526 0.314203 0.746088 -0.572395
N4    N     N_3   0.623452 0.685653 0.254067 -0.572380
N5    N     N_3   0.373224 0.101948 0.848593 -0.622330
N6    N     N_3   0.626526 0.897891 0.151546 -0.622345
N7    N     N_3   0.235713 0.971593 0.750528 -0.611102
N8    N     N_3   0.764125 0.028320 0.249505 -0.611107
O1    O     O_R   0.455540 0.022090 0.338120 -0.620251
O2    O     O_R   0.544460 0.977910 0.661880 -0.620257
O3    O     O_R   0.512510 0.160150 0.379180 -0.467293
O4    O     O_R   0.487490 0.839850 0.620820 -0.467317
O5    O     O_R   0.291160 0.930970 0.479480 -0.607206
O6    O     O_R   0.708840 0.069030 0.520520 -0.607195
O7    O     O_R   0.348130 0.069020 0.520540 -0.527984
O8    O     O_R   0.651870 0.930980 0.479460 -0.527973

loop_
_geom_bond_atom_site_label_1
_geom_bond_atom_site_label_2
_ccdc_geom_bond_type
Cu1   O1    S    
C8    C13   A    
C23   C45   A    
C27   C29   A    
H22   N6    S    
C22   H33   S    
C14   C18   A    
C6    C55   A    
C17   O6    A    
C33   H3    S    
C39   C41   A    
C38   C49   A    
C7    C11   A    
C29   C36   A    
C17   C23   S    
C42   C44   A    
C24   N2    A    
C6    F3    S    
H17   N3    S    
C35   C37   A    
C38   N5    S    
C42   C53   S    
C3    C54   A    
Cu1   O8    S    
C33   C36   A    
Cu2   O3    S    
C47   H7    S    
C21   H2    S    
C16   C34   S    
C15   C19   A    
C11   C15   A    
Cu1   O5    S    
C25   F2    S    
C26   F1    S    
C2    H12   S    
C44   C47   A    
C36   H30   S    
C40   C42   A    
C20   H34   S    
C22   N1    A    
C13   C14   A    
H18   N4    S    
C41   C43   A    
Cu2   N1    S    
C51   H9    S    
C16   O5    A    
C20   C29   A    
C46   C48   A    
C27   C31   A    
Cu2   O7    S    
C5    C54   A    
C28   C32   A    
C47   C49   A    
C48   H8    S    
C5    C7    A    
C6    C8    A    
C35   H4    S    
C30   C37   A    
Cu2   O2    S    
C2    C4    A    
C1    C54   S    
C46   H6    S    
C52   H10   S    
C24   H32   S    
C49   N3    S    
C3    C56   A    
C23   C51   A    
C31   C32   A    
C10   C19   A    
Cu1   O4    S    
C56   H1    S    
C37   H31   S    
C9    C56   A    
C48   C50   A    
C43   C45   S    
H28   N8    S    
C26   N2    A    
H25   N7    S    
C25   N1    A    
C1    O3    A    
C18   H11   S    
C4    C55   A    
C31   C35   A    
C2    C10   A    
C17   O8    A    
H26   N7    S    
C39   N6    S    
C12   O4    A    
C7    C9    A    
H21   N5    S    
Cu2   O6    S    
C26   C28   A    
C14   H23   S    
C20   C22   A    
H19   N4    S    
C25   C27   A    
C21   C30   A    
C34   C52   A    
C45   C52   A    
C41   N8    S    
C32   C33   A    
C19   H13   S    
H27   N8    S    
C40   N7    S    
C12   O2    A    
C11   C13   A    
Cu1   Cu2   S    
C38   C40   A    
Cu1   N2    S    
C28   C30   A    
H20   N5    S    
C5    F4    S    
C43   C46   A    
C50   N4    S    
C4    H14   S    
C12   C55   S    
C15   H29   S    
C9    C18   A    
C39   C50   A    
C34   C53   A    
C8    C10   A    
C21   C24   A    
H16   N3    S    
C44   H5    S    
C51   C53   A    
C3    H15   S    
C16   O7    A    
C1    O1    A    
H24   N6    S    
