data_mof_unit_39577.cif
_audit_creation_date              2013-03-05T15:42:54-0500
_audit_creation_method            fapswitch 2.2
_symmetry_space_group_name_H-M    P1
_symmetry_Int_Tables_number       1
_space_group_crystal_system       triclinic
_cell_length_a                    15.076538
_cell_length_b                    10.943899
_cell_length_c                    9.72527
_cell_angle_alpha                 90.259907
_cell_angle_beta                  90.275007
_cell_angle_gamma                 90.108664
_cell_volume                      1604.59376484

loop_
_atom_site_label
_atom_site_type_symbol
_atom_site_description
_atom_site_fract_x
_atom_site_fract_y
_atom_site_fract_z
_atom_type_partial_charge
O1    O     O_R   0.500020 0.321960 0.617040 -0.540888
O2    O     O_R   0.499980 0.321920 0.382900 -0.538718
C1    C     C_R   0.496907 0.265684 0.499174 0.835154
O3    O     O_R   0.370270 0.499990 0.617090 -0.558742
O4    O     O_R   0.370240 0.499950 0.382940 -0.565213
C2    C     C_R   0.329231 0.500212 0.499811 0.897587
Cu1   Cu    Cu3+1 0.500020 0.500020 0.638630 1.261614
Cu2   Cu    Cu3+1 0.499980 0.499980 0.361370 1.236559
O5    O     O_R   0.500020 0.678080 0.617100 -0.457125
O6    O     O_R   0.499980 0.678040 0.382960 -0.585643
O7    O     O_R   0.629760 0.500050 0.617060 -0.544590
O8    O     O_R   0.629730 0.500010 0.382910 -0.501140
C3    C     C_R   0.505397 0.734421 0.500188 0.812482
C4    C     C_R   0.670936 0.500566 0.500208 0.842576
C5    C     C_R   0.813464 0.598593 0.565492 0.290569
C6    C     C_R   0.767692 0.502932 0.499552 -0.249884
C7    C     C_R   0.813230 0.409267 0.431547 0.282311
C8    C     C_R   0.906570 0.409425 0.429573 -0.122338
C9    C     C_R   0.953543 0.507523 0.492490 -0.051726
C10   C     C_R   0.906908 0.605544 0.555774 -0.129609
C11   C     C_R   0.953977 0.314271 0.365196 0.608177
C12   C     C_R   0.046312 0.314659 0.362824 0.237653
C13   C     C_R   0.093964 0.409644 0.428756 -0.162706
C14   C     C_R   0.047379 0.507160 0.492712 -0.110392
C15   C     C_R   0.094663 0.604065 0.557463 -0.129655
C16   C     C_R   0.047687 0.705049 0.609371 0.639234
C17   C     C_R   0.955285 0.707777 0.606178 0.215834
C18   C     C_R   0.187011 0.408876 0.434296 0.658658
C19   C     C_R   0.232969 0.503621 0.498928 -0.277032
C20   C     C_R   0.188100 0.600130 0.562934 0.247800
C21   C     C_2   0.524733 0.935783 0.389601 0.098304
C22   C     C_2   0.519923 0.865932 0.503621 0.419675
C23   C     C_2   0.531546 0.068851 0.402871 0.571049
C24   C     C_2   0.483385 0.134521 0.493640 0.070613
C25   C     C_2   0.455216 0.423243 0.922639 0.769794
N1    N     N_2   0.499020 0.498660 0.846910 0.054004
C26   C     C_2   0.442390 0.440897 0.074867 0.401009
N2    N     N_2   0.499000 0.498630 0.153040 0.062440
N3    N     N_R   0.764731 0.683613 0.648590 0.163321
O9    O     O_R   0.705475 0.754292 0.592938 -0.284471
O10   O     O_R   0.774733 0.683455 0.781542 -0.202271
F1    F     F_    0.531211 0.917458 0.630408 -0.547046
F2    F     F_    0.590343 0.125444 0.318329 -0.536046
N4    N     N_R   0.408748 0.083527 0.565770 0.148927
O11   O     O_R   0.387505 0.125153 0.686630 -0.138033
O12   O     O_R   0.353121 0.012193 0.501325 -0.239227
F3    F     F_    0.414146 0.326653 0.861763 -0.585165
F4    F     F_    0.513620 0.609637 0.900989 -0.444674
N5    N     N_R   0.365655 0.386046 0.134198 0.128742
O13   O     O_R   0.287934 0.430987 0.105834 -0.259851
O14   O     O_R   0.371096 0.275651 0.182327 -0.202415
F5    F     F_    0.580142 0.514320 0.100614 -0.448250
N6    N     N_R   0.763676 0.309403 0.374066 0.188891
O15   O     O_R   0.740703 0.218390 0.451809 -0.232720
O16   O     O_R   0.739168 0.311368 0.245656 -0.161442
F6    F     F_    0.911569 0.220773 0.299947 -0.520178
N7    N     N_R   0.090284 0.219040 0.288524 0.231723
O17   O     O_R   0.130910 0.244137 0.174311 -0.169175
O18   O     O_R   0.076483 0.105432 0.321119 -0.164599
F7    F     F_    0.234389 0.312822 0.385015 -0.561300
N8    N     N_R   0.238148 0.692414 0.634519 0.199607
O19   O     O_R   0.236260 0.697683 0.768154 -0.200225
O20   O     O_R   0.292675 0.762263 0.567585 -0.276532
F8    F     F_    0.090830 0.806763 0.654724 -0.517984
N9    N     N_R   0.912559 0.820375 0.642320 0.198197
O21   O     O_R   0.871026 0.882181 0.547981 -0.199783
O22   O     O_R   0.929228 0.871997 0.760467 -0.161081
N10   N     N_R   0.532014 0.884525 0.253844 0.165936
O23   O     O_R   0.483784 0.928977 0.154766 -0.170043
O24   O     O_R   0.600633 0.817986 0.222968 -0.190528

loop_
_geom_bond_atom_site_label_1
_geom_bond_atom_site_label_2
_geom_bond_distance
_ccdc_geom_bond_type
C7    C8    1.407456 A    
O4    Cu2   1.968247 S    
C13   C14   1.421297 A    
C21   C23   1.464768 S    
N6    O15   1.300669 A    
C19   C20   1.400500 A    
C17   N9    1.434650 S    
C10   C17   1.418633 A    
C11   F6    1.358746 S    
C8    C11   1.410119 A    
C26   N5    1.427801 S    
Cu1   N1    2.025829 S    
C3    C22   1.455606 S    
C21   C22   1.351847 D    
C9    C10   1.422990 A    
Cu2   O8    1.966365 S    
C25   F3    1.356324 S    
N8    O19   1.301101 A    
C12   N7    1.434237 S    
N6    O16   1.300922 A    
C9    C14   1.414723 A    
N7    O17   1.301157 A    
C24   N4    1.441695 S    
Cu1   Cu2   2.696425 S    
N3    O10   1.301050 A    
O1    Cu1   1.959003 S    
C11   C12   1.392405 A    
C14   C15   1.419942 A    
Cu1   O7    1.968249 S    
C5    N3    1.435316 S    
C16   C17   1.393673 A    
C21   N10   1.436930 S    
Cu2   N2    2.026035 S    
O3    Cu1   1.966363 S    
O4    C2    1.296483 A    
Cu2   O6    1.959003 S    
C18   C19   1.391928 A    
C25   C26   1.505577 S    
C26   N2    1.301149 D    
N4    O12   1.301403 A    
N1    F4    1.338736 S    
O2    C1    1.290862 A    
C18   F7    1.358874 S    
C5    C10   1.414353 A    
O7    C4    1.297564 A    
C4    C6    1.458967 S    
N7    O18   1.301087 A    
O3    C2    1.294984 A    
N2    F5    1.338648 S    
N9    O21   1.301186 A    
O5    C3    1.298686 A    
C5    C6    1.403709 A    
C23   F2    1.361958 S    
C7    N6    1.432642 S    
N3    O9    1.300444 A    
C2    C19   1.451833 S    
C23   C24   1.351061 D    
N4    O11   1.300375 A    
N10   O24   1.301752 A    
N5    O13   1.300508 A    
C20   N8    1.435169 S    
C15   C20   1.410198 A    
Cu1   O5    1.960831 S    
N5    O14   1.300221 A    
C22   F1    1.363317 S    
C12   C13   1.412283 A    
C8    C9    1.419689 A    
C16   F8    1.358963 S    
C1    C24   1.450181 S    
N9    O22   1.301287 A    
C15   C16   1.406821 A    
C13   C18   1.403644 A    
N8    O20   1.300449 A    
O2    Cu2   1.960831 S    
C25   N1    1.291467 D    
C6    C7    1.400137 A    
O8    C4    1.296318 A    
N10   O23   1.301036 A    
O1    C1    1.299394 A    
O6    C3    1.296031 A    
