data_mof_unit_24408.cif
_audit_creation_date              2012-12-10T17:50:49-0500
_audit_creation_method            fapswitch 2.2
_symmetry_space_group_name_H-M    P1
_symmetry_Int_Tables_number       1
_space_group_crystal_system       triclinic
_cell_length_a                    14.791232
_cell_length_b                    14.625637
_cell_length_c                    15.80776
_cell_angle_alpha                 75.819229
_cell_angle_beta                  102.988768
_cell_angle_gamma                 114.96496
_cell_volume                      2976.93361416

loop_
_atom_site_label
_atom_site_type_symbol
_atom_type_description
_atom_site_fract_x
_atom_site_fract_y
_atom_site_fract_z
_atom_type_partial_charge
C1    C     C_R   0.880716 0.311575 0.513874 0.815539
C2    C     C_R   0.360795 0.922764 0.482504 0.083480
C3    C     C_R   0.676489 0.998457 0.551760 0.108269
C4    C     C_R   0.325576 0.998560 0.431882 0.110662
C5    C     C_R   0.535231 0.048950 0.478575 0.080486
C6    C     C_R   0.466520 0.947630 0.506264 0.079911
C7    C     C_R   0.506089 0.874419 0.555345 -0.243666
C8    C     C_R   0.496402 0.120667 0.424948 -0.248658
C9    C     C_R   0.608873 0.898942 0.575241 -0.216010
C10   C     C_R   0.393750 0.096357 0.403810 -0.219929
C11   C     C_R   0.690590 0.620022 0.323054 0.369657
C12   C     C_R   0.119302 0.688410 0.485275 0.813819
C13   C     C_R   0.312891 0.384479 0.676273 0.360704
C14   C     C_R   0.780797 0.606213 0.358787 -0.147033
C15   C     C_R   0.225185 0.403203 0.643306 -0.134436
C16   C     C_R   0.000199 0.499943 0.660009 0.821772
C17   C     C_R   0.999752 0.499949 0.339963 0.814995
C18   C     C_R   0.725567 0.533492 0.498681 0.626521
C19   C     C_R   0.270139 0.458505 0.499096 0.621910
C20   C     C_R   0.626350 0.530453 0.464116 -0.183308
C21   C     C_R   0.369889 0.462198 0.531527 -0.181075
C22   C     C_R   0.613743 0.582384 0.376835 -0.064281
C23   C     C_R   0.779831 0.022469 0.577255 -0.302289
C24   C     C_R   0.385855 0.415491 0.620116 -0.065345
C25   C     C_R   0.541904 0.484237 0.513726 -0.058883
C26   C     C_R   0.452319 0.505361 0.479743 -0.055364
C27   C     C_R   0.451650 0.572845 0.397725 0.441956
C28   C     C_R   0.541240 0.414816 0.594635 0.447200
C29   C     C_R   0.526540 0.601752 0.345286 -0.242153
C30   C     C_R   0.470751 0.392016 0.649910 -0.250988
C31   C     C_3   0.968066 0.402253 0.042848 0.405686
C32   C     C_3   0.030319 0.594129 0.957343 0.407795
C33   C     C_3   0.907617 0.444796 0.963030 0.402450
C34   C     C_R   0.222201 0.975113 0.406479 -0.310790
C35   C     C_3   0.090790 0.551670 0.037105 0.406703
C36   C     C_1   0.001500 0.499706 0.749920 -0.174681
C37   C     C_1   0.997955 0.499156 0.250109 -0.172218
C38   C     C_3   0.064821 0.454743 0.998099 -0.481814
C39   C     C_3   0.933611 0.541688 0.002066 -0.489157
C40   C     C_3   0.003165 0.498121 0.917774 -0.024873
C41   C     C_3   0.995285 0.498374 0.082456 -0.023877
C42   C     C_1   0.003138 0.499055 0.825965 0.052142
C43   C     C_1   0.995843 0.498611 0.174191 0.047931
C44   C     C_R   0.814012 0.202038 0.521889 -0.151821
C45   C     C_R   0.849576 0.123475 0.560518 0.441949
C46   C     C_R   0.186287 0.797842 0.473039 -0.143996
C47   C     C_3   0.736408 0.361817 0.965473 0.080245
C48   C     C_3   0.638645 0.293890 0.917648 -0.786218
C49   C     C_3   0.261633 0.636051 0.033255 0.085527
C50   C     C_3   0.359504 0.704818 0.080268 -0.786360
C51   C     C_3   0.198209 0.359249 0.392678 0.040109
C52   C     C_3   0.185154 0.364002 0.293231 -0.257212
C53   C     C_3   0.140366 0.257093 0.269337 -0.942424
C54   C     C_3   0.782461 0.611749 0.619327 0.039321
C55   C     C_3   0.783697 0.587634 0.719253 -0.253465
C56   C     C_R   0.151465 0.875223 0.427701 0.450779
C57   C     C_3   0.826052 0.684946 0.759246 -0.927422
C58   C     C_3   0.719260 0.659992 0.175212 0.043453
C59   C     C_3   0.813733 0.754362 0.151557 -0.319430
C60   C     C_3   0.867971 0.734611 0.090850 -0.958624
C61   C     C_3   0.255209 0.256256 0.795535 0.037305
C62   C     C_3   0.213073 0.273829 0.867480 -0.331272
C63   C     C_3   0.128168 0.176661 0.902752 -0.925123
C64   C     C_3   0.412114 0.711128 0.383512 0.068766
C65   C     C_3   0.340766 0.760886 0.329361 -0.711454
C66   C     C_3   0.562857 0.266664 0.604933 0.064373
C67   C     C_R   0.711190 0.176574 0.491842 -0.336826
C68   C     C_3   0.622881 0.205805 0.662298 -0.727316
C69   C     C_3   0.929537 0.231405 0.047222 0.083532
C70   C     C_3   0.880278 0.124289 0.097997 -0.799566
C71   C     C_3   0.064776 0.764343 0.951206 0.081736
C72   C     C_3   0.118941 0.871869 0.903507 -0.808483
C73   C     C_3   0.011839 0.905823 0.429424 0.057370
C74   C     C_3   0.897349 0.857111 0.415022 -0.784431
C75   C     C_3   0.990003 0.110926 0.537094 0.084723
C76   C     C_3   0.101169 0.134891 0.569715 -0.840147
C77   C     C_R   0.288874 0.823465 0.503920 -0.338835
C78   C     C_R   0.640659 0.075138 0.505262 0.087051
Cu1   Cu    Cu3+1 0.081740 0.475690 0.522610 0.977086
Cu2   Cu    Cu3+1 0.918260 0.524310 0.477390 0.979269
H1    H     H_    0.172180 0.386155 0.687345 0.180649
H2    H     H_    0.196746 0.033647 0.366561 0.134689
H3    H     H_    0.460327 0.796606 0.579781 0.138127
H4    H     H_    0.543330 0.196344 0.396316 0.140408
H5    H     H_    0.518046 0.646236 0.280433 0.199103
H6    H     H_    0.479119 0.347322 0.714712 0.192634
H7    H     H_    0.727259 0.431821 0.970798 0.141614
H8    H     H_    0.750082 0.319221 0.032578 0.172401
H9    H     H_    0.644591 0.222386 0.912218 0.243537
H10   H     H_    0.575428 0.273849 0.954658 0.199914
H11   H     H_    0.622771 0.334710 0.850478 0.259876
H12   H     H_    0.841446 0.634400 0.320115 0.185235
H13   H     H_    0.246878 0.678440 0.966337 0.173699
H14   H     H_    0.271384 0.566562 0.027413 0.141186
H15   H     H_    0.376548 0.664355 0.147269 0.263308
H16   H     H_    0.422259 0.725561 0.042486 0.199603
H17   H     H_    0.352942 0.775910 0.085978 0.242906
H18   H     H_    0.123979 0.313243 0.416428 0.157975
H19   H     H_    0.251349 0.320619 0.424455 0.105366
H20   H     H_    0.134710 0.404434 0.259504 0.252057
H21   H     H_    0.259566 0.407730 0.269421 0.225113
H22   H     H_    0.190751 0.215788 0.300799 0.239544
H23   H     H_    0.880666 0.575970 0.005288 0.155995
H24   H     H_    0.131624 0.263307 0.196769 0.270995
H25   H     H_    0.065153 0.212685 0.291390 0.257991
H26   H     H_    0.727955 0.649287 0.590086 0.100903
H27   H     H_    0.858736 0.665839 0.603395 0.151955
H28   H     H_    0.705750 0.540884 0.734726 0.223166
H29   H     H_    0.830244 0.542161 0.749787 0.261164
H30   H     H_    0.905261 0.731012 0.747153 0.273215
H31   H     H_    0.824520 0.664273 0.831508 0.261605
H32   H     H_    0.780102 0.731540 0.730270 0.243203
H33   H     H_    0.662631 0.649718 0.115051 0.160754
H34   H     H_    0.117373 0.420164 0.994250 0.155367
H35   H     H_    0.734184 0.588483 0.193681 0.126638
H36   H     H_    0.791810 0.819776 0.118258 0.219723
H37   H     H_    0.866611 0.776475 0.212034 0.229793
H38   H     H_    0.894383 0.672375 0.124607 0.260870
H39   H     H_    0.934417 0.805136 0.073365 0.257634
H40   H     H_    0.816977 0.712911 0.029355 0.249458
H41   H     H_    0.287500 0.197428 0.824751 0.161538
H42   H     H_    0.193080 0.223575 0.742926 0.141463
H43   H     H_    0.274357 0.298697 0.922626 0.223357
H44   H     H_    0.183944 0.335380 0.840918 0.211461
H45   H     H_    0.635582 0.839921 0.611863 0.140520
H46   H     H_    0.065322 0.151113 0.848944 0.270659
H47   H     H_    0.099256 0.192041 0.954527 0.244971
H48   H     H_    0.156292 0.114779 0.932056 0.253306
H49   H     H_    0.489019 0.760121 0.365680 0.131777
H50   H     H_    0.412461 0.707612 0.454588 0.143905
H51   H     H_    0.264272 0.717735 0.348953 0.258687
H52   H     H_    0.368590 0.841098 0.339858 0.199871
H53   H     H_    0.336433 0.761277 0.258233 0.248291
H54   H     H_    0.563175 0.267813 0.534528 0.150616
H55   H     H_    0.483829 0.226576 0.619999 0.124708
H56   H     H_    0.367554 0.154216 0.363274 0.142058
H57   H     H_    0.623297 0.204476 0.732935 0.240480
H58   H     H_    0.588140 0.125908 0.649602 0.202516
H59   H     H_    0.701739 0.241449 0.647808 0.262044
H60   H     H_    0.007210 0.243080 0.040901 0.137350
H61   H     H_    0.885035 0.236385 0.980536 0.177040
H62   H     H_    0.801987 0.109666 0.104773 0.249552
H63   H     H_    0.878383 0.066755 0.062275 0.201134
H64   H     H_    0.923702 0.116232 0.164593 0.251099
H65   H     H_    0.103215 0.757612 0.020334 0.174466
H66   H     H_    0.985701 0.753532 0.951089 0.153740
H67   H     H_    0.310744 0.762599 0.541846 0.175615
H68   H     H_    0.081332 0.881801 0.834641 0.250238
H69   H     H_    0.117219 0.928715 0.937850 0.198294
H70   H     H_    0.198579 0.885516 0.902812 0.247893
H71   H     H_    0.035495 0.986272 0.394180 0.138096
H72   H     H_    0.036966 0.905079 0.501558 0.133683
H73   H     H_    0.870902 0.778017 0.452610 0.237790
H74   H     H_    0.866019 0.902116 0.438083 0.183318
H75   H     H_    0.869328 0.854928 0.343921 0.257130
H76   H     H_    0.982188 0.149587 0.467323 0.129925
H77   H     H_    0.951456 0.026614 0.540190 0.128134
H78   H     H_    0.687186 0.238529 0.462410 0.177178
H79   H     H_    0.110657 0.092839 0.637666 0.243455
H80   H     H_    0.133396 0.111181 0.525868 0.189058
H81   H     H_    0.142585 0.218151 0.569739 0.241051
H82   H     H_    0.806531 0.963092 0.612727 0.142169
N1    N     N_R   0.795440 0.560790 0.443380 -0.252346
N2    N     N_R   0.204560 0.439210 0.556620 -0.254509
O1    O     O_R   0.977900 0.338120 0.529810 -0.540518
O2    O     O_3   0.183399 0.609376 0.082891 -0.573879
O3    O     O_3   0.234168 0.459633 0.410690 -0.528884
O4    O     O_3   0.756123 0.519753 0.588202 -0.529374
O5    O     O_3   0.677606 0.676808 0.239589 -0.621365
O6    O     O_3   0.334352 0.347922 0.765180 -0.614500
O7    O     O_3   0.377556 0.611205 0.365395 -0.538632
O8    O     O_3   0.608980 0.367797 0.622223 -0.539677
O9    O     O_3   0.932186 0.303508 0.093744 -0.581207
O10   O     O_3   0.066735 0.692897 0.906623 -0.582881
O11   O     O_3   0.050105 0.850301 0.395677 -0.567578
O12   O     O_R   0.022100 0.661880 0.470190 -0.535699
O13   O     O_3   0.950848 0.146098 0.590545 -0.564720
O14   O     O_R   0.839850 0.379180 0.491620 -0.575766
O15   O     O_R   0.160150 0.620820 0.508380 -0.583610
O16   O     O_R   0.069010 0.479460 0.640020 -0.599990
O17   O     O_R   0.930990 0.520540 0.359980 -0.600442
O18   O     O_R   0.930960 0.520530 0.601820 -0.527079
O19   O     O_R   0.069040 0.479470 0.398180 -0.525785
O20   O     O_3   0.815187 0.387403 0.916826 -0.581495

loop_
_geom_bond_atom_site_label_1
_geom_bond_atom_site_label_2
_ccdc_geom_bond_type
C66   C68   S    
C21   C26   A    
C76   H79   S    
C34   C56   A    
C23   C45   A    
C22   C29   A    
C27   C29   A    
C73   C74   S    
C36   C42   T    
Cu1   N2    S    
C62   H44   S    
C68   H57   S    
C15   H1    S    
C52   C53   S    
C25   C28   A    
C70   H63   S    
C33   C39   S    
C69   O9    S    
C54   H27   S    
C66   O8    S    
C19   C21   A    
C10   H56   S    
C68   H58   S    
C5    C6    A    
C38   H34   S    
C11   C14   A    
C16   O18   A    
C50   H15   S    
C57   H32   S    
C20   C25   A    
C53   H24   S    
C69   H61   S    
C35   O2    S    
C74   H74   S    
C60   H39   S    
C61   H41   S    
C1    O14   A    
C32   C39   S    
C14   N1    A    
C49   C50   S    
C66   H54   S    
C3    C23   A    
C75   H76   S    
C28   O8    S    
C57   H30   S    
C59   H36   S    
C48   H11   S    
C58   H33   S    
C31   C33   S    
C60   H38   S    
C47   H8    S    
Cu2   O18   S    
C49   H14   S    
C30   H6    S    
C77   H67   S    
C29   H5    S    
C63   H48   S    
C45   O13   S    
C12   O12   A    
C23   H82   S    
C75   H77   S    
C69   H60   S    
C40   C42   S    
C59   C60   S    
C59   H37   S    
C48   H10   S    
C55   H29   S    
C41   C43   S    
C76   H81   S    
C2    C6    A    
C67   C78   A    
C19   O3    S    
C35   C41   S    
C62   H43   S    
C65   H51   S    
C51   H19   S    
C4    C34   A    
C52   H21   S    
C70   H62   S    
C33   C40   S    
C71   H66   S    
C54   H26   S    
C56   O11   S    
C51   C52   S    
C32   C35   S    
C15   N2    A    
C35   C38   S    
Cu2   O12   S    
C39   C41   S    
C18   O4    S    
C25   C26   A    
C72   H68   S    
C32   O10   S    
C52   H20   S    
C9    H45   S    
Cu1   Cu2   S    
C13   C24   A    
C61   H42   S    
Cu2   O14   S    
C73   O11   S    
C2    C4    A    
C75   C76   S    
Cu2   N1    S    
C62   C63   S    
C3    C9    A    
C53   H25   S    
C5    C8    A    
C18   N1    A    
C17   O19   A    
C1    C44   S    
C47   C48   S    
C1    O1    A    
C53   H22   S    
C61   C62   S    
C58   O5    S    
C33   O20   S    
C26   C27   A    
C17   C37   S    
Cu2   O17   S    
Cu1   O1    S    
C14   H12   S    
C65   H53   S    
C12   C46   S    
C13   O6    S    
C71   H65   S    
C64   H50   S    
C11   O5    S    
C72   H70   S    
C48   H9    S    
C55   C57   S    
C73   H72   S    
C58   H35   S    
Cu1   O15   S    
C37   C43   T    
C20   C22   A    
C4    C10   A    
C27   O7    S    
C65   H52   S    
C44   C45   A    
C31   O9    S    
C7    C9    A    
C54   C55   S    
C76   H80   S    
C50   H17   S    
C31   C41   S    
C8    H4    S    
C51   O3    S    
C54   O4    S    
C47   O20   S    
C68   H59   S    
C46   C77   A    
C71   O10   S    
C39   H23   S    
C6    C7    A    
C73   H71   S    
C11   C22   A    
C70   H64   S    
C31   C38   S    
C55   H28   S    
C64   C65   S    
C64   O7    S    
C13   C15   A    
C58   C59   S    
C71   C72   S    
C2    C77   A    
C16   C36   S    
C38   C40   S    
C50   H16   S    
C7    H3    S    
C57   H31   S    
C51   H18   S    
C28   C30   A    
Cu1   O19   S    
C74   H75   S    
C60   H40   S    
C67   H78   S    
C18   C20   A    
C19   N2    A    
C32   C40   S    
C69   C70   S    
C75   O13   S    
C24   C30   A    
C63   H46   S    
C66   H55   S    
C17   O17   A    
C49   O2    S    
C12   O15   A    
C64   H49   S    
C74   H73   S    
C8    C10   A    
C72   H69   S    
C21   C24   A    
C46   C56   A    
Cu1   O16   S    
C44   C67   A    
C61   O6    S    
C34   H2    S    
C49   H13   S    
C5    C78   A    
C3    C78   A    
C63   H47   S    
C16   O16   A    
C47   H7    S    
