data_mof_unit_7352.cif
_audit_creation_date              2012-12-10T17:53:15-0500
_audit_creation_method            fapswitch 2.2
_symmetry_space_group_name_H-M    P1
_symmetry_Int_Tables_number       1
_space_group_crystal_system       triclinic
_cell_length_a                    23.295036
_cell_length_b                    10.634974
_cell_length_c                    9.941782
_cell_angle_alpha                 89.340234
_cell_angle_beta                  89.70779
_cell_angle_gamma                 92.269768
_cell_volume                      2460.86436943

loop_
_atom_site_label
_atom_site_type_symbol
_atom_type_description
_atom_site_fract_x
_atom_site_fract_y
_atom_site_fract_z
_atom_type_partial_charge
C1    C     C_R   0.501341 0.258616 0.501793 0.870404
C2    C     C_R   0.968877 0.521892 0.740417 -0.142106
C3    C     C_R   0.027898 0.511706 0.738869 -0.144928
C4    C     C_R   0.059167 0.534761 0.619787 -0.007402
C5    C     C_R   0.031061 0.572598 0.501070 -0.018774
C6    C     C_R   0.063096 0.600730 0.382454 -0.053620
C7    C     C_R   0.033848 0.637038 0.263795 -0.065076
C8    C     C_R   0.973357 0.641794 0.263753 -0.070366
C9    C     C_R   0.118102 0.518296 0.616504 0.548195
C10   C     C_R   0.123419 0.589774 0.387979 0.556948
C11   C     C_R   0.234402 0.436191 0.419461 0.013910
C12   C     C_R   0.389606 0.500042 0.500373 0.835380
C13   C     C_R   0.294273 0.430250 0.417664 -0.259558
C14   C     C_R   0.327824 0.507640 0.501395 -0.022086
C15   C     C_R   0.302440 0.593796 0.585628 -0.190897
C16   C     C_R   0.243495 0.605069 0.583954 -0.094833
C17   C     C_R   0.209170 0.527219 0.501861 0.231268
C18   C     C_R   0.766753 0.435712 0.496119 0.001019
C19   C     C_R   0.707060 0.416325 0.494527 -0.068968
C20   C     C_R   0.672138 0.520711 0.498322 -0.099230
C21   C     C_R   0.696068 0.644551 0.501554 -0.175796
C22   C     C_R   0.756071 0.664447 0.504617 -0.024917
C23   C     C_R   0.489401 0.736066 0.499105 0.932914
C24   C     C_R   0.790973 0.558962 0.502833 0.180423
C25   C     C_R   0.497064 0.101576 0.759282 -0.162964
C26   C     C_R   0.473545 0.039822 0.872182 -0.068091
C27   C     C_R   0.443102 0.925720 0.858252 -0.079699
C28   C     C_R   0.441271 0.867754 0.733752 -0.126336
C29   C     C_R   0.466659 0.928219 0.619772 0.105295
C30   C     C_R   0.487471 0.053106 0.628563 0.097285
C31   C     C_R   0.496661 0.122353 0.506091 -0.121991
C32   C     C_R   0.489173 0.062965 0.381971 -0.257975
C33   C     C_R   0.476131 0.935715 0.376121 -0.015847
C34   C     C_R   0.610211 0.501695 0.499564 0.901788
C35   C     C_R   0.472804 0.866282 0.497048 -0.207793
C36   C     C_R   0.421156 0.341640 0.142300 -0.148462
C37   C     C_R   0.381558 0.265430 0.073574 -0.175892
C38   C     C_R   0.381275 0.266331 0.934312 -0.170532
C39   C     C_R   0.420898 0.342697 0.862996 -0.154090
C40   C     C_R   0.460609 0.423562 0.929167 0.128008
C41   C     C_R   0.460576 0.423603 0.073475 0.157093
C42   C     C_R   0.539833 0.568828 0.070468 -0.069224
C43   C     C_R   0.539184 0.570515 0.926976 -0.063165
C44   C     C_R   0.880492 0.605668 0.386881 0.537438
C45   C     C_R   0.880196 0.553715 0.621333 0.583187
C46   C     C_R   0.939876 0.553001 0.622311 -0.014977
C47   C     C_R   0.970769 0.579789 0.501732 -0.020714
C48   C     C_R   0.941294 0.610736 0.382451 -0.060544
H1    H     H_    0.945925 0.501881 0.833762 0.198391
H2    H     H_    0.492110 0.115918 0.288152 0.190587
H3    H     H_    0.523364 0.184952 0.778471 0.186588
H4    H     H_    0.478265 0.082304 0.970040 0.179988
H5    H     H_    0.422523 0.879977 0.944220 0.149651
H6    H     H_    0.419178 0.776621 0.726264 0.136931
H7    H     H_    0.048843 0.484442 0.831168 0.198494
H8    H     H_    0.420497 0.331410 0.248927 0.193374
H9    H     H_    0.351661 0.203484 0.128853 0.176598
H10   H     H_    0.351297 0.204768 0.881050 0.164906
H11   H     H_    0.420500 0.332700 0.756528 0.206333
H12   H     H_    0.314921 0.362529 0.354813 0.173261
H13   H     H_    0.328386 0.654543 0.649915 0.141194
H14   H     H_    0.224186 0.674784 0.646528 0.157820
N1    N     N_R   0.852124 0.576143 0.504290 -0.344987
N2    N     N_R   0.148617 0.544373 0.501584 -0.342252
N3    N     N_R   0.499460 0.498800 0.142780 -0.162302
N4    N     N_R   0.499440 0.498720 0.857170 -0.170047
O1    O     O_R   0.500000 0.316780 0.614690 -0.658547
O2    O     O_2   0.850000 0.529352 0.735648 -0.515280
O3    O     O_2   0.144918 0.475231 0.726984 -0.540820
O4    O     O_2   0.157096 0.623169 0.281704 -0.544209
O5    O     O_R   0.500000 0.316750 0.385360 -0.639637
O6    O     O_R   0.416160 0.499970 0.614690 -0.656429
O7    O     O_R   0.416150 0.499950 0.385360 -0.615069
O8    O     O_R   0.500000 0.683250 0.614640 -0.600152
O9    O     O_R   0.500000 0.683220 0.385310 -0.568546
O10   O     O_R   0.583850 0.500050 0.614640 -0.594777
O11   O     O_R   0.583840 0.500030 0.385310 -0.600470
O12   O     O_2   0.849420 0.627009 0.275425 -0.526779
Zn1   Zn    Zn3+2 0.500000 0.500020 0.653130 0.957854
Zn2   Zn    Zn3+2 0.500000 0.499980 0.346870 0.994158
C49   C     C_1   0.681498 0.289697 0.489579 0.202596
N5    N     N_1   0.661044 0.188838 0.485664 -0.146367
C50   C     C_1   0.658601 0.750388 0.506516 0.283468
N6    N     N_1   0.628724 0.834689 0.510513 -0.109131
C51   C     C_2   0.782578 0.794263 0.509910 0.952867
O13   O     O_2   0.824422 0.816319 0.580868 -0.597130
O14   O     O_R   0.759840 0.891270 0.433181 -0.768373
H15   H     H_    0.781488 0.974884 0.445598 0.363410
C52   C     C_2   0.464101 0.878873 0.243535 0.961540
O15   O     O_2   0.493089 0.911667 0.145736 -0.622274
O16   O     O_R   0.419858 0.786910 0.231127 -0.793942
H16   H     H_    0.417714 0.749828 0.137793 0.330578
C53   C     C_2   0.587048 0.636345 0.141026 0.993851
O17   O     O_2   0.579112 0.737160 0.193940 -0.573931
O18   O     O_R   0.641670 0.586503 0.141550 -0.750534
H17   H     H_    0.670868 0.641531 0.191276 0.359277
C54   C     C_2   0.582552 0.649663 0.853818 0.993017
O19   O     O_2   0.570851 0.755009 0.815213 -0.594611
O20   O     O_R   0.638258 0.607491 0.838896 -0.748561
H18   H     H_    0.665060 0.672226 0.793092 0.345316
C55   C     C_1   0.064631 0.666341 0.138979 0.286392
N7    N     N_1   0.088817 0.689678 0.039213 -0.145372
C56   C     C_1   0.945337 0.679368 0.140059 0.288704
N8    N     N_1   0.923343 0.709361 0.041237 -0.113083
C57   C     C_2   0.199905 0.345048 0.337453 0.954425
O21   O     O_2   0.149534 0.319832 0.365257 -0.618225
O22   O     O_R   0.225662 0.285163 0.229481 -0.803411
H19   H     H_    0.198116 0.224613 0.181860 0.358841
C58   C     C_1   0.803842 0.329605 0.489899 0.224154
N9    N     N_1   0.833510 0.245014 0.484951 -0.163020

loop_
_geom_bond_atom_site_label_1
_geom_bond_atom_site_label_2
_ccdc_geom_bond_type
O14   H15   S    
C55   N7    T    
C42   C53   S    
O18   H17   S    
C18   C58   S    
C25   H3    S    
C49   N5    T    
C7    C8    A    
C13   H12   S    
C51   O13   D    
C2    C46   A    
N4    Zn1   S    
C5    C47   A    
C26   C27   A    
C53   O17   D    
C18   C24   A    
C5    C6    A    
C28   C29   A    
C9    O3    S    
O6    Zn1   S    
C33   C52   S    
C34   O11   A    
C30   C31   A    
C15   C16   A    
C9    N2    A    
C1    C31   S    
C18   C19   A    
C22   C51   S    
C1    O1    A    
C38   H10   S    
C3    H7    S    
C50   N6    T    
C16   C17   A    
C11   C57   S    
C42   N3    A    
O22   H19   S    
O10   Zn1   S    
C13   C14   A    
C52   O16   S    
C29   C30   A    
O9    Zn2   S    
C20   C34   S    
C12   O6    A    
C53   O18   S    
N3    Zn2   S    
C40   N4    A    
C12   O7    A    
C36   C41   A    
C16   H14   S    
O5    Zn2   S    
C54   O20   S    
C54   O19   D    
C51   O14   S    
C44   N1    A    
C47   C48   A    
C21   C50   S    
O1    Zn1   S    
O16   H16   S    
C28   H6    S    
C41   N3    A    
C25   C26   A    
C45   C46   A    
C45   N1    A    
C8    C48   A    
C37   C38   A    
C36   H8    S    
C2    H1    S    
C26   H4    S    
C57   O22   S    
O20   H18   S    
C39   H11   S    
C45   O2    S    
C15   H13   S    
C1    O5    A    
C32   H2    S    
C10   O4    S    
C40   C41   A    
C12   C14   S    
C24   N1    S    
C23   C35   S    
O8    Zn1   S    
C22   C24   A    
C42   C43   A    
C23   O8    A    
C3    C4    A    
C39   C40   A    
O11   Zn2   S    
C25   C30   A    
C46   C47   A    
C11   C17   A    
C31   C32   A    
C10   N2    A    
C43   C54   S    
C23   O9    A    
C4    C5    A    
C6    C10   A    
C27   H5    S    
C6    C7    A    
C57   O21   D    
C29   C35   A    
C32   C33   A    
C19   C20   A    
C44   O12   S    
C2    C3    A    
C52   O15   D    
C17   N2    S    
C19   C49   S    
C58   N9    T    
C11   C13   A    
C38   C39   A    
C43   N4    A    
C33   C35   A    
O7    Zn2   S    
C8    C56   S    
C20   C21   A    
C36   C37   A    
C7    C55   S    
C56   N8    T    
C14   C15   A    
C4    C9    A    
C21   C22   A    
C37   H9    S    
C44   C48   A    
C34   O10   A    
C27   C28   A    
