data_mof_unit_19394.cif
_audit_creation_date              2012-12-10T17:47:02-0500
_audit_creation_method            fapswitch 2.2
_symmetry_space_group_name_H-M    P1
_symmetry_Int_Tables_number       1
_space_group_crystal_system       triclinic
_cell_length_a                    9.99825
_cell_length_b                    10.611378
_cell_length_c                    13.60028
_cell_angle_alpha                 92.763874
_cell_angle_beta                  82.20326
_cell_angle_gamma                 90.865338
_cell_volume                      1427.86912273

loop_
_atom_site_label
_atom_site_type_symbol
_atom_type_description
_atom_site_fract_x
_atom_site_fract_y
_atom_site_fract_z
_atom_type_partial_charge
C1    C     C_R   0.500636 0.739239 0.501397 0.874312
C2    C     C_1   0.454754 0.500976 0.789677 -0.131257
C3    C     C_R   0.384941 0.878340 0.680286 -0.124272
C4    C     C_R   0.320970 0.947395 0.762679 -0.230605
C5    C     C_R   0.311191 0.078480 0.760986 0.034217
C6    C     C_R   0.368684 0.139903 0.676058 -0.155069
C7    C     C_R   0.433308 0.070539 0.591870 0.043752
C8    C     C_R   0.438857 0.938937 0.593337 0.121950
C9    C     C_R   0.502050 0.872101 0.507948 -0.051287
C10   C     C_R   0.566291 0.932029 0.425693 -0.186718
C11   C     C_R   0.564292 0.060845 0.425228 -0.158140
C12   C     C_R   0.474900 0.500117 0.685521 0.885195
C13   C     C_R   0.496426 0.128755 0.506428 -0.085671
C14   C     C_R   0.843506 0.628831 0.664299 0.434194
C15   C     C_R   0.906160 0.657564 0.748617 -0.184286
C16   C     C_R   0.044726 0.663635 0.740388 -0.218778
C17   C     C_R   0.119870 0.628433 0.650982 -0.097069
C18   C     C_R   0.061089 0.563884 0.575312 0.101028
C19   C     C_R   0.916558 0.564723 0.577573 0.007271
C20   C     C_R   0.941585 0.436272 0.428425 0.424173
C21   C     C_R   0.083786 0.436984 0.428493 -0.116941
C22   C     C_R   0.498944 0.260923 0.501072 0.854558
C23   C     C_R   0.525031 0.499767 0.314451 0.882350
C24   C     C_1   0.544541 0.501115 0.210294 -0.098257
C25   C     C_2   0.554131 0.504073 0.018472 -0.289159
C26   C     C_2   0.436967 0.501500 0.981990 0.427696
C27   C     C_1   0.441870 0.501486 0.877788 0.016591
C28   C     C_1   0.554539 0.502549 0.122303 0.123290
H1    H     H_    0.849288 0.698679 0.815806 0.186239
H2    H     H_    0.093551 0.705130 0.800722 0.174788
H3    H     H_    0.223410 0.654338 0.641944 0.196310
H4    H     H_    0.147202 0.384550 0.370263 0.193310
H5    H     H_    0.650123 0.506886 0.970193 0.149309
H6    H     H_    0.615986 0.878681 0.361313 0.154330
H7    H     H_    0.394670 0.777842 0.686130 0.136486
H8    H     H_    0.279741 0.898245 0.828165 0.139794
H9    H     H_    0.363500 0.241571 0.676681 0.173081
H10   H     H_    0.613741 0.107859 0.360860 0.178554
N1    N     N_R   0.857120 0.501200 0.500900 -0.140360
N2    N     N_R   0.142720 0.501280 0.500940 -0.135388
O1    O     O_R   0.385310 0.683220 0.500000 -0.646095
O2    O     O_R   0.614640 0.683250 0.500010 -0.546438
O3    O     O_R   0.368830 0.499960 0.640340 -0.637469
O4    O     O_R   0.598160 0.499980 0.640350 -0.584199
O5    O     O_R   0.385360 0.316750 0.499990 -0.615716
O6    O     O_R   0.614690 0.316780 0.500000 -0.571180
O7    O     O_R   0.401840 0.500020 0.359650 -0.596878
O8    O     O_R   0.631170 0.500040 0.359660 -0.561979
Zn1   Zn    Zn3+2 0.346870 0.499980 0.499990 0.967629
Zn2   Zn    Zn3+2 0.653130 0.500020 0.500010 1.044989
Cl1   Cl    Cl    0.278168 0.496361 0.056519 -0.537159
Cl2   Cl    Cl    0.711447 0.735397 0.666871 -0.634446
C29   C     C_2   0.242055 0.149879 0.848942 0.430329
H11   H     H_    0.201716 0.100629 0.914788 0.080073
O9    O     O_2   0.228553 0.264055 0.848981 -0.536292
Cl3   Cl    Cl    0.875459 0.345348 0.335027 -0.564690

loop_
_geom_bond_atom_site_label_1
_geom_bond_atom_site_label_2
_ccdc_geom_bond_type
C11   H10   S    
C23   C24   S    
C4    H8    S    
C6    C7    A    
C3    H7    S    
C18   C19   A    
C9    C10   A    
O6    Zn2   S    
O5    Zn1   S    
C20   Cl3   S    
C2    C12   S    
N1    Zn2   S    
O8    Zn2   S    
C17   C18   A    
C5    C29   S    
C6    H9    S    
C7    C8    A    
C10   H6    S    
C29   H11   S    
C25   C28   S    
C11   C13   A    
C26   C27   S    
C2    C27   T    
C21   N2    A    
C19   N1    A    
O2    Zn2   S    
C1    O1    A    
C22   O6    A    
C13   C22   S    
C15   H1    S    
C12   O3    A    
C29   O9    D    
C5    C6    A    
C17   H3    S    
C21   H4    S    
C14   Cl2   S    
C23   O7    A    
C10   C11   A    
C16   H2    S    
C15   C16   A    
C24   C28   T    
C1    O2    A    
C7    C13   A    
C22   O5    A    
C1    C9    S    
C20   C21   A    
O7    Zn1   S    
C3    C8    A    
C12   O4    A    
O1    Zn1   S    
C20   N1    A    
C18   N2    A    
C14   C15   A    
C4    C5    A    
O4    Zn2   S    
C23   O8    A    
C25   C26   D    
C26   Cl1   S    
C14   C19   A    
O3    Zn1   S    
C3    C4    A    
N2    Zn1   S    
C16   C17   A    
C25   H5    S    
C8    C9    A    
