data_mof_unit_62398.cif
_audit_creation_date              2012-12-11T16:31:18-0500
_audit_creation_method            fapswitch 2.2
_symmetry_space_group_name_H-M    P1
_symmetry_Int_Tables_number       1
_space_group_crystal_system       monoclinic
_cell_length_a                    22.128391
_cell_length_b                    30.142047
_cell_length_c                    19.477183
_cell_angle_alpha                 90.0
_cell_angle_beta                  125.573506
_cell_angle_gamma                 90.0
_cell_volume                      10566.6371698

loop_
_atom_site_label
_atom_site_type_symbol
_atom_type_description
_atom_site_fract_x
_atom_site_fract_y
_atom_site_fract_z
_atom_type_partial_charge
C1    C     C_R   0.640498 0.894863 0.073147 0.737562
C2    C     C_R   0.385104 0.119226 0.926805 0.834264
C3    C     C_R   0.358187 0.896329 0.927721 0.734793
C4    C     C_R   0.614351 0.119378 0.073270 0.832121
C5    C     C_R   0.141813 0.396329 0.072279 0.734793
C6    C     C_R   0.885649 0.619378 0.926730 0.832121
C7    C     C_R   0.859502 0.394863 0.926853 0.737563
C8    C     C_R   0.114896 0.619226 0.073195 0.834264
C9    C     C_1   0.967056 0.001176 0.472058 0.023873
C10   C     C_1   0.032783 0.001163 0.528247 0.023660
C11   C     C_1   0.467217 0.501163 0.471752 0.023660
C12   C     C_1   0.532944 0.501176 0.527942 0.023873
C13   C     C_R   0.581247 0.267652 0.955909 -0.376322
C14   C     C_R   0.213650 0.853516 0.031984 -0.318306
C15   C     C_R   0.417800 0.267959 0.040358 -0.374236
C16   C     C_R   0.788250 0.853005 0.975077 -0.324130
C17   C     C_R   0.082200 0.767959 0.959643 -0.374236
C18   C     C_R   0.711750 0.353005 0.024923 -0.324130
C19   C     C_R   0.918753 0.767652 0.044091 -0.376322
C20   C     C_R   0.286351 0.353516 0.968017 -0.318305
C21   C     C_R   0.561116 0.224354 0.958139 0.771710
C22   C     C_R   0.267885 0.876657 0.031971 0.753651
C23   C     C_R   0.437713 0.224332 0.039926 0.770878
C24   C     C_R   0.733218 0.875475 0.974427 0.780712
C25   C     C_R   0.062287 0.724332 0.960074 0.770878
C26   C     C_R   0.766782 0.375475 0.025573 0.780713
C27   C     C_R   0.938883 0.724354 0.041861 0.771712
C28   C     C_R   0.232115 0.376657 0.968030 0.753652
C29   C     C_R   0.615548 0.193885 0.015542 -0.068124
C30   C     C_R   0.294882 0.859981 0.987360 -0.148876
C31   C     C_R   0.383074 0.193500 0.984243 -0.071606
C32   C     C_R   0.703580 0.857201 0.015120 -0.161437
C33   C     C_R   0.116926 0.693500 0.015757 -0.071605
C34   C     C_R   0.796420 0.357201 0.984880 -0.161436
C35   C     C_R   0.884451 0.693885 0.984458 -0.068124
C36   C     C_R   0.205117 0.359981 0.012640 -0.148877
C37   C     C_R   0.688165 0.208611 0.079238 0.093536
C38   C     C_R   0.263302 0.821759 0.936912 0.137277
C39   C     C_R   0.310159 0.207871 0.920862 0.097012
C40   C     C_R   0.733972 0.818384 0.063737 0.138810
C41   C     C_R   0.189841 0.707871 0.079137 0.097011
C42   C     C_R   0.766028 0.318384 0.936263 0.138810
C43   C     C_R   0.811835 0.708611 0.920762 0.093535
C44   C     C_R   0.236696 0.321759 0.063087 0.137279
C45   C     C_R   0.706821 0.253240 0.079656 0.064448
C46   C     C_R   0.206586 0.799314 0.934426 0.060698
C47   C     C_R   0.291519 0.252678 0.918799 0.063925
C48   C     C_R   0.791377 0.796436 0.066827 0.059513
C49   C     C_R   0.208482 0.752678 0.081200 0.063926
C50   C     C_R   0.708623 0.296436 0.933173 0.059513
C51   C     C_R   0.793179 0.753240 0.920344 0.064448
C52   C     C_R   0.293413 0.299314 0.065573 0.060700
C53   C     C_R   0.655118 0.280763 0.011892 0.027785
C54   C     C_R   0.185818 0.813802 0.987213 0.007922
C55   C     C_R   0.343799 0.280977 0.984607 0.027828
C56   C     C_R   0.814415 0.812456 0.016987 0.007059
C57   C     C_R   0.156202 0.780977 0.015394 0.027827
C58   C     C_R   0.685585 0.312456 0.983013 0.007059
C59   C     C_R   0.844882 0.780764 0.988108 0.027784
C60   C     C_R   0.314182 0.313802 0.012787 0.007919
C61   C     C_R   0.548272 0.962002 0.470146 -0.316002
C62   C     C_R   0.554612 0.038946 0.605118 -0.309791
C63   C     C_R   0.606006 0.965267 0.653995 -0.333863
C64   C     C_R   0.618567 0.030179 0.504176 -0.318839
C65   C     C_R   0.893994 0.465267 0.346005 -0.333863
C66   C     C_R   0.881433 0.530179 0.495824 -0.318839
C67   C     C_R   0.951728 0.462002 0.529854 -0.316001
C68   C     C_R   0.945388 0.538945 0.394881 -0.309790
C69   C     C_R   0.530623 0.962960 0.389263 0.737078
C70   C     C_R   0.532095 0.039392 0.658266 0.718428
C71   C     C_R   0.584860 0.965737 0.708659 0.759359
C72   C     C_R   0.602195 0.030949 0.423585 0.730330
C73   C     C_R   0.915140 0.465737 0.291341 0.759359
C74   C     C_R   0.897805 0.530949 0.576415 0.730330
C75   C     C_R   0.969377 0.462960 0.610737 0.737077
C76   C     C_R   0.967905 0.539392 0.341734 0.718429
C77   C     C_R   0.555832 0.998089 0.364598 -0.328147
C78   C     C_R   0.545229 0.002217 0.709021 -0.325417
C79   C     C_R   0.954771 0.502217 0.290979 -0.325417
C80   C     C_R   0.944168 0.498089 0.635402 -0.328147
C81   C     C_R   0.550242 0.122976 0.934708 -0.203184
C82   C     C_R   0.422464 0.895525 0.066817 -0.171100
C83   C     C_R   0.449148 0.122722 0.065480 -0.186068
C84   C     C_R   0.576039 0.892531 0.934370 -0.162487
C85   C     C_R   0.050852 0.622722 0.934520 -0.186068
C86   C     C_R   0.923961 0.392531 0.065630 -0.162486
C87   C     C_R   0.949758 0.622976 0.065292 -0.203184
C88   C     C_R   0.077536 0.395525 0.933183 -0.171101
C89   C     C_R   0.590062 0.996329 0.526803 0.033612
C90   C     C_R   0.588890 0.001304 0.600366 0.033307
C91   C     C_R   0.911110 0.501304 0.399634 0.033307
C92   C     C_R   0.909938 0.496329 0.473197 0.033612
C93   C     C_R   0.497727 0.964338 0.786956 -0.013219
C94   C     C_R   0.528265 0.036270 0.231787 -0.057568
C95   C     C_R   0.529361 0.963484 0.231983 -0.001848
C96   C     C_R   0.502783 0.037219 0.793229 -0.041533
C97   C     C_R   0.970639 0.463484 0.768016 -0.001849
C98   C     C_R   0.997217 0.537219 0.206771 -0.041533
C99   C     C_R   0.002273 0.464338 0.213044 -0.013219
C100  C     C_R   0.971735 0.536270 0.768213 -0.057568
C101  C     C_R   0.706592 0.037648 0.229147 0.706138
C102  C     C_R   0.295216 0.963546 0.765907 0.776997
C103  C     C_R   0.293354 0.037628 0.770884 0.696002
C104  C     C_R   0.704820 0.963551 0.234071 0.762548
C105  C     C_R   0.206646 0.537628 0.229116 0.696000
C106  C     C_R   0.795179 0.463551 0.765929 0.762547
C107  C     C_R   0.793408 0.537648 0.770853 0.706139
C108  C     C_R   0.204784 0.463546 0.234093 0.776994
C109  C     C_R   0.641593 0.879392 0.007564 -0.048582
C110  C     C_R   0.401198 0.146278 0.992320 -0.105569
C111  C     C_R   0.356389 0.882488 0.993994 -0.048968
C112  C     C_R   0.597818 0.146606 0.007809 -0.099271
C113  C     C_R   0.143611 0.382488 0.006006 -0.048967
C114  C     C_R   0.902182 0.646606 0.992191 -0.099271
C115  C     C_R   0.858407 0.379392 0.992436 -0.048583
C116  C     C_R   0.098802 0.646278 0.007680 -0.105568
C117  C     C_R   0.516468 0.001229 0.760422 0.147496
C118  C     C_R   0.533767 0.999621 0.277859 0.149446
C119  C     C_R   0.966233 0.499621 0.722141 0.149446
C120  C     C_R   0.983532 0.501229 0.239579 0.147496
C121  C     C_R   0.749090 0.000767 0.273375 -0.401490
C122  C     C_R   0.250867 0.000737 0.726654 -0.407428
C123  C     C_R   0.249133 0.500736 0.273346 -0.407428
C124  C     C_R   0.750910 0.500767 0.726625 -0.401490
C125  C     C_1   0.825211 0.001002 0.346862 0.212842
C126  C     C_1   0.174679 0.000954 0.653297 0.208145
C127  C     C_1   0.325321 0.500954 0.346703 0.208146
C128  C     C_1   0.674789 0.501002 0.653138 0.212843
C129  C     C_1   0.890183 0.001119 0.405496 0.021003
C130  C     C_1   0.109674 0.001080 0.594752 0.020389
C131  C     C_1   0.390326 0.501080 0.405247 0.020389
C132  C     C_1   0.609817 0.501119 0.594504 0.021003
H1    H     H_    0.517592 0.135744 0.870932 0.222741
H2    H     H_    0.440548 0.890714 0.131139 0.189691
H3    H     H_    0.481499 0.135359 0.129370 0.214948
H4    H     H_    0.557375 0.884615 0.870986 0.180447
H5    H     H_    0.018501 0.635359 0.870630 0.214947
H6    H     H_    0.942625 0.384615 0.129014 0.180447
H7    H     H_    0.982408 0.635744 0.129068 0.222741
H8    H     H_    0.059451 0.390714 0.868861 0.189690
H9    H     H_    0.494720 0.930423 0.767758 0.152545
H10   H     H_    0.537330 0.070672 0.251029 0.181577
H11   H     H_    0.542751 0.929451 0.253346 0.156853
H12   H     H_    0.510790 0.072000 0.787606 0.173186
H13   H     H_    0.957249 0.429451 0.746654 0.156854
H14   H     H_    0.989210 0.572000 0.212394 0.173186
H15   H     H_    0.005280 0.430423 0.232242 0.152545
H16   H     H_    0.962670 0.570672 0.748971 0.181577
H17   H     H_    0.541322 0.289366 0.904977 0.188214
H18   H     H_    0.197672 0.864631 0.072200 0.183671
H19   H     H_    0.458123 0.290173 0.089862 0.186688
H20   H     H_    0.806224 0.865396 0.937469 0.183752
H21   H     H_    0.041877 0.790173 0.910140 0.186688
H22   H     H_    0.693776 0.365396 0.062531 0.183752
H23   H     H_    0.958678 0.789366 0.095023 0.188214
H24   H     H_    0.302330 0.364631 0.927802 0.183671
H25   H     H_    0.524407 0.936252 0.486340 0.184852
H26   H     H_    0.539428 0.066542 0.562282 0.187084
H27   H     H_    0.632298 0.935936 0.650293 0.184679
H28   H     H_    0.650798 0.056896 0.547793 0.187111
H29   H     H_    0.867702 0.435935 0.349707 0.184679
H30   H     H_    0.849202 0.556896 0.452207 0.187111
H31   H     H_    0.975593 0.436252 0.513660 0.184852
H32   H     H_    0.960572 0.566542 0.437718 0.187084
N1    N     N_R   0.579040 0.919410 0.042340 -0.127421
N2    N     N_R   0.420960 0.080590 0.957660 -0.141116
N3    N     N_R   0.420960 0.919410 0.957660 -0.126038
N4    N     N_R   0.579040 0.080590 0.042340 -0.141618
N5    N     N_R   0.079040 0.419410 0.042340 -0.126038
N6    N     N_R   0.920960 0.580590 0.957660 -0.141618
N7    N     N_R   0.920960 0.419410 0.957660 -0.127421
N8    N     N_R   0.079040 0.580590 0.042340 -0.141116
N9    N     N_R   0.539560 0.083450 0.957270 -0.102339
N10   N     N_R   0.460440 0.916550 0.042730 -0.096595
N11   N     N_R   0.460440 0.083450 0.042730 -0.099197
N12   N     N_R   0.539560 0.916550 0.957270 -0.095705
N13   N     N_R   0.039560 0.583450 0.957270 -0.099197
N14   N     N_R   0.960440 0.416550 0.042730 -0.095705
N15   N     N_R   0.960440 0.583450 0.042730 -0.102339
N16   N     N_R   0.039560 0.416550 0.957270 -0.096595
N17   N     N_R   0.478900 0.978820 0.837270 -0.072303
N18   N     N_R   0.521100 0.021180 0.162730 -0.068285
N19   N     N_R   0.521100 0.978820 0.162730 -0.073471
N20   N     N_R   0.478900 0.021180 0.837270 -0.069749
N21   N     N_R   0.978900 0.478820 0.837270 -0.073471
N22   N     N_R   0.021100 0.521180 0.162730 -0.069748
N23   N     N_R   0.021100 0.478820 0.162730 -0.072303
N24   N     N_R   0.978900 0.521180 0.837270 -0.068285
N25   N     N_R   0.639700 0.024040 0.162340 -0.169355
N26   N     N_R   0.360300 0.975960 0.837660 -0.172347
N27   N     N_R   0.360300 0.024040 0.837660 -0.167376
N28   N     N_R   0.639700 0.975960 0.162340 -0.173553
N29   N     N_R   0.139700 0.524040 0.162340 -0.167376
N30   N     N_R   0.860300 0.475960 0.837660 -0.173553
N31   N     N_R   0.860300 0.524040 0.837660 -0.169355
N32   N     N_R   0.139700 0.475960 0.162340 -0.172347
Ni1   Ni    Ni4+2 0.550430 0.949580 0.102370 0.257704
Ni2   Ni    Ni4+2 0.449570 0.050420 0.897630 0.284719
Ni3   Ni    Ni4+2 0.449570 0.949580 0.897630 0.261487
Ni4   Ni    Ni4+2 0.550430 0.050420 0.102370 0.283783
Ni5   Ni    Ni4+2 0.050430 0.449580 0.102370 0.261487
Ni6   Ni    Ni4+2 0.949570 0.550420 0.897630 0.283783
Ni7   Ni    Ni4+2 0.949570 0.449580 0.897630 0.257704
Ni8   Ni    Ni4+2 0.050430 0.550420 0.102370 0.284720
F1    F     F_    0.691315 0.884418 0.154812 -0.659175
F2    F     F_    0.362608 0.134979 0.850253 -0.609396
F3    F     F_    0.306219 0.886190 0.846199 -0.662361
F4    F     F_    0.636509 0.134951 0.149815 -0.609161
F5    F     F_    0.193781 0.386190 0.153801 -0.662359
F6    F     F_    0.863490 0.634950 0.850185 -0.609161
F7    F     F_    0.808685 0.384418 0.845188 -0.659175
F8    F     F_    0.137393 0.634979 0.149747 -0.609395
F9    F     F_    0.484766 0.931138 0.333651 -0.678296
F10   F     F_    0.492144 0.074728 0.654171 -0.686692
F11   F     F_    0.601509 0.930027 0.759129 -0.665271
F12   F     F_    0.631229 0.063899 0.403631 -0.672432
F13   F     F_    0.898491 0.430027 0.240871 -0.665271
F14   F     F_    0.868771 0.563899 0.596369 -0.672432
F15   F     F_    0.015234 0.431138 0.666349 -0.678296
F16   F     F_    0.007856 0.574728 0.345829 -0.686693
F17   F     F_    0.724949 0.079977 0.256775 -0.608950
F18   F     F_    0.284330 0.924596 0.725393 -0.615771
F19   F     F_    0.274899 0.079950 0.743259 -0.615817
F20   F     F_    0.715658 0.924708 0.274830 -0.617883
F21   F     F_    0.225101 0.579950 0.256740 -0.615816
F22   F     F_    0.784342 0.424708 0.725169 -0.617883
F23   F     F_    0.775051 0.579977 0.743225 -0.608950
F24   F     F_    0.215670 0.424596 0.274607 -0.615770
F25   F     F_    0.489611 0.211614 0.900767 -0.670092
F26   F     F_    0.296510 0.914287 0.078637 -0.672440
F27   F     F_    0.509331 0.211740 0.097148 -0.671910
F28   F     F_    0.706829 0.914295 0.931451 -0.649663
F29   F     F_    0.990669 0.711740 0.902853 -0.671910
F30   F     F_    0.793171 0.414295 0.068548 -0.649663
F31   F     F_    0.010389 0.711614 0.099233 -0.670091
F32   F     F_    0.203492 0.414287 0.921365 -0.672440
N33   N     N_2   0.743189 0.177982 0.138709 -0.060886
H33   H     H_    0.779633 0.190459 0.198758 0.219333
C133  C     C_3   0.779937 0.153374 0.108916 -0.897709
H34   H     H_    0.818781 0.128949 0.157655 0.270819
H35   H     H_    0.811904 0.176118 0.096283 0.233306
H36   H     H_    0.738885 0.134952 0.050217 0.244830
N34   N     N_2   0.293933 0.803380 0.895891 -0.058913
H37   H     H_    0.255568 0.789448 0.837717 0.223884
C134  C     C_3   0.357469 0.774869 0.949011 -0.847581
H38   H     H_    0.380218 0.764063 0.913768 0.255378
H39   H     H_    0.340820 0.745034 0.967821 0.237591
H40   H     H_    0.401905 0.792881 0.006476 0.246777
N35   N     N_2   0.254964 0.176771 0.863185 -0.063228
H41   H     H_    0.217641 0.188633 0.802835 0.218694
C135  C     C_3   0.219612 0.152736 0.895284 -0.899691
H42   H     H_    0.180493 0.127914 0.847819 0.270201
H43   H     H_    0.188172 0.175815 0.908149 0.234429
H44   H     H_    0.261509 0.134832 0.954308 0.247262
N36   N     N_2   0.702065 0.799342 0.102852 -0.060455
H45   H     H_    0.739713 0.784686 0.160505 0.221324
C136  C     C_3   0.638292 0.771352 0.047733 -0.848725
H46   H     H_    0.614594 0.759938 0.081648 0.254787
H47   H     H_    0.654970 0.741870 0.028126 0.238068
H48   H     H_    0.594569 0.790009 0.990793 0.247144
N37   N     N_2   0.245037 0.676771 0.136814 -0.063229
H49   H     H_    0.282361 0.688632 0.197164 0.218694
C137  C     C_3   0.280388 0.652736 0.104714 -0.899689
H50   H     H_    0.319507 0.627914 0.152178 0.270200
H51   H     H_    0.311827 0.675815 0.091848 0.234428
H52   H     H_    0.238490 0.634832 0.045690 0.247261
N38   N     N_2   0.797935 0.299342 0.897148 -0.060455
H53   H     H_    0.760287 0.284685 0.839495 0.221324
C138  C     C_3   0.861708 0.271352 0.952268 -0.848725
H54   H     H_    0.885405 0.259938 0.918352 0.254786
H55   H     H_    0.845030 0.241870 0.971875 0.238068
H56   H     H_    0.905431 0.290009 0.009206 0.247145
N39   N     N_2   0.756811 0.677982 0.861291 -0.060886
H57   H     H_    0.720367 0.690459 0.801242 0.219333
C139  C     C_3   0.720063 0.653374 0.891084 -0.897705
H58   H     H_    0.681219 0.628949 0.842345 0.270818
H59   H     H_    0.688096 0.676118 0.903718 0.233306
H60   H     H_    0.761115 0.634952 0.949783 0.244829
N40   N     N_2   0.206065 0.303379 0.104106 -0.058914
H61   H     H_    0.244429 0.289447 0.162281 0.223882
C140  C     C_3   0.142528 0.274868 0.050985 -0.847584
H62   H     H_    0.119779 0.264062 0.086227 0.255379
H63   H     H_    0.159177 0.245033 0.032175 0.237592
H64   H     H_    0.098093 0.292881 0.993520 0.246778
N41   N     N_2   0.780665 0.268942 0.139258 -0.116746
H65   H     H_    0.822435 0.246704 0.155856 0.172219
C141  C     C_3   0.791376 0.291511 0.211066 -0.785703
H66   H     H_    0.848136 0.305891 0.250345 0.256541
H67   H     H_    0.784907 0.267840 0.250108 0.245444
H68   H     H_    0.750617 0.318904 0.190027 0.256227
N42   N     N_2   0.178138 0.759180 0.887055 -0.118216
H69   H     H_    0.174342 0.732715 0.917800 0.170548
C142  C     C_3   0.112534 0.764885 0.801755 -0.829054
H70   H     H_    0.065061 0.776233 0.802223 0.255199
H71   H     H_    0.097677 0.732755 0.767685 0.255077
H72   H     H_    0.122881 0.789531 0.767284 0.256557
N43   N     N_2   0.217377 0.268012 0.859552 -0.118670
H73   H     H_    0.176046 0.245982 0.845463 0.172501
C143  C     C_3   0.205005 0.288820 0.785493 -0.781578
H74   H     H_    0.148141 0.303063 0.746399 0.258008
H75   H     H_    0.210553 0.264041 0.747244 0.246253
H76   H     H_    0.245484 0.316074 0.803765 0.256395
N44   N     N_2   0.818505 0.755521 0.111696 -0.118856
H77   H     H_    0.822715 0.729861 0.079788 0.170984
C144  C     C_3   0.883361 0.759885 0.197856 -0.821698
H78   H     H_    0.897175 0.727149 0.229787 0.258827
H79   H     H_    0.872628 0.783687 0.233158 0.255154
H80   H     H_    0.931654 0.771598 0.199327 0.255242
N45   N     N_2   0.282624 0.768011 0.140447 -0.118670
H81   H     H_    0.323954 0.745981 0.154535 0.172500
C145  C     C_3   0.294997 0.788819 0.214507 -0.781578
H82   H     H_    0.351861 0.803061 0.253600 0.258008
H83   H     H_    0.289450 0.764040 0.252755 0.246253
H84   H     H_    0.254518 0.816074 0.196236 0.256396
N46   N     N_2   0.681495 0.255521 0.888304 -0.118856
H85   H     H_    0.677285 0.229860 0.920212 0.170984
C146  C     C_3   0.616639 0.259885 0.802144 -0.821698
H86   H     H_    0.602825 0.227149 0.770213 0.258828
H87   H     H_    0.627372 0.283687 0.766843 0.255154
H88   H     H_    0.568346 0.271598 0.800673 0.255242
N47   N     N_2   0.719335 0.768942 0.860742 -0.116746
H89   H     H_    0.677565 0.746704 0.844144 0.172219
C147  C     C_3   0.708624 0.791511 0.788934 -0.785702
H90   H     H_    0.651863 0.805891 0.749655 0.256541
H91   H     H_    0.715093 0.767840 0.749892 0.245443
H92   H     H_    0.749382 0.818904 0.809973 0.256227
N48   N     N_2   0.321859 0.259178 0.112942 -0.118216
H93   H     H_    0.325655 0.232714 0.082197 0.170547
C148  C     C_3   0.387462 0.264883 0.198242 -0.829049
H94   H     H_    0.434935 0.276233 0.197776 0.255199
H95   H     H_    0.402321 0.232751 0.232310 0.255076
H96   H     H_    0.377114 0.289526 0.232717 0.256554

loop_
_geom_bond_atom_site_label_1
_geom_bond_atom_site_label_2
_ccdc_geom_bond_type
N8    N13   A    
N36   C136  S    
C19   H23   S    
N42   H69   S    
C34   C42   A    
C76   C79   A    
C17   H21   S    
C99   N23   A    
N44   C144  S    
C140  H64   S    
C97   N21   A    
N19   Ni1   S    
C100  N24   A    
C101  N25   A    
C44   N40   S    
C104  N28   A    
C86   N14   A    
C62   C70   A    
C40   C48   A    
C24   C32   A    
N18   N19   A    
C103  F19   S    
C93   N17   A    
C18   C58   A    
C84   H4    S    
C82   N10   A    
C141  H67   S    
N7    N14   A    
N5    N16   A    
C52   N48   S    
C65   C91   A    
C134  H38   S    
C64   C89   A    
C41   C49   A    
N26   Ni3   S    
C4    F4    S    
C68   H32   S    
N35   C135  S    
C32   C109  S    
C147  H90   S    
C70   F10   S    
C135  H42   S    
C108  F24   S    
C27   C35   A    
C21   C29   A    
C4    N4    A    
C23   C31   A    
C82   H2    S    
C146  H88   S    
N2    Ni2   S    
C96   H12   S    
N44   H77   S    
C22   F26   S    
C75   F15   S    
C79   C120  S    
C13   C21   A    
N3    N10   A    
C63   C71   A    
N20   Ni2   S    
C138  H55   S    
C36   C44   A    
N12   Ni3   S    
C37   C45   A    
C32   C40   A    
C102  F18   S    
C39   C47   A    
C137  H51   S    
C99   H15   S    
C33   C116  S    
C12   C132  S    
C5    C113  A    
C97   H13   S    
C85   C116  A    
C53   C58   S    
C98   C120  A    
C56   C59   S    
C17   C25   A    
C82   C111  A    
C3    F3    S    
N41   C141  S    
C95   N19   A    
N24   Ni6   S    
C67   C92   A    
C31   C110  S    
C46   N42   S    
N40   C140  S    
C127  C131  T    
N6    Ni6   S    
C8    C116  A    
C125  C129  T    
N47   H89   S    
C134  H40   S    
C65   H29   S    
N22   N23   A    
C23   F27   S    
C81   N9    A    
N26   N27   A    
C69   C77   A    
C63   H27   S    
N16   Ni7   S    
C67   C75   A    
C3    N3    A    
C106  N30   A    
C38   N34   S    
C30   C38   A    
N35   H41   S    
N42   C142  S    
N37   H49   S    
C66   C74   A    
C49   C57   A    
C146  H87   S    
C136  H46   S    
C88   C113  A    
C6    C114  A    
C52   C60   A    
C144  H79   S    
C107  F23   S    
C2    F2    S    
C105  F21   S    
C35   C43   A    
C9    C10   T    
C18   H22   S    
C44   C52   A    
C80   C119  S    
C45   C53   A    
N33   H33   S    
N43   C143  S    
C93   C117  A    
N45   C145  S    
C73   F13   S    
C94   H10   S    
C96   C117  A    
C139  H60   S    
C77   C118  S    
C91   C92   S    
N48   C148  S    
C135  H44   S    
C66   C92   A    
C19   C59   A    
C34   C115  S    
C86   C115  A    
C147  H91   S    
C15   C55   A    
C97   C119  A    
C16   C56   A    
C121  C125  S    
C142  H70   S    
C123  C127  S    
C81   C112  A    
N29   N32   A    
C74   F14   S    
C73   C79   A    
C83   C110  A    
C133  H35   S    
C100  C119  A    
C15   H19   S    
C28   F32   S    
C50   N46   S    
C42   C50   A    
C145  H83   S    
C108  N32   A    
C106  C124  A    
N17   Ni3   S    
C6    N6    A    
N10   Ni1   S    
C22   C30   A    
C7    F7    S    
N38   H53   S    
C81   H1    S    
C68   C76   A    
C5    F5    S    
C84   C109  A    
N6    N15   A    
C136  H48   S    
C14   C22   A    
C102  C122  A    
C94   C118  A    
C71   F11   S    
N39   C139  S    
C143  H76   S    
C38   C46   A    
C67   H31   S    
C103  N27   A    
N14   Ni5   S    
N3    Ni3   S    
N32   Ni5   S    
C55   C60   S    
C104  F20   S    
C25   C33   A    
C54   C57   S    
C95   H11   S    
C7    N7    A    
C133  H34   S    
C18   C26   A    
N27   Ni2   S    
C48   N44   S    
C137  H50   S    
N1    N12   A    
N2    N11   A    
C107  C124  A    
C142  H72   S    
C126  C130  T    
N34   H37   S    
C45   N41   S    
C66   H30   S    
C148  H94   S    
N8    Ni8   S    
C1    C109  A    
C3    C111  A    
N40   H61   S    
C62   H26   S    
C20   C60   A    
C2    N2    A    
C124  C128  S    
N30   N31   A    
N46   H85   S    
C74   C80   A    
C138  H54   S    
C88   N16   A    
C13   C53   A    
C50   C58   A    
N18   Ni4   S    
C101  C121  A    
C143  H74   S    
C10   C130  S    
N41   H65   S    
C61   H25   S    
C141  H66   S    
C21   F25   S    
C46   C54   A    
C141  H68   S    
C69   F9    S    
C16   H20   S    
N28   Ni1   S    
C72   F12   S    
C134  H39   S    
C140  H63   S    
C108  C123  A    
C85   H5    S    
C93   H9    S    
N17   N20   A    
C101  F17   S    
C2    C110  A    
N4    Ni4   S    
C47   N43   S    
C87   H7    S    
C24   F28   S    
C43   N39   S    
C20   C28   A    
N23   Ni5   S    
C33   C41   A    
N21   Ni7   S    
C41   N37   S    
N48   H93   S    
C98   N22   A    
N38   C138  S    
C43   C51   A    
C76   F16   S    
C102  N26   A    
N7    Ni7   S    
N5    Ni5   S    
C14   H18   S    
C28   C36   A    
C85   N13   A    
C144  H78   S    
C138  H56   S    
C29   C37   A    
C5    N5    A    
C94   N18   A    
C89   C90   S    
C84   N12   A    
C103  C122  A    
C8    N8    A    
C17   C57   A    
C137  H52   S    
C145  H82   S    
C83   N11   A    
C70   C78   A    
N43   H73   S    
C29   C112  S    
C107  N31   A    
N31   Ni6   S    
N45   H81   S    
C105  N29   A    
N29   Ni8   S    
C139  H59   S    
N1    Ni1   S    
C135  H43   S    
C68   C91   A    
C65   C73   A    
C35   C114  S    
C7    C115  A    
C87   C114  A    
C99   C120  A    
C40   N36   S    
C26   C34   A    
C88   H8    S    
N47   C147  S    
C106  F22   S    
C19   C27   A    
C75   C80   A    
C83   H3    S    
C27   F31   S    
C15   C23   A    
C4    C112  A    
C25   F29   S    
C16   C24   A    
C64   H28   S    
C96   N20   A    
C49   N45   S    
C36   C113  S    
C128  C132  T    
C61   C89   A    
C95   C118  A    
N4    N9    A    
N46   C146  S    
C78   C117  S    
N37   C137  S    
N21   N24   A    
C104  C121  A    
C98   H14   S    
N34   C134  S    
C140  H62   S    
C136  H47   S    
C122  C126  S    
N25   N28   A    
C72   C77   A    
C37   N33   S    
C39   N35   S    
C1    N1    A    
C144  H80   S    
N39   H57   S    
C148  H95   S    
N22   Ni8   S    
C143  H75   S    
N25   Ni4   S    
C14   C54   A    
C139  H58   S    
N33   C133  S    
C148  H96   S    
C51   C59   A    
N36   H45   S    
C1    F1    S    
C47   C55   A    
C51   N47   S    
C61   C69   A    
C48   C56   A    
C20   H24   S    
N9    Ni2   S    
C11   C131  S    
C11   C12   T    
C6    F6    S    
C9    C129  S    
C30   C111  S    
C147  H92   S    
C42   N38   S    
C13   H17   S    
C142  H71   S    
C8    F8    S    
C26   F30   S    
C100  H16   S    
N30   Ni7   S    
C62   C90   A    
C63   C90   A    
C31   C39   A    
C133  H36   S    
C64   C72   A    
C146  H86   S    
N11   Ni4   S    
C86   H6    S    
C87   N15   A    
N15   Ni8   S    
C145  H84   S    
N13   Ni6   S    
C105  C123  A    
C71   C78   A    
