data_mof_unit_40997.cif
_audit_creation_date              2012-12-11T15:20:00-0500
_audit_creation_method            fapswitch 2.2
_symmetry_space_group_name_H-M    P1
_symmetry_Int_Tables_number       1
_space_group_crystal_system       triclinic
_cell_length_a                    16.713126
_cell_length_b                    16.71309
_cell_length_c                    43.08206
_cell_angle_alpha                 89.998396
_cell_angle_beta                  89.998357
_cell_angle_gamma                 119.999041
_cell_volume                      10421.8718376

loop_
_atom_site_label
_atom_site_type_symbol
_atom_type_description
_atom_site_fract_x
_atom_site_fract_y
_atom_site_fract_z
_atom_type_partial_charge
C1    C     C_R   0.584538 0.426112 0.794656 0.576916
C2    C     C_R   0.426277 0.584181 0.205504 0.582874
C3    C     C_R   0.035412 0.616390 0.436141 0.429351
C4    C     C_R   0.594224 0.990100 0.066701 0.429229
C5    C     C_R   0.383598 0.418142 0.436026 0.429350
C6    C     C_R   0.606021 0.013741 0.566261 0.429215
C7    C     C_R   0.963689 0.580584 0.936229 0.429369
C8    C     C_R   0.406711 0.394333 0.566435 0.429237
C9    C     C_R   0.617118 0.036745 0.936279 0.429370
C10   C     C_R   0.988966 0.593641 0.566570 0.429237
C11   C     C_R   0.419299 0.383085 0.936214 0.429374
C12   C     C_R   0.999005 0.455133 0.066484 0.420864
C13   C     C_R   0.415521 0.841670 0.294629 0.577659
C14   C     C_R   0.448610 0.985431 0.435918 0.420221
C15   C     C_R   0.544657 0.543954 0.066457 0.420845
C16   C     C_R   0.017018 0.464220 0.436259 0.420181
C17   C     C_R   0.456353 0.001380 0.066540 0.420873
C18   C     C_R   0.535690 0.552033 0.436114 0.420144
C19   C     C_R   0.456433 0.001469 0.566093 0.420774
C20   C     C_R   0.982541 0.447079 0.936315 0.420142
C21   C     C_R   0.544280 0.543720 0.566273 0.420754
C22   C     C_R   0.464748 0.017858 0.936370 0.420133
C23   C     C_R   0.000893 0.456133 0.566435 0.420831
C24   C     C_R   0.157904 0.573724 0.205504 0.582983
C25   C     C_R   0.552714 0.535496 0.936288 0.420137
C26   C     C_R   0.992630 0.451161 0.034068 0.035709
C27   C     C_R   0.449906 0.989698 0.468374 0.036880
C28   C     C_R   0.548623 0.541548 0.034041 0.035704
C29   C     C_R   0.012969 0.461394 0.468720 0.036972
C30   C     C_R   0.458772 0.007799 0.034126 0.035680
C31   C     C_R   0.538685 0.550679 0.468568 0.036915
C32   C     C_R   0.452679 0.995493 0.533669 0.035860
C33   C     C_R   0.986606 0.448274 0.968774 0.037049
C34   C     C_R   0.541905 0.547659 0.533857 0.035798
C35   C     C_R   0.124196 0.533193 0.119695 -0.060198
C36   C     C_R   0.461900 0.013827 0.968831 0.037052
C37   C     C_R   0.007122 0.458429 0.534016 0.035761
C38   C     C_R   0.551508 0.538387 0.968747 0.037027
C39   C     C_R   0.990823 0.523373 0.017845 -0.033640
C40   C     C_R   0.521995 0.987882 0.484664 -0.033601
C41   C     C_R   0.476458 0.467478 0.017824 -0.033635
C42   C     C_R   0.014972 0.535406 0.484998 -0.033591
C43   C     C_R   0.532810 0.009648 0.017900 -0.033640
C44   C     C_R   0.464757 0.478608 0.484858 -0.033589
C45   C     C_R   0.525153 0.994211 0.517442 -0.033625
C46   C     C_R   0.400679 0.868143 0.380539 -0.057322
C47   C     C_R   0.984391 0.520147 0.985069 -0.033591
C48   C     C_R   0.468003 0.475338 0.517632 -0.033629
C49   C     C_R   0.536006 0.016074 0.985124 -0.033587
C50   C     C_R   0.008620 0.532272 0.517776 -0.033641
C51   C     C_R   0.479682 0.464267 0.985048 -0.033589
C52   C     C_R   0.989317 0.667880 0.017667 -0.124020
C53   C     C_R   0.664564 0.982643 0.484990 -0.124387
C54   C     C_R   0.332051 0.321375 0.017659 -0.124050
C55   C     C_R   0.020567 0.683382 0.485301 -0.124450
C56   C     C_R   0.678857 0.011225 0.017720 -0.124037
C57   C     C_R   0.466485 0.590933 0.119676 -0.060074
C58   C     C_R   0.316811 0.336194 0.485187 -0.124500
C59   C     C_R   0.670101 0.993581 0.517255 -0.124085
C60   C     C_R   0.978293 0.662262 0.985406 -0.124479
C61   C     C_R   0.322255 0.330563 0.517447 -0.124113
C62   C     C_R   0.684247 0.022234 0.985458 -0.124514
C63   C     C_R   0.009606 0.678028 0.517565 -0.124007
C64   C     C_R   0.337666 0.315973 0.985396 -0.124504
C65   C     C_R   0.991302 0.378069 0.017524 -0.124187
C66   C     C_R   0.379251 0.993313 0.484863 -0.123140
C67   C     C_R   0.621663 0.613353 0.017491 -0.124189
C68   C     C_R   0.133184 0.532702 0.380585 -0.056973
C69   C     C_R   0.009267 0.387102 0.485224 -0.123086
C70   C     C_R   0.386997 0.009109 0.017582 -0.124194
C71   C     C_R   0.613046 0.621223 0.485056 -0.123131
C72   C     C_R   0.379471 0.993931 0.517126 -0.124062
C73   C     C_R   0.990561 0.377795 0.985261 -0.123035
C74   C     C_R   0.613556 0.620872 0.517317 -0.124079
C75   C     C_R   0.387462 0.009856 0.985320 -0.123032
C76   C     C_R   0.008621 0.386729 0.517487 -0.124099
C77   C     C_R   0.621935 0.612870 0.985229 -0.123043
C78   C     C_3   0.196118 0.420723 0.145353 -0.004303
C79   C     C_R   0.409247 0.875984 0.119697 -0.060270
C80   C     C_3   0.171244 0.355391 0.172883 -0.354412
C81   C     C_3   0.223135 0.814833 0.352282 -0.004329
C82   C     C_3   0.180675 0.834395 0.324093 -0.356269
C83   C     C_3   0.578859 0.775394 0.145301 -0.004280
C84   C     C_3   0.644388 0.815524 0.172795 -0.354451
C85   C     C_3   0.185046 0.407703 0.352116 -0.004365
C86   C     C_3   0.166376 0.345790 0.323956 -0.355860
C87   C     C_3   0.224725 0.803697 0.145304 -0.004235
C88   C     C_3   0.184640 0.829074 0.172818 -0.354543
C89   C     C_3   0.591041 0.777214 0.352349 -0.004463
C90   C     C_R   0.466563 0.599757 0.380604 -0.056943
C91   C     C_3   0.653407 0.819740 0.324240 -0.355931
C92   C     C_3   0.418999 0.194842 0.645667 -0.004499
C93   C     C_3   0.354188 0.171263 0.673288 -0.354360
C94   C     C_3   0.815582 0.222753 0.852008 -0.004202
C95   C     C_3   0.834678 0.180022 0.823794 -0.356353
C96   C     C_3   0.775511 0.579517 0.645416 -0.004381
C97   C     C_3   0.815798 0.644896 0.672940 -0.354584
C98   C     C_3   0.407219 0.184553 0.852001 -0.004217
C99   C     C_3   0.345352 0.165384 0.823796 -0.356325
C100  C     C_3   0.805117 0.224717 0.645504 -0.004286
C101  C     C_R   0.533135 0.125433 0.619656 -0.059621
C102  C     C_3   0.829624 0.184234 0.673117 -0.354796
C103  C     C_3   0.777228 0.592740 0.852031 -0.004208
C104  C     C_3   0.819976 0.654597 0.823824 -0.356289
C105  C     C_R   0.842097 0.415818 0.705501 0.582753
C106  C     C_R   0.866549 0.399289 0.880596 -0.056926
C107  C     C_R   0.591424 0.466180 0.619641 -0.059560
C108  C     C_R   0.532856 0.133700 0.880608 -0.056858
C109  C     C_R   0.875892 0.408762 0.619705 -0.060173
C110  C     C_R   0.600603 0.467259 0.880594 -0.056950
C111  C     C_R   0.152617 0.531665 0.150071 0.280459
C112  C     C_R   0.373727 0.844811 0.349670 0.272545
C113  C     C_R   0.468102 0.620914 0.150053 0.280620
C114  C     C_R   0.155889 0.528879 0.349653 0.272045
C115  C     C_R   0.379211 0.847448 0.150059 0.280606
C116  C     C_R   0.573890 0.158440 0.794661 0.576832
C117  C     C_R   0.470540 0.626574 0.349699 0.272503
C118  C     C_R   0.531284 0.153083 0.650114 0.279631
C119  C     C_R   0.844057 0.372843 0.849651 0.271488
C120  C     C_R   0.621249 0.468097 0.650058 0.280132
C121  C     C_R   0.528844 0.156088 0.849654 0.271497
C122  C     C_R   0.847603 0.378900 0.650094 0.279926
C123  C     C_R   0.627091 0.471206 0.849653 0.271513
C124  C     C_R   0.044771 0.578875 0.168449 -0.223804
C125  C     C_R   0.532510 0.947414 0.333625 -0.212495
C126  C     C_R   0.421204 0.465943 0.168444 -0.223701
C127  C     C_R   0.584197 0.426264 0.705496 0.582407
C128  C     C_R   0.053595 0.585719 0.333912 -0.211786
C129  C     C_R   0.534140 0.955440 0.168500 -0.223904
C130  C     C_R   0.414598 0.467733 0.333786 -0.211585
C131  C     C_R   0.579795 0.045925 0.668128 -0.222676
C132  C     C_R   0.946078 0.532094 0.833978 -0.210768
C133  C     C_R   0.466024 0.420687 0.668291 -0.222599
C134  C     C_R   0.586073 0.054037 0.834020 -0.210655
C135  C     C_R   0.954975 0.534171 0.668392 -0.223277
C136  C     C_R   0.467859 0.413997 0.833960 -0.210733
C137  C     C_R   0.009452 0.569447 0.138263 -0.097246
C138  C     C_R   0.841568 0.415455 0.794658 0.576874
C139  C     C_R   0.556210 0.978205 0.364370 -0.098085
C140  C     C_R   0.430554 0.440041 0.138251 -0.097108
C141  C     C_R   0.023395 0.578854 0.364727 -0.098124
C142  C     C_R   0.560099 0.990854 0.138326 -0.097173
C143  C     C_R   0.421287 0.444160 0.364583 -0.097703
C144  C     C_R   0.570711 0.011284 0.637854 -0.097548
C145  C     C_R   0.976075 0.555386 0.864812 -0.097949
C146  C     C_R   0.440215 0.429696 0.638048 -0.097078
C147  C     C_R   0.579420 0.024137 0.864866 -0.097958
C148  C     C_R   0.990203 0.560031 0.638193 -0.097362
C149  C     C_R   0.573742 0.157963 0.705486 0.582242
C150  C     C_R   0.444528 0.420699 0.864790 -0.097946
C151  C     C_R   0.049708 0.546991 0.113599 0.174436
C152  C     C_R   0.490241 0.937670 0.388152 0.178169
C153  C     C_R   0.452828 0.502701 0.113581 0.174435
C154  C     C_R   0.064122 0.553234 0.388391 0.178574
C155  C     C_R   0.497488 0.950591 0.113638 0.174363
C156  C     C_R   0.446458 0.510235 0.388311 0.178583
C157  C     C_R   0.547845 0.051636 0.613324 0.174893
C158  C     C_R   0.935377 0.488936 0.888448 0.178794
C159  C     C_R   0.503077 0.452058 0.613437 0.174878
C160  C     C_R   0.426122 0.584500 0.294642 0.577284
C161  C     C_R   0.553702 0.064907 0.888487 0.178845
C162  C     C_R   0.950098 0.497174 0.613559 0.174565
C163  C     C_R   0.510948 0.446445 0.888433 0.178834
C164  C     C_R   0.879636 0.440898 0.826252 0.059695
C165  C     C_R   0.560191 0.116894 0.674391 0.055075
C166  C     C_R   0.559063 0.438742 0.826246 0.059739
C167  C     C_R   0.883621 0.443635 0.674476 0.054731
C168  C     C_R   0.561293 0.120445 0.826268 0.059733
C169  C     C_R   0.556509 0.439809 0.674431 0.055103
C170  C     C_R   0.441343 0.880314 0.326134 0.059366
C171  C     C_R   0.415828 0.842109 0.205507 0.583036
C172  C     C_R   0.116374 0.560031 0.174486 0.054347
C173  C     C_R   0.438743 0.558861 0.326200 0.059614
C174  C     C_R   0.443720 0.883719 0.174500 0.054293
C175  C     C_R   0.120252 0.561216 0.326231 0.059470
C176  C     C_R   0.439940 0.556357 0.174479 0.054381
C177  C     C_R   0.995708 0.598695 0.034244 0.037988
C178  C     C_R   0.590916 0.980192 0.468318 0.038232
C179  C     C_R   0.401188 0.396993 0.034230 0.037988
C180  C     C_R   0.022789 0.612048 0.468639 0.038249
C181  C     C_R   0.603267 0.004794 0.034299 0.037979
C182  C     C_R   0.158412 0.573880 0.294652 0.577165
C183  C     C_R   0.388068 0.409794 0.468515 0.038247
C184  C     C_R   0.600614 0.999412 0.533842 0.038043
C185  C     C_R   0.976307 0.588843 0.968727 0.038242
C186  C     C_R   0.397698 0.399895 0.534028 0.038036
C187  C     C_R   0.612789 0.024173 0.968779 0.038244
C188  C     C_R   0.003525 0.602615 0.534161 0.038002
C189  C     C_R   0.411035 0.387445 0.968711 0.038240
C190  C     C_R   0.010380 0.604326 0.066647 0.429227
C191  C     C_R   0.582586 0.967375 0.435829 0.429358
C192  C     C_R   0.395559 0.406025 0.066634 0.429225
Cr1   Cr    Cr6+3 0.530290 0.262330 0.750000 1.027101
Cr2   Cr    Cr6+3 0.732040 0.469710 0.750000 1.026833
Cr3   Cr    Cr6+3 0.737670 0.267960 0.750000 1.026829
Cr4   Cr    Cr6+3 0.262330 0.530290 0.250000 1.027152
Cr5   Cr    Cr6+3 0.469710 0.732040 0.250000 1.026880
Cr6   Cr    Cr6+3 0.267960 0.737670 0.250000 1.026748
H1    H     H_    0.991166 0.321113 0.973273 0.166074
H2    H     H_    0.328892 0.006969 0.029515 0.165601
H3    H     H_    0.773027 0.146341 0.808571 0.171357
H4    H     H_    0.747568 0.610404 0.628725 0.144391
H5    H     H_    0.832290 0.576775 0.633126 0.181914
H6    H     H_    0.846354 0.617906 0.689902 0.174740
H7    H     H_    0.870635 0.713736 0.664776 0.104759
H8    H     H_    0.760853 0.652898 0.684512 0.157624
H9    H     H_    0.404778 0.238094 0.866472 0.187353
H10   H     H_    0.376662 0.120228 0.866289 0.144513
H11   H     H_    0.340683 0.106411 0.810426 0.157679
H12   H     H_    0.274887 0.147532 0.831438 0.099058
H13   H     H_    0.008812 0.329872 0.473248 0.166056
H14   H     H_    0.373305 0.226991 0.808550 0.171354
H15   H     H_    0.864347 0.252849 0.628972 0.144393
H16   H     H_    0.745906 0.168019 0.633072 0.182594
H17   H     H_    0.771755 0.153630 0.689957 0.174753
H18   H     H_    0.843734 0.129404 0.665026 0.104396
H19   H     H_    0.892364 0.239084 0.684811 0.157661
H20   H     H_    0.833185 0.595142 0.866506 0.187357
H21   H     H_    0.743493 0.623337 0.866313 0.144453
H22   H     H_    0.765690 0.659235 0.810431 0.157776
H23   H     H_    0.872546 0.725073 0.831466 0.099057
H24   H     H_    0.677605 0.671487 0.029418 0.165604
H25   H     H_    0.853686 0.626657 0.808600 0.171309
H26   H     H_    0.975456 0.584669 0.816142 0.103472
H27   H     H_    0.600795 0.016689 0.686685 0.106237
H28   H     H_    0.415305 0.390801 0.816119 0.103471
H29   H     H_    0.984055 0.584127 0.687034 0.106354
H30   H     H_    0.609256 0.024613 0.816196 0.103482
H31   H     H_    0.416067 0.400140 0.686923 0.105940
H32   H     H_    0.584736 0.976672 0.315675 0.103785
H33   H     H_    0.323309 0.995690 0.529061 0.165646
H34   H     H_    0.015565 0.599523 0.187116 0.106619
H35   H     H_    0.391902 0.415441 0.315868 0.103439
H36   H     H_    0.583918 0.984662 0.187188 0.106595
H37   H     H_    0.024221 0.608857 0.316056 0.103771
H38   H     H_    0.400706 0.416127 0.187119 0.106474
H39   H     H_    0.972328 0.716160 0.973521 0.163377
H40   H     H_    0.728757 0.996976 0.529196 0.163866
H41   H     H_    0.283808 0.256076 0.973516 0.163369
H42   H     H_    0.006330 0.733367 0.529496 0.163933
H43   H     H_    0.744116 0.028218 0.973572 0.163358
H44   H     H_    0.678577 0.670185 0.973236 0.166077
H45   H     H_    0.266953 0.271935 0.529386 0.163874
H46   H     H_    0.718659 0.977032 0.473101 0.163481
H47   H     H_    0.992417 0.726398 0.029610 0.163940
H48   H     H_    0.257034 0.282193 0.473300 0.163412
H49   H     H_    0.734292 0.008154 0.029662 0.163940
H50   H     H_    0.026311 0.743132 0.473402 0.163408
H51   H     H_    0.273573 0.265920 0.029606 0.163929
H52   H     H_    0.029882 0.625007 0.870252 0.163734
H53   H     H_    0.582326 0.954102 0.633528 0.167016
H54   H     H_    0.374900 0.404882 0.870223 0.163688
H55   H     H_    0.006726 0.328756 0.529432 0.165634
H56   H     H_    0.047664 0.628766 0.634004 0.167059
H57   H     H_    0.595255 0.970356 0.870328 0.163703
H58   H     H_    0.371532 0.418502 0.633811 0.166833
H59   H     H_    0.625765 0.032491 0.369632 0.164244
H60   H     H_    0.951793 0.580432 0.134109 0.167237
H61   H     H_    0.405977 0.374636 0.369924 0.163932
H62   H     H_    0.628711 0.048595 0.134198 0.167220
H63   H     H_    0.969431 0.594472 0.370133 0.164111
H64   H     H_    0.419671 0.371436 0.134097 0.167200
H65   H     H_    0.158200 0.519771 0.100647 0.134163
H66   H     H_    0.330163 0.009229 0.973333 0.166076
H67   H     H_    0.349898 0.834302 0.398730 0.140999
H68   H     H_    0.479744 0.638300 0.100622 0.134033
H69   H     H_    0.167156 0.515554 0.398669 0.141332
H70   H     H_    0.361923 0.841970 0.100626 0.134041
H71   H     H_    0.483319 0.650615 0.398753 0.140580
H72   H     H_    0.519201 0.159457 0.600738 0.134889
H73   H     H_    0.832614 0.348065 0.898655 0.141813
H74   H     H_    0.639017 0.479625 0.600644 0.134261
H75   H     H_    0.515590 0.167687 0.898654 0.141778
H76   H     H_    0.842027 0.361158 0.600689 0.134617
H77   H     H_    0.671573 0.676926 0.529250 0.165683
H78   H     H_    0.651797 0.484539 0.898661 0.141665
H79   H     H_    0.255764 0.423698 0.133073 0.181608
H80   H     H_    0.137305 0.389647 0.128661 0.144223
H81   H     H_    0.108277 0.347252 0.184481 0.157744
H82   H     H_    0.157367 0.286591 0.164721 0.105020
H83   H     H_    0.228850 0.382497 0.189822 0.174823
H84   H     H_    0.256319 0.878753 0.366769 0.144641
H85   H     H_    0.167055 0.760764 0.366578 0.187312
H86   H     H_    0.147408 0.773093 0.308706 0.171911
H87   H     H_    0.127775 0.851834 0.331745 0.099462
H88   H     H_    0.322429 0.993649 0.472877 0.166040
H89   H     H_    0.235038 0.893753 0.310878 0.157768
H90   H     H_    0.575842 0.832216 0.133149 0.181463
H91   H     H_    0.609775 0.747823 0.128481 0.144295
H92   H     H_    0.652530 0.760537 0.184270 0.157730
H93   H     H_    0.713156 0.870470 0.164617 0.105147
H94   H     H_    0.617451 0.845921 0.189839 0.174895
H95   H     H_    0.120596 0.376895 0.366343 0.144432
H96   H     H_    0.238679 0.405661 0.366657 0.187174
H97   H     H_    0.228174 0.373817 0.308802 0.171269
H98   H     H_    0.148566 0.275383 0.331657 0.099534
H99   H     H_    0.993415 0.322088 0.029455 0.165598
H100  H     H_    0.107519 0.340943 0.310467 0.157873
H101  H     H_    0.167881 0.743878 0.133154 0.181597
H102  H     H_    0.252276 0.862196 0.128490 0.144249
H103  H     H_    0.239644 0.892198 0.184288 0.157724
H104  H     H_    0.129671 0.842893 0.164664 0.105065
H105  H     H_    0.154284 0.771730 0.189860 0.174965
H106  H     H_    0.621668 0.744093 0.366923 0.144709
H107  H     H_    0.592772 0.833244 0.366597 0.186918
H108  H     H_    0.625554 0.853026 0.308781 0.171813
H109  H     H_    0.723643 0.872635 0.331978 0.099828
H110  H     H_    0.670221 0.678032 0.473071 0.166075
H111  H     H_    0.658578 0.765409 0.311069 0.157707
H112  H     H_    0.387719 0.134999 0.629378 0.144301
H113  H     H_    0.421502 0.253700 0.632982 0.182295
H114  H     H_    0.381573 0.229656 0.689917 0.174297
H115  H     H_    0.285201 0.156910 0.665158 0.104404
H116  H     H_    0.346341 0.108895 0.685246 0.157727
H117  H     H_    0.762079 0.166785 0.866494 0.187409
H118  H     H_    0.879941 0.256530 0.866275 0.144508
H119  H     H_    0.893604 0.234315 0.810403 0.157732
H120  H     H_    0.852569 0.127432 0.831428 0.099023
N1    N     N_R   0.014732 0.534022 0.082194 -0.374932
N2    N     N_R   0.544173 0.035573 0.920555 -0.375696
N3    N     N_R   0.984952 0.519167 0.582137 -0.374934
N4    N     N_R   0.491060 0.456029 0.920485 -0.375688
N5    N     N_R   0.510455 0.967881 0.420123 -0.375557
N6    N     N_R   0.465813 0.480728 0.082174 -0.374960
N7    N     N_R   0.034551 0.543573 0.420435 -0.375598
N8    N     N_R   0.519535 0.985676 0.082247 -0.374937
N9    N     N_R   0.456296 0.490203 0.420317 -0.375688
N10   N     N_R   0.535360 0.017398 0.581826 -0.374968
N11   N     N_R   0.964809 0.508785 0.920505 -0.375686
N12   N     N_R   0.481206 0.464795 0.581988 -0.375067
O1    O     O_R   0.509640 0.171340 0.784000 -0.493355
O2    O     O_R   0.171340 0.509640 0.216000 -0.497908
O3    O     O_R   0.490360 0.661700 0.284000 -0.493839
O4    O     O_R   0.338300 0.828660 0.216000 -0.498125
O5    O     O_R   0.539230 0.345420 0.781810 -0.490601
O6    O     O_R   0.806190 0.460770 0.718190 -0.492830
O7    O     O_R   0.654580 0.193810 0.781810 -0.490593
O8    O     O_R   0.539230 0.345420 0.718190 -0.492476
O9    O     O_R   0.806190 0.460770 0.781810 -0.490632
O10   O     O_R   0.654580 0.193810 0.718190 -0.492994
O11   O     O_R   0.345420 0.539230 0.281810 -0.490548
O12   O     O_R   0.661700 0.490360 0.716000 -0.497904
O13   O     O_R   0.460770 0.806190 0.218190 -0.492972
O14   O     O_R   0.193810 0.654580 0.281810 -0.491107
O15   O     O_R   0.345420 0.539230 0.218190 -0.492960
O16   O     O_R   0.460770 0.806190 0.281810 -0.490834
O17   O     O_R   0.193810 0.654580 0.218190 -0.493042
O18   O     O_3   0.666667 0.333333 0.750000 -0.231191
O19   O     O_3   0.333333 0.666667 0.250000 -0.230840
O20   O     O_2   0.021775 0.672586 0.080808 -0.538663
O21   O     O_2   0.637964 0.953619 0.421702 -0.542680
O22   O     O_2   0.327344 0.349105 0.080802 -0.538630
O23   O     O_R   0.828660 0.338300 0.784000 -0.493370
O24   O     O_2   0.049272 0.685543 0.422004 -0.543072
O25   O     O_2   0.651114 0.978744 0.080862 -0.538537
O26   O     O_2   0.314442 0.362820 0.421899 -0.542746
O27   O     O_2   0.674374 0.025410 0.580425 -0.539433
O28   O     O_2   0.949620 0.635760 0.922107 -0.543084
O29   O     O_2   0.349949 0.326015 0.580598 -0.539031
O30   O     O_2   0.686357 0.050815 0.922153 -0.543098
O31   O     O_2   0.977376 0.650400 0.580719 -0.538909
O32   O     O_2   0.364164 0.313819 0.922095 -0.543029
O33   O     O_2   0.992846 0.389164 0.080868 -0.530904
O34   O     O_R   0.509640 0.171340 0.716000 -0.497149
O35   O     O_2   0.391236 0.995711 0.421555 -0.533285
O36   O     O_2   0.610590 0.603823 0.080836 -0.530938
O37   O     O_2   0.006469 0.396434 0.421918 -0.533398
O38   O     O_2   0.396501 0.007460 0.080927 -0.530842
O39   O     O_2   0.603349 0.609409 0.421752 -0.533522
O40   O     O_2   0.390190 0.994692 0.580468 -0.531289
O41   O     O_2   0.993281 0.389982 0.921960 -0.533545
O42   O     O_2   0.603964 0.609781 0.580656 -0.531276
O43   O     O_2   0.396896 0.007090 0.922019 -0.533568
O44   O     O_2   0.007374 0.396526 0.580831 -0.531036
O45   O     O_R   0.661700 0.490360 0.784000 -0.493376
O46   O     O_2   0.609781 0.603341 0.921928 -0.533536
O47   O     O_3   0.222209 0.511242 0.155752 -0.536142
O48   O     O_3   0.282496 0.781535 0.342605 -0.539948
O49   O     O_3   0.488395 0.710892 0.155726 -0.536153
O50   O     O_3   0.218623 0.500375 0.342401 -0.539860
O51   O     O_3   0.289232 0.777707 0.155699 -0.536141
O52   O     O_3   0.498537 0.717763 0.342548 -0.540040
O53   O     O_3   0.509774 0.221803 0.656019 -0.536633
O54   O     O_3   0.781588 0.281562 0.842368 -0.540081
O55   O     O_3   0.711341 0.488933 0.655831 -0.536705
O56   O     O_R   0.828660 0.338300 0.716000 -0.497696
O57   O     O_3   0.500007 0.218523 0.842347 -0.540080
O58   O     O_3   0.778399 0.288748 0.655817 -0.536710
O59   O     O_3   0.718369 0.499960 0.842381 -0.540071
O60   O     O_R   0.171340 0.509640 0.284000 -0.493287
O61   O     O_R   0.490360 0.661700 0.216000 -0.498057
O62   O     O_R   0.338300 0.828660 0.284000 -0.493849

loop_
_geom_bond_atom_site_label_1
_geom_bond_atom_site_label_2
_ccdc_geom_bond_type
C2    O15   A    
C72   H33   S    
C46   C112  A    
C29   C42   A    
C32   C45   A    
Cr4   O19   S    
Cr1   O1    S    
C53   H46   S    
C171  O13   A    
C11   O32   D    
C182  O14   A    
C150  C163  A    
C100  H16   S    
C161  N2    S    
C115  C174  A    
C141  C154  A    
C25   O46   D    
C139  C152  A    
C94   H117  S    
C111  C172  A    
C55   C180  A    
C102  H19   S    
C66   C72   A    
C42   C180  A    
C20   O41   D    
C105  O56   A    
C69   H13   S    
C94   O54   S    
C104  H25   S    
Cr5   O3    S    
Cr6   O17   S    
C23   N3    Am   
C58   C61   A    
C80   H83   S    
C17   C30   A    
C98   H10   S    
C9    O30   D    
C19   C32   A    
C29   C69   A    
C91   H111  S    
C8    O29   D    
Cr3   O56   S    
C88   H103  S    
C90   C117  A    
C124  C137  A    
C116  O1    A    
C88   H104  S    
C78   H80   S    
Cr5   O61   S    
C108  H75   S    
C4    O25   D    
C129  C142  A    
C23   C37   A    
C86   H97   S    
C6    C184  A    
C58   C183  A    
C127  O12   A    
C110  C123  A    
C111  O47   S    
Cr1   O34   S    
C124  C172  A    
C4    N8    Am   
C143  H61   S    
C6    N10   Am   
C82   H89   S    
C124  H34   S    
C123  O59   S    
C20   C33   A    
C33   C73   A    
C3    N7    Am   
C33   C47   A    
C56   C62   A    
C30   C43   A    
C34   C48   A    
C95   H119  S    
C97   H6    S    
C84   H94   S    
C107  C120  A    
C85   O50   S    
C39   C47   A    
C117  C173  A    
C121  C168  A    
C128  C175  A    
C70   H2    S    
C122  C167  A    
C107  H74   S    
C141  H63   S    
C71   H110  S    
C138  O23   A    
C150  H54   S    
C22   C36   A    
C130  H35   S    
C83   O49   S    
C148  C162  A    
C96   H4    S    
C27   C66   A    
C37   C50   A    
C15   O36   D    
C19   N10   Am   
C46   H67   S    
C147  H57   S    
C54   H51   S    
C89   O52   S    
C79   C155  A    
C182  O60   A    
C56   H49   S    
C17   N8    Am   
C84   H92   S    
C105  O6    A    
C98   C99   S    
C116  C168  S    
C18   C31   A    
C41   C51   A    
C44   C48   A    
C45   C184  A    
C91   H109  S    
C61   H45   S    
C148  H56   S    
C79   C115  A    
C160  C173  S    
C28   C41   A    
C81   H85   S    
C82   H86   S    
C83   H91   S    
C85   C86   S    
Cr1   O8    S    
C135  H29   S    
C101  C118  A    
Cr3   O18   S    
C78   C80   S    
C120  C169  A    
C149  O34   A    
C17   O38   D    
C69   C76   A    
C10   N3    Am   
C154  N7    S    
C52   C177  A    
C68   H69   S    
C52   C60   A    
C16   N7    Am   
C55   C63   A    
C80   H81   S    
C10   C188  A    
Cr1   O5    S    
C97   H8    S    
C89   C91   S    
C126  H38   S    
C109  H76   S    
C89   H106  S    
C81   O48   S    
C31   C71   A    
C103  O59   S    
C106  H73   S    
C5    N9    Am   
C140  H64   S    
C96   C97   S    
C192  N6    Am   
C93   H114  S    
C22   N2    Am   
C191  O21   D    
C138  O9    A    
C66   H88   S    
C149  C165  S    
C65   H99   S    
C10   O31   D    
C57   C113  A    
C38   C51   A    
C152  N5    S    
C8    C186  A    
C43   C181  A    
Cr5   O16   S    
C12   C26   A    
C22   O43   D    
C3    C180  A    
C76   H55   S    
C36   C75   A    
C25   C38   A    
C9    N2    Am   
C83   C84   S    
Cr5   O13   S    
C27   C40   A    
C85   H95   S    
C79   H70   S    
Cr4   O11   S    
C44   C183  A    
C42   C50   A    
C102  H18   S    
C144  H53   S    
C57   H68   S    
C55   H50   S    
C134  C168  A    
Cr6   O4    S    
C90   C156  A    
C192  O22   D    
C62   H43   S    
C99   H11   S    
C6    O27   D    
C159  N12   S    
Cr2   O18   S    
C177  C190  A    
C7    C185  A    
C51   C189  A    
C119  C164  A    
C190  N1    Am   
C113  O49   S    
C127  C169  S    
C108  C161  A    
C118  C165  A    
C149  O10   A    
C129  H36   S    
C114  O50   S    
C119  O54   S    
C54   C64   A    
C1    C166  S    
C121  O57   S    
C122  O58   S    
C94   H118  S    
Cr3   O7    S    
Cr2   O45   S    
C190  O20   D    
C24   C172  S    
C131  C144  A    
C103  H20   S    
C101  C157  A    
C131  C165  A    
C70   C75   A    
C12   N1    Am   
C135  C167  A    
C24   O2    A    
C60   H39   S    
C144  C157  A    
C21   N12   Am   
C92   H113  S    
Cr2   O12   S    
C87   C88   S    
C112  O48   S    
C60   C185  A    
C106  C119  A    
Cr4   O2    S    
Cr2   O6    S    
C108  C121  A    
C52   H47   S    
C8    N12   Am   
C64   C189  A    
C126  C176  A    
C32   C72   A    
Cr6   O62   S    
C134  C147  A    
C87   H102  S    
C109  C162  A    
C1    O5    A    
C13   O62   A    
C26   C39   A    
C56   C181  A    
C74   H77   S    
C87   O51   S    
C86   H98   S    
C54   C179  A    
C35   H65   S    
C18   N9    Am   
C133  C169  A    
C30   C70   A    
C123  C166  A    
C112  C170  A    
C67   C77   A    
C100  O58   S    
C116  O7    A    
C14   C27   A    
C47   C185  A    
C128  C141  A    
C115  O51   S    
C140  C153  A    
Cr6   O14   S    
C128  H37   S    
C50   C188  A    
C171  O4    A    
C3    O24   D    
C35   C151  A    
C15   N6    Am   
C39   C177  A    
C41   C179  A    
C130  C173  A    
C40   C45   A    
C171  C174  S    
C100  H15   S    
C58   H48   S    
C59   H40   S    
C147  C161  A    
C63   H42   S    
C21   C34   A    
C160  O3    A    
C86   H100  S    
C57   C153  A    
C16   O37   D    
C11   C189  A    
C134  H30   S    
C14   O35   D    
C132  C164  A    
C89   H107  S    
C107  C159  A    
C49   C187  A    
C157  N10   S    
C23   O44   D    
C151  N1    S    
C7    N11   Am   
C125  C170  A    
C153  N6    S    
C34   C74   A    
C113  C176  A    
C114  C175  A    
C37   C76   A    
C191  N5    Am   
C129  C174  A    
C90   H71   S    
C95   H3    S    
C132  C145  A    
C117  O52   S    
C158  N11   S    
C75   H66   S    
C132  H26   S    
C81   H84   S    
C78   H79   S    
C7    O28   D    
C98   O57   S    
C71   C74   A    
C110  C163  A    
C38   C77   A    
Cr4   O15   S    
Cr2   O9    S    
C145  C158  A    
C15   C28   A    
C155  N8    S    
C136  C166  A    
C21   O42   D    
C139  H59   S    
C18   O39   D    
C92   C93   S    
C94   C95   S    
C133  H31   S    
C120  O55   S    
C103  C104  S    
C80   H82   S    
C133  C146  A    
C95   H120  S    
C97   H7    S    
C5    C183  A    
C36   C49   A    
C103  H21   S    
C62   C187  A    
C46   C152  A    
C24   O17   A    
C5    O26   D    
C53   C178  A    
C81   C82   S    
C53   C59   A    
C92   H112  S    
C137  H60   S    
C125  C139  A    
C126  C140  A    
C160  O11   A    
C68   C154  A    
C13   O16   A    
C109  C122  A    
C118  O53   S    
Cr3   O23   S    
C92   O53   S    
C65   C73   A    
C82   H87   S    
C104  H22   S    
C64   H41   S    
C2    C176  S    
C179  C192  A    
Cr1   O18   S    
C142  C155  A    
C127  O8    A    
C2    O61   A    
C88   H105  S    
Cr4   O60   S    
C20   N11   Am   
Cr5   O19   S    
C99   H14   S    
C31   C44   A    
C25   N4    Am   
C77   H44   S    
C145  H52   S    
C28   C67   A    
C125  H32   S    
C43   C49   A    
C146  C159  A    
C16   C29   A    
C106  C158  A    
C105  C167  S    
C93   H115  S    
C96   O55   S    
C67   H24   S    
C48   C186  A    
C12   O33   D    
C131  H27   S    
C93   H116  S    
C100  C102  S    
Cr3   O10   S    
C142  H62   S    
C130  C143  A    
C175  C182  S    
C40   C178  A    
C162  N3    S    
C13   C170  S    
C135  C148  A    
C4    C181  A    
C104  H23   S    
Cr6   O19   S    
C35   C111  A    
C96   H5    S    
C1    O45   A    
C78   O47   S    
C136  H28   S    
C163  N4    S    
C146  H58   S    
C26   C65   A    
C9    C187  A    
C136  C150  A    
C14   N5    Am   
C101  H72   S    
C11   N4    Am   
C87   H101  S    
C178  C191  A    
C143  C156  A    
C84   H93   S    
C85   H96   S    
C73   H1    S    
C61   C186  A    
C59   C184  A    
C98   H9    S    
C156  N9    S    
C91   H108  S    
C102  H17   S    
C110  H78   S    
C63   C188  A    
C137  C151  A    
C138  C164  S    
C19   O40   D    
C83   H90   S    
C68   C114  A    
C99   H12   S    
