data_mof_unit_38554.cif
_audit_creation_date              2012-10-26T18:50:05-0400
_audit_creation_method            fapswitch 2.2
_symmetry_space_group_name_H-M    P1
_symmetry_Int_Tables_number       1
_space_group_crystal_system       triclinic
_cell_length_a                    10.807154
_cell_length_b                    12.988006
_cell_length_c                    11.756389
_cell_angle_alpha                 99.767048
_cell_angle_beta                  92.249489
_cell_angle_gamma                 92.314069
_cell_volume                      1623.14045106

loop_
_atom_site_label
_atom_site_type_symbol
_atom_type_description
_atom_site_fract_x
_atom_site_fract_y
_atom_site_fract_z
_atom_type_partial_charge
C1    C     C_R   0.501129 0.299374 0.478541 0.571628
C2    C     C_R   0.500696 0.860567 0.433972 -0.121230
C3    C     C_R   0.507658 0.031429 0.554827 0.041025
C4    C     C_R   0.503188 0.968743 0.443996 0.042476
C5    C     C_R   0.359670 0.425161 0.030241 -0.197630
C6    C     C_R   0.640517 0.574972 0.969744 -0.197371
C7    C     C_R   0.375450 0.429931 0.149993 -0.022952
C8    C     C_R   0.625956 0.567850 0.849662 -0.031625
C9    C     C_R   0.569191 0.523123 0.151283 0.423699
C10   C     C_R   0.429811 0.479344 0.849568 0.418074
C11   C     C_R   0.553067 0.525204 0.030716 -0.021767
C12   C     C_R   0.500456 0.700698 0.521286 0.574415
C13   C     C_R   0.446605 0.476099 0.969805 -0.023028
C14   C     C_R   0.262877 0.493885 0.500746 0.604928
C15   C     C_R   0.737151 0.506447 0.499394 0.607611
C16   C     C_R   0.148816 0.686848 0.510727 -0.124474
C17   C     C_R   0.851068 0.312954 0.445470 -0.130152
C18   C     C_R   0.096329 0.783348 0.519683 -0.176317
C19   C     C_R   0.903546 0.216187 0.430095 -0.174870
C20   C     C_R   0.970836 0.790948 0.536436 -0.099942
C21   C     C_R   0.029495 0.209979 0.452221 -0.108347
C22   C     C_R   0.895682 0.701354 0.543174 0.299627
C23   C     C_R   0.500208 0.814235 0.533213 0.016903
C24   C     C_R   0.105304 0.301199 0.488720 0.285504
C25   C     C_R   0.945275 0.600104 0.517254 0.007712
C26   C     C_R   0.055031 0.401449 0.490079 0.010160
C27   C     C_R   0.074934 0.594022 0.510001 -0.060583
C28   C     C_R   0.925170 0.406828 0.476750 -0.059519
C29   C     C_R   0.871143 0.505255 0.497250 -0.019588
C30   C     C_R   0.129033 0.495997 0.503596 -0.017292
C31   C     C_3   0.779883 0.771546 0.692595 -0.122534
C32   C     C_3   0.229538 0.238840 0.621017 -0.085341
C33   C     C_3   0.228610 0.515194 0.817496 -0.110615
C34   C     C_R   0.505034 0.185959 0.466001 0.012858
C35   C     C_3   0.772244 0.494482 0.186868 -0.101597
C36   C     C_R   0.500851 0.015231 0.345008 -0.143347
C37   C     C_R   0.505827 0.985109 0.653788 -0.151669
C38   C     C_R   0.500627 0.123478 0.355942 -0.137735
C39   C     C_R   0.500336 0.876882 0.642946 -0.146246
C40   C     C_R   0.511879 0.139522 0.565008 -0.139404
Cu1   Cu    Cu3+1 0.509250 0.507730 0.615930 1.001887
Cu2   Cu    Cu3+1 0.490750 0.492270 0.384070 1.001564
H1    H     H_    0.068108 0.133591 0.443731 0.111763
H2    H     H_    0.517938 0.187170 0.650359 0.113500
H3    H     H_    0.497029 0.842445 0.720486 0.115607
H4    H     H_    0.496655 0.158080 0.278378 0.127590
H5    H     H_    0.497477 0.967981 0.259495 0.104226
H6    H     H_    0.507447 0.032436 0.739199 0.098898
H7    H     H_    0.697687 0.601696 0.804372 0.134930
H8    H     H_    0.305972 0.392498 0.194986 0.141527
H9    H     H_    0.792072 0.856638 0.691209 0.111868
H10   H     H_    0.853177 0.746192 0.749898 0.087920
H11   H     H_    0.690607 0.759351 0.732128 0.144266
H12   H     H_    0.932241 0.867445 0.548015 0.111966
H13   H     H_    0.156291 0.263249 0.682938 0.118254
H14   H     H_    0.319447 0.257295 0.669743 0.186348
H15   H     H_    0.222336 0.152891 0.591108 0.092370
H16   H     H_    0.259566 0.593303 0.798982 0.128244
H17   H     H_    0.201601 0.523233 0.908563 0.085637
H18   H     H_    0.144096 0.488490 0.762001 0.140365
H19   H     H_    0.744031 0.415122 0.203576 0.123742
H20   H     H_    0.854411 0.523335 0.244726 0.146036
H21   H     H_    0.802256 0.487927 0.096916 0.081049
H22   H     H_    0.278829 0.382330 0.985823 0.131015
H23   H     H_    0.721387 0.618081 0.013651 0.135093
H24   H     H_    0.247778 0.686004 0.502442 0.127545
H25   H     H_    0.751911 0.313005 0.430633 0.127696
H26   H     H_    0.154076 0.853035 0.517473 0.119263
H27   H     H_    0.845546 0.145474 0.404193 0.124594
H28   H     H_    0.499189 0.812747 0.348778 0.134919
N1    N     N_R   0.523180 0.519350 0.790130 -0.224638
N2    N     N_R   0.476820 0.480650 0.209870 -0.226957
O1    O     O_R   0.506570 0.354460 0.582000 -0.484953
O2    O     O_3   0.227000 0.292458 0.525762 -0.557284
O3    O     O_3   0.319773 0.440460 0.791731 -0.559112
O4    O     O_3   0.677150 0.566072 0.210538 -0.535654
O5    O     O_R   0.493430 0.645540 0.418000 -0.482399
O6    O     O_R   0.490940 0.341410 0.386200 -0.518454
O7    O     O_R   0.509060 0.658590 0.613800 -0.514142
O8    O     O_R   0.327470 0.506520 0.597900 -0.447666
O9    O     O_R   0.672530 0.493480 0.402100 -0.470761
O10   O     O_R   0.311840 0.493460 0.402100 -0.523070
O11   O     O_R   0.688160 0.506540 0.597900 -0.501458
O12   O     O_3   0.775943 0.713326 0.579045 -0.554578

loop_
_geom_bond_atom_site_label_1
_geom_bond_atom_site_label_2
_ccdc_geom_bond_type
C4    C36   A    
C33   H16   S    
Cu1   Cu2   S    
Cu2   O10   S    
C9    N2    A    
C31   H10   S    
Cu1   O8    S    
C15   O9    A    
C12   C23   S    
C34   C40   A    
C28   C29   A    
C19   C21   A    
C24   C26   A    
C32   O2    S    
C18   H26   S    
Cu1   O11   S    
C12   O7    A    
C36   H5    S    
C21   H1    S    
C33   O3    S    
C6    H23   S    
C22   C25   A    
C9    O4    S    
C14   O8    A    
C32   H13   S    
C5    C13   A    
Cu1   N1    S    
C10   N1    A    
C16   C27   A    
C33   H17   S    
C27   C30   A    
C1    O6    A    
Cu2   O9    S    
C32   H15   S    
C14   C30   S    
C1    C34   S    
C15   C29   S    
C25   C29   A    
C35   O4    S    
C17   H25   S    
C20   H12   S    
C7    N2    A    
C5    C7    A    
C15   O11   A    
C31   O12   S    
C5    H22   S    
C22   O12   S    
C2    C4    A    
C10   O3    S    
C12   O5    A    
Cu2   N2    S    
C35   H19   S    
C31   H11   S    
C37   H6    S    
C9    C11   A    
C20   C22   A    
C3    C40   A    
Cu2   O6    S    
C33   H18   S    
C19   H27   S    
C16   H24   S    
C14   O10   A    
C3    C4    A    
C6    C11   A    
C8    N1    A    
C34   C38   A    
C17   C28   A    
C7    H8    S    
C31   H9    S    
C10   C13   A    
Cu1   O7    S    
C6    C8    A    
C26   C30   A    
C25   C27   A    
C26   C28   A    
C39   H3    S    
C1    O1    A    
C36   C38   A    
C37   C39   A    
C11   C13   A    
C24   O2    S    
C23   C39   A    
C17   C19   A    
C35   H20   S    
C18   C20   A    
C38   H4    S    
Cu1   O1    S    
C40   H2    S    
C3    C37   A    
Cu2   O5    S    
C16   C18   A    
C21   C24   A    
C2    C23   A    
C35   H21   S    
C2    H28   S    
C8    H7    S    
C32   H14   S    
