data_mof_unit_65058.cif
_audit_creation_date              2012-12-10T21:01:00-0500
_audit_creation_method            fapswitch 2.2
_symmetry_space_group_name_H-M    P1
_symmetry_Int_Tables_number       1
_space_group_crystal_system       triclinic
_cell_length_a                    15.84575
_cell_length_b                    15.091471
_cell_length_c                    10.529858
_cell_angle_alpha                 89.623939
_cell_angle_beta                  90.099856
_cell_angle_gamma                 90.038141
_cell_volume                      2518.0061159

loop_
_atom_site_label
_atom_site_type_symbol
_atom_type_description
_atom_site_fract_x
_atom_site_fract_y
_atom_site_fract_z
_atom_type_partial_charge
C1    C     C_R   0.338897 0.499976 0.500180 0.923250
C2    C     C_R   0.661103 0.500023 0.499820 0.923249
C3    C     C_1   0.824343 0.500068 0.499546 -0.047494
C4    C     C_1   0.175657 0.499932 0.500454 -0.047494
C5    C     C_R   0.956327 0.580074 0.513244 -0.175594
C6    C     C_R   0.043673 0.419926 0.486756 -0.175594
C7    C     C_R   0.043833 0.580030 0.513594 -0.155352
C8    C     C_R   0.956167 0.419970 0.486406 -0.155352
C9    C     C_R   0.913134 0.500045 0.499649 0.163912
C10   C     C_R   0.086865 0.499955 0.500351 0.163912
C11   C     C_R   0.499812 0.500342 0.256790 0.929237
C12   C     C_R   0.500188 0.499658 0.743210 0.929237
C13   C     C_1   0.250502 0.499935 0.500383 -0.138889
C14   C     C_1   0.749498 0.500065 0.499617 -0.138890
C15   C     C_R   0.471911 0.953619 0.393379 -0.157318
C16   C     C_R   0.528089 0.046381 0.606621 -0.157318
C17   C     C_R   0.528082 0.952682 0.606626 -0.151395
C18   C     C_R   0.471918 0.047317 0.393374 -0.151395
C19   C     C_R   0.499993 0.905035 0.500005 0.075324
C20   C     C_R   0.500007 0.094965 0.499995 0.075324
C21   C     C_3   0.496589 0.584838 0.039413 -0.201095
C22   C     C_3   0.503411 0.415162 0.960587 -0.201095
C23   C     C_3   0.567884 0.545094 0.957264 -0.248440
C24   C     C_3   0.432116 0.454905 0.042736 -0.248440
C25   C     C_3   0.429581 0.538204 0.957678 0.318007
C26   C     C_3   0.570419 0.461796 0.042322 0.318007
C27   C     C_3   0.500141 0.498965 0.877732 -0.091684
C28   C     C_3   0.499859 0.501035 0.122268 -0.091684
C29   C     C_1   0.499995 0.807132 0.500004 0.061232
C30   C     C_1   0.500005 0.192868 0.499996 0.061232
H1    H     H_    0.449914 0.082596 0.309776 0.139544
H2    H     H_    0.550086 0.917404 0.690224 0.139544
H3    H     H_    0.550096 0.080926 0.690216 0.139593
H4    H     H_    0.449903 0.919074 0.309784 0.139593
H5    H     H_    0.493232 0.653830 0.075018 0.178730
H6    H     H_    0.506767 0.346169 0.924982 0.178730
H7    H     H_    0.623304 0.581064 0.918192 0.171703
H8    H     H_    0.376696 0.418936 0.081808 0.171703
H9    H     H_    0.077818 0.641906 0.524076 0.153739
H10   H     H_    0.922182 0.358093 0.475924 0.153739
H11   H     H_    0.922465 0.641982 0.523515 0.147967
H12   H     H_    0.077535 0.358018 0.476485 0.147967
N1    N     N_1   0.500000 0.270550 0.500000 -0.082788
N2    N     N_1   0.500000 0.729450 0.500000 -0.082788
O1    O     O_R   0.378020 0.573650 0.500040 -0.595535
O2    O     O_R   0.621980 0.426350 0.499960 -0.595534
O3    O     O_R   0.621980 0.573650 0.499960 -0.620405
O4    O     O_R   0.378020 0.426350 0.500040 -0.620406
O5    O     O_R   0.499980 0.573650 0.313960 -0.626861
O6    O     O_R   0.500020 0.426350 0.686040 -0.626861
O7    O     O_R   0.500020 0.573650 0.686040 -0.599365
O8    O     O_R   0.499980 0.426350 0.313960 -0.599365
Zn1   Zn    Zn3+2 0.500000 0.598370 0.500000 1.003850
Zn2   Zn    Zn3+2 0.500000 0.401630 0.500000 1.003850
Br1   Br    Br    0.327728 0.592695 0.891778 -0.513871
Br2   Br    Br    0.672272 0.407305 0.108222 -0.513871

loop_
_geom_bond_atom_site_label_1
_geom_bond_atom_site_label_2
_ccdc_geom_bond_type
C6    C10   A    
C7    C10   A    
C15   C19   A    
C5    H11   S    
C1    O4    A    
C5    C9    A    
C21   H5    S    
C23   C27   S    
C16   H3    S    
C15   C18   A    
C22   H6    S    
N1    Zn2   S    
C26   C28   S    
C8    H10   S    
O3    Zn1   S    
C16   C20   A    
O2    Zn2   S    
C2    C14   S    
O1    Zn1   S    
C20   C30   S    
C2    O2    A    
O4    Zn2   S    
C3    C9    S    
C1    O1    A    
O6    Zn2   S    
C3    C14   T    
C21   C25   S    
C11   C28   S    
C11   O5    A    
C22   C24   S    
C17   C19   A    
C21   C28   S    
O8    Zn2   S    
C18   C20   A    
C22   C27   S    
C21   C23   S    
C29   N2    T    
C22   C26   S    
C2    O3    A    
O5    Zn1   S    
C30   N1    T    
C25   C27   S    
C12   C27   S    
C4    C10   S    
C24   H8    S    
C19   C29   S    
C24   C28   S    
C12   O7    A    
C1    C13   S    
C24   C25   S    
C6    H12   S    
C23   C26   S    
C4    C13   T    
C5    C7    A    
C17   H2    S    
C7    H9    S    
C16   C17   A    
C6    C8    A    
C11   O8    A    
C15   H4    S    
C23   H7    S    
N2    Zn1   S    
C12   O6    A    
C25   Br1   S    
C18   H1    S    
C8    C9    A    
O7    Zn1   S    
C26   Br2   S    
