data_mof_unit_24493.cif
_audit_creation_date              2012-12-11T15:14:47-0500
_audit_creation_method            fapswitch 2.2
_symmetry_space_group_name_H-M    P1
_symmetry_Int_Tables_number       1
_space_group_crystal_system       triclinic
_cell_length_a                    22.17901
_cell_length_b                    7.221266
_cell_length_c                    19.475207
_cell_angle_alpha                 89.99996
_cell_angle_beta                  98.807266
_cell_angle_gamma                 90.0
_cell_volume                      3082.38139576

loop_
_atom_site_label
_atom_site_type_symbol
_atom_type_description
_atom_site_fract_x
_atom_site_fract_y
_atom_site_fract_z
_atom_type_partial_charge
O1    O     O_R   0.448470 0.506130 0.415700 -0.542825
O2    O     O_R   0.551530 0.006130 0.584300 -0.542823
O3    O     O_R   0.436320 0.174490 0.555800 -0.553048
O4    O     O_R   0.563680 0.674490 0.444200 -0.553049
C1    C     C_R   0.423142 0.343780 0.577479 0.709966
C2    C     C_R   0.576859 0.843780 0.422521 0.709965
O5    O     O_R   0.441350 0.176340 0.414480 -0.525134
O6    O     O_R   0.558650 0.676340 0.585520 -0.525133
O7    O     O_R   0.556600 0.007100 0.441970 -0.510956
O8    O     O_R   0.443400 0.507100 0.558030 -0.510959
C3    C     C_R   0.426311 0.344811 0.389789 0.714808
C4    C     C_R   0.573689 0.844811 0.610211 0.714818
O9    O     O_3   0.537810 0.339550 0.509190 -0.370771
O10   O     O_3   0.462190 0.839550 0.490810 -0.370775
V1    V     V_3+5 0.492990 0.064280 0.498300 1.507774
V2    V     V_3+5 0.507010 0.564280 0.501700 1.507772
C5    C     C_R   0.868126 0.045335 0.702682 -0.152363
C6    C     C_R   0.131873 0.545328 0.297318 -0.152364
H1    H     H_    0.954689 0.063625 0.767937 0.101605
H2    H     H_    0.045310 0.563618 0.232063 0.101604
H3    H     H_    0.789673 0.054601 0.588995 0.159716
H4    H     H_    0.210326 0.554588 0.411007 0.159720
H5    H     H_    0.886512 0.097434 0.657957 0.115839
H6    H     H_    0.113487 0.597424 0.342044 0.115838
C7    C     C_R   0.885880 0.948565 0.822675 -0.049155
C8    C     C_R   0.114120 0.448564 0.177325 -0.049154
C9    C     C_R   0.593001 0.793827 0.736605 0.388091
C10   C     C_R   0.406999 0.293834 0.263394 0.388097
C11   C     C_R   0.629133 0.799886 0.802508 -0.114667
C12   C     C_R   0.370868 0.299901 0.197491 -0.114666
C13   C     C_R   0.687238 0.883895 0.810094 -0.059372
C14   C     C_R   0.312762 0.383906 0.189906 -0.059375
C15   C     C_R   0.716788 0.907654 0.750658 0.058594
C16   C     C_R   0.283212 0.407658 0.249342 0.058595
C17   C     C_R   0.680299 0.901760 0.682784 -0.094429
C18   C     C_R   0.319700 0.401759 0.317216 -0.094432
C19   C     C_R   0.781633 0.938121 0.756698 0.125302
C20   C     C_R   0.218367 0.438121 0.243302 0.125303
C21   C     C_R   0.806044 0.001147 0.697973 0.085985
C22   C     C_R   0.193956 0.501142 0.302028 0.085982
C23   C     C_R   0.769300 0.012619 0.633852 -0.165970
C24   C     C_R   0.230699 0.512610 0.366149 -0.165967
C25   C     C_R   0.708928 0.951638 0.624441 -0.020838
C26   C     C_R   0.291071 0.451630 0.375559 -0.020840
C27   C     C_R   0.823763 0.901160 0.818183 -0.133456
C28   C     C_R   0.176237 0.401162 0.181817 -0.133455
C29   C     C_R   0.907292 0.023139 0.764885 -0.164347
C30   C     C_R   0.092707 0.523134 0.235115 -0.164346
C31   C     C_R   0.616909 0.850407 0.676897 -0.176571
C32   C     C_R   0.383091 0.350408 0.323103 -0.176567
H7    H     H_    0.809214 0.837381 0.863077 0.114615
H8    H     H_    0.190787 0.337386 0.136922 0.114615
C33   C     C_3   0.775399 0.830390 0.310573 -0.115935
C34   C     C_3   0.224601 0.330389 0.689427 -0.115935
C35   C     C_3   0.794018 0.014258 0.277184 -0.340037
C36   C     C_3   0.205982 0.514258 0.722817 -0.340037
H9    H     H_    0.830797 0.110035 0.300143 0.135669
H10   H     H_    0.169203 0.610035 0.699857 0.135670
C37   C     C_1   0.874797 0.940863 0.120346 -0.171770
C38   C     C_1   0.125203 0.440863 0.879654 -0.171771
C39   C     C_1   0.621934 0.852541 0.375991 -0.105584
C40   C     C_1   0.378067 0.352541 0.624009 -0.105578
C41   C     C_3   0.773194 0.732632 0.239897 0.509718
C42   C     C_3   0.226806 0.232631 0.760103 0.509717
C43   C     C_3   0.790591 0.913528 0.206194 0.011031
C44   C     C_3   0.209409 0.413528 0.793807 0.011030
C45   C     C_3   0.704571 0.780156 0.220666 -0.241389
C46   C     C_3   0.295429 0.280156 0.779335 -0.241389
C47   C     C_3   0.707051 0.880060 0.291391 -0.020781
C48   C     C_3   0.292949 0.380060 0.708609 -0.020781
C49   C     C_3   0.722331 0.963956 0.187009 -0.178692
C50   C     C_3   0.277669 0.463955 0.812992 -0.178691
C51   C     C_3   0.725338 0.060707 0.258273 0.546302
C52   C     C_3   0.274662 0.560706 0.741727 0.546304
C53   C     C_1   0.836597 0.930122 0.158709 0.024947
C54   C     C_1   0.163403 0.430122 0.841291 0.024947
C55   C     C_1   0.659977 0.863377 0.337512 0.052555
C56   C     C_1   0.340023 0.363376 0.662489 0.052559
H11   H     H_    0.700166 0.021536 0.136551 0.158427
H12   H     H_    0.299834 0.521535 0.863450 0.158427
H13   H     H_    0.668572 0.682048 0.197506 0.170035
H14   H     H_    0.331428 0.182047 0.802494 0.170036
O11   O     O_R   0.056650 0.288730 0.942060 -0.534869
O12   O     O_R   0.943350 0.788730 0.057940 -0.534869
O13   O     O_R   0.058660 0.616870 0.085540 -0.530859
O14   O     O_R   0.941340 0.116870 0.914460 -0.530859
C57   C     C_R   0.072866 0.449144 0.110493 0.689341
C58   C     C_R   0.927134 0.949144 0.889507 0.689341
O15   O     O_R   0.063700 0.618520 0.944220 -0.532614
O16   O     O_R   0.936300 0.118520 0.055780 -0.532614
O17   O     O_R   0.948460 0.787610 0.915680 -0.539917
O18   O     O_R   0.051540 0.287610 0.084320 -0.539917
C59   C     C_R   0.079019 0.450110 0.924869 0.710153
C60   C     C_R   0.920981 0.950110 0.075131 0.710154
O19   O     O_3   0.962230 0.453430 0.990860 -0.371926
O20   O     O_3   0.037770 0.953430 0.009140 -0.371926
V3    V     V_3+5 0.007010 0.728750 0.001700 1.465767
V4    V     V_3+5 0.992990 0.228750 0.998300 1.465767
C61   C     C_2   0.806185 0.761347 0.379692 0.377192
H15   H     H_    0.855392 0.746313 0.389261 0.027274
O21   O     O_2   0.776492 0.723872 0.425645 -0.526920
C62   C     C_2   0.193816 0.261346 0.620309 0.377198
H16   H     H_    0.144608 0.246312 0.610739 0.027271
O22   O     O_2   0.223509 0.223872 0.574356 -0.526916
O23   O     O_3   0.697562 0.235102 0.263393 -0.549719
C63   C     C_3   0.714549 0.307637 0.330726 -0.140597
H17   H     H_    0.764105 0.339107 0.341103 0.151716
H18   H     H_    0.701901 0.213288 0.371262 0.158583
H19   H     H_    0.689772 0.439786 0.334481 0.165655
O24   O     O_3   0.302439 0.735101 0.736608 -0.549718
C64   C     C_3   0.285451 0.807636 0.669274 -0.140603
H20   H     H_    0.235895 0.839110 0.658898 0.151718
H21   H     H_    0.298098 0.713287 0.628738 0.158583
H22   H     H_    0.310229 0.939784 0.665518 0.165654
O25   O     O_3   0.794264 0.554229 0.225544 -0.526633
C65   C     C_3   0.855916 0.531981 0.255109 -0.239223
H23   H     H_    0.859169 0.486832 0.309973 0.115070
H24   H     H_    0.883967 0.658430 0.251664 0.110957
H25   H     H_    0.875877 0.420205 0.226614 0.167886
O26   O     O_3   0.205736 0.054228 0.774456 -0.526633
C66   C     C_3   0.144084 0.031981 0.744891 -0.239224
H26   H     H_    0.140831 0.986832 0.690028 0.115069
H27   H     H_    0.116033 0.158430 0.748336 0.110958
H28   H     H_    0.124123 0.920205 0.773386 0.167887
O27   O     O_3   0.534224 0.723117 0.729882 -0.559388
C67   C     C_3   0.493274 0.869465 0.736653 -0.260638
H29   H     H_    0.504944 0.942924 0.787170 0.123326
H30   H     H_    0.446811 0.810720 0.734676 0.191812
H31   H     H_    0.491497 0.970145 0.693260 0.141940
O28   O     O_3   0.465776 0.223120 0.270116 -0.559386
C68   C     C_3   0.506727 0.369467 0.263348 -0.260653
H32   H     H_    0.495045 0.442983 0.212845 0.123314
H33   H     H_    0.553186 0.310711 0.265297 0.191816
H34   H     H_    0.508522 0.470099 0.306759 0.141962
C69   C     C_2   0.708988 0.984246 0.876304 0.373914
H35   H     H_    0.697727 0.936824 0.925491 0.114174
O29   O     O_2   0.737281 0.129300 0.875942 -0.515108
C70   C     C_2   0.291012 0.484262 0.123697 0.373913
H36   H     H_    0.302274 0.436847 0.074510 0.114174
O30   O     O_2   0.262718 0.629313 0.124060 -0.515109
C71   C     C_2   0.604488 0.719002 0.862827 0.382785
H37   H     H_    0.555691 0.705442 0.861939 0.097672
O31   O     O_2   0.638463 0.656223 0.912635 -0.526062
C72   C     C_2   0.395514 0.219030 0.137170 0.382786
H38   H     H_    0.444312 0.205482 0.138059 0.097672
O32   O     O_2   0.361541 0.156251 0.087362 -0.526062
C73   C     C_2   0.680835 0.928430 0.551615 0.419807
H39   H     H_    0.658369 0.799570 0.535211 0.020335
O33   O     O_2   0.685688 0.049154 0.508864 -0.533790
C74   C     C_2   0.319163 0.428412 0.448386 0.419805
H40   H     H_    0.341632 0.299553 0.464788 0.020340
O34   O     O_2   0.314306 0.549123 0.491140 -0.533792

loop_
_geom_bond_atom_site_label_1
_geom_bond_atom_site_label_2
_ccdc_geom_bond_type
C20   C22   A    
C41   C43   S    
C67   H29   S    
C37   C53   T    
C48   C56   S    
C50   C52   S    
C9    O27   S    
C47   C55   S    
C64   H20   S    
O1    C3    A    
C68   H34   S    
C33   C47   S    
C2    O7    A    
C49   H11   S    
C4    C31   S    
O19   V4    S    
O18   V4    S    
C69   H35   S    
C21   C23   A    
C33   C61   S    
O5    C3    A    
C5    H5    S    
C34   C42   S    
C6    H6    S    
O12   V3    S    
C42   C46   S    
C2    C39   S    
C73   O33   D    
C71   O31   D    
H1    C29   S    
C45   C49   S    
C9    C11   A    
C63   H17   S    
C27   H7    S    
O25   C65   S    
O11   C59   A    
C28   H8    S    
C12   C72   S    
C65   H23   S    
C5    C21   A    
C6    C22   A    
O24   C64   S    
C66   H28   S    
C10   C32   A    
C44   C50   S    
C73   H39   S    
C39   C55   T    
C8    C57   S    
O11   V4    S    
C48   C52   S    
C13   C15   A    
C47   C51   S    
C37   C60   S    
C36   H10   S    
C17   C25   A    
C7    C29   A    
C10   O28   S    
C8    C30   A    
C41   O25   S    
C38   C59   S    
C22   C24   A    
O2    C4    A    
O6    V2    S    
C44   C54   S    
C57   O18   A    
C11   C13   A    
C23   C25   A    
C14   C70   S    
C24   C26   A    
C35   C43   S    
C40   C56   T    
O16   C60   A    
C34   C36   S    
C33   C35   S    
C41   C45   S    
C36   C52   S    
O14   C58   A    
C25   C73   S    
C13   C69   S    
C49   C51   S    
C67   H31   S    
O3    C1    A    
C43   C49   S    
C38   C54   T    
C7    C58   S    
C26   C74   S    
O15   V3    S    
C46   C50   S    
C45   C47   S    
C42   C44   S    
O4    V2    S    
C17   C31   A    
C51   O23   S    
C61   H15   S    
C34   C48   S    
C58   O17   A    
O6    C4    A    
C11   C71   S    
O20   V3    S    
C64   H21   S    
O1    V2    S    
O12   C60   A    
O17   V3    S    
C62   O22   D    
O2    V1    S    
C66   H26   S    
H2    C30   S    
C70   O30   D    
H3    C23   S    
C72   O32   D    
C61   O21   D    
C45   H13   S    
C35   H9    S    
O27   C67   S    
C74   O34   D    
C18   C26   A    
O4    C2    A    
C19   C27   A    
C68   H32   S    
C7    C27   A    
C18   C32   A    
O26   C66   S    
C69   O29   D    
C67   H30   S    
C16   C20   A    
C34   C62   S    
C5    C29   A    
C72   H38   S    
C68   H33   S    
C6    C30   A    
C52   O24   S    
O23   C63   S    
C42   O26   S    
C65   H25   S    
C46   H14   S    
C10   C12   A    
O28   C68   S    
O7    V1    S    
C1    O8    A    
C19   C21   A    
C3    C32   S    
O8    V2    S    
C71   H37   S    
C20   C28   A    
C12   C14   A    
C33   C41   S    
H4    C24   S    
C63   H18   S    
C36   C44   S    
O5    V1    S    
C15   C17   A    
C65   H24   S    
C1    C40   S    
C64   H22   S    
C16   C18   A    
O15   C59   A    
C62   H16   S    
O14   V4    S    
C15   C19   A    
C66   H27   S    
O13   V3    S    
C70   H36   S    
C8    C28   A    
C35   C51   S    
O13   C57   A    
C50   H12   S    
O9    V2    S    
C46   C48   S    
O10   V1    S    
O3    V1    S    
O16   V4    S    
C43   C53   S    
C9    C31   A    
C14   C16   A    
C74   H40   S    
C63   H19   S    
