data_mof_unit_66922.cif
_audit_creation_date              2013-03-05T15:57:28-0500
_audit_creation_method            fapswitch 2.2
_symmetry_space_group_name_H-M    P1
_symmetry_Int_Tables_number       1
_space_group_crystal_system       triclinic
_cell_length_a                    17.353886
_cell_length_b                    18.543058
_cell_length_c                    8.354939
_cell_angle_alpha                 90.0
_cell_angle_beta                  101.73868
_cell_angle_gamma                 89.500955
_cell_volume                      2632.2364396

loop_
_atom_site_label
_atom_site_type_symbol
_atom_site_description
_atom_site_fract_x
_atom_site_fract_y
_atom_site_fract_z
_atom_type_partial_charge
P1    P     P_3+3 0.834140 0.419320 0.003900 0.433391
P2    P     P_3+3 0.834140 0.580680 0.503900 0.447367
P3    P     P_3+3 0.334140 0.919320 0.003900 0.432732
P4    P     P_3+3 0.334140 0.080680 0.503900 0.447468
O1    O     O_2   0.841960 0.394640 0.833410 -0.400448
O2    O     O_2   0.841960 0.605360 0.333410 -0.349624
O3    O     O_2   0.341960 0.894640 0.833410 -0.400405
O4    O     O_2   0.341960 0.105360 0.333410 -0.351029
O5    O     O_3   0.907950 0.463080 0.102990 -0.391994
O6    O     O_3   0.907950 0.536920 0.602990 -0.409574
O7    O     O_3   0.407950 0.963080 0.102990 -0.392039
O8    O     O_3   0.407950 0.036920 0.602990 -0.408748
O9    O     O_3   0.972780 0.329600 0.629720 -0.364361
O10   O     O_3   0.972780 0.670400 0.129720 -0.362833
O11   O     O_3   0.472780 0.829600 0.629720 -0.363383
O12   O     O_3   0.472780 0.170400 0.129720 -0.354251
O13   O     O_2   0.833245 0.283669 0.672687 -0.388434
O14   O     O_2   0.828483 0.708975 0.162641 -0.372101
O15   O     O_2   0.333071 0.783907 0.672283 -0.388708
O16   O     O_2   0.329971 0.210616 0.164849 -0.372085
O17   O     O_3   0.756923 0.482109 0.980824 -0.595849
O18   O     O_3   0.759423 0.516691 0.476521 -0.600460
O19   O     O_3   0.256889 0.982061 0.980832 -0.598115
O20   O     O_3   0.259333 0.016715 0.476826 -0.600507
O21   O     O_3   0.931074 0.182116 0.654453 -0.503149
O22   O     O_3   0.920549 0.814607 0.173790 -0.510215
O23   O     O_3   0.430835 0.682284 0.654479 -0.502281
O24   O     O_3   0.423919 0.315015 0.174913 -0.499553
H1    H     H_    0.046139 0.179507 0.623922 0.102850
H2    H     H_    0.036846 0.814506 0.147610 0.117737
H3    H     H_    0.544938 0.680113 0.618168 0.101615
H4    H     H_    0.529976 0.319759 0.100835 0.101084
C1    C     C_3   0.992313 0.074240 0.590713 -1.048275
C2    C     C_3   0.991574 0.922868 0.167214 -1.011487
C3    C     C_3   0.492597 0.574235 0.593575 -1.045878
C4    C     C_3   0.491987 0.424947 0.166298 -1.003942
H5    H     H_    0.537150 0.551110 0.529521 0.227895
H6    H     H_    0.530328 0.455476 0.100559 0.227766
H7    H     H_    0.037678 0.051500 0.528211 0.226246
H8    H     H_    0.041566 0.948024 0.125315 0.227906
H9    H     H_    0.007099 0.059749 0.722618 0.277734
H10   H     H_    0.004167 0.924526 0.303021 0.285267
H11   H     H_    0.509175 0.561350 0.725881 0.276776
H12   H     H_    0.521813 0.419846 0.296558 0.288872
P5    P     P_3+3 0.165830 0.418670 0.685610 0.456233
P6    P     P_3+3 0.165830 0.581330 0.185610 0.458020
P7    P     P_3+3 0.665830 0.918670 0.685610 0.456557
P8    P     P_3+3 0.665830 0.081330 0.185610 0.458092
P9    P     P_3+3 0.095644 0.261383 0.103203 0.461920
P10   P     P_3+3 0.091272 0.739524 0.599957 0.453564
P11   P     P_3+3 0.595692 0.761398 0.102789 0.463425
P12   P     P_3+3 0.591685 0.239232 0.600290 0.458954
O25   O     O_2   0.157990 0.394030 0.856030 -0.368889
O26   O     O_2   0.157990 0.605970 0.356030 -0.367184
O27   O     O_2   0.657990 0.894030 0.856030 -0.370426
O28   O     O_2   0.657990 0.105970 0.356030 -0.365709
O29   O     O_3   0.027110 0.329490 0.059550 -0.382138
O30   O     O_3   0.027110 0.670510 0.559550 -0.381246
O31   O     O_3   0.527110 0.829490 0.059550 -0.382418
O32   O     O_3   0.527110 0.170510 0.559550 -0.380162
O33   O     O_2   0.153002 0.270744 0.985442 -0.357249
O34   O     O_2   0.145478 0.734024 0.474423 -0.370488
O35   O     O_2   0.652713 0.770638 0.984284 -0.356710
O36   O     O_2   0.646767 0.232767 0.476730 -0.365384
O37   O     O_3   0.247758 0.475185 0.722253 -0.576484
O38   O     O_3   0.247336 0.523233 0.224614 -0.575196
O39   O     O_3   0.747591 0.975404 0.721798 -0.575907
O40   O     O_3   0.747881 0.023956 0.224197 -0.576190
O41   O     O_3   0.043508 0.183127 0.034590 -0.522603
O42   O     O_3   0.033275 0.817144 0.542941 -0.527677
O43   O     O_3   0.543431 0.683088 0.034921 -0.522964
O44   O     O_3   0.534320 0.316754 0.539415 -0.524056
C5    C     C_3   0.968105 0.187000 0.072140 0.519192
C6    C     C_3   0.960186 0.808848 0.589335 0.536464
C7    C     C_3   0.468078 0.687066 0.072744 0.521947
C8    C     C_3   0.461435 0.310222 0.587288 0.553237
H13   H     H_    0.927099 0.214725 0.971042 0.150872
H14   H     H_    0.920816 0.776433 0.495146 0.140622
H15   H     H_    0.426964 0.714513 0.971327 0.150830
H16   H     H_    0.421605 0.276713 0.496281 0.139636
H17   H     H_    0.967552 0.216269 0.187758 0.007384
H18   H     H_    0.966382 0.781821 0.710086 -0.001992
H19   H     H_    0.467603 0.716652 0.188059 0.006597
H20   H     H_    0.467582 0.285380 0.710416 -0.016483
C9    C     C_3   0.938935 0.110964 0.090732 -1.096634
C10   C     C_3   0.921976 0.882591 0.601683 -1.060338
C11   C     C_3   0.438966 0.611089 0.092438 -1.104755
C12   C     C_3   0.424178 0.384758 0.592585 -1.064576
H21   H     H_    0.375077 0.612278 0.093126 0.254383
H22   H     H_    0.359262 0.380353 0.572977 0.244100
H23   H     H_    0.949508 0.076783 0.988158 0.283556
H24   H     H_    0.857008 0.877725 0.575934 0.244706
H25   H     H_    0.971182 0.086417 0.206612 0.264194
H26   H     H_    0.939188 0.921006 0.514372 0.281823
H27   H     H_    0.450076 0.576336 0.991481 0.284736
H28   H     H_    0.440285 0.420095 0.498143 0.287401
C13   C     C_3   0.225056 0.454536 0.267310 0.358503
C14   C     C_3   0.227376 0.543680 0.771680 0.365212
C15   C     C_3   0.726543 0.955298 0.268562 0.350633
C16   C     C_3   0.727368 0.043356 0.774457 0.366990
H29   H     H_    0.227095 0.453362 0.400297 0.101204
H30   H     H_    0.228632 0.542226 0.904404 0.100118
H31   H     H_    0.727113 0.955018 0.401029 0.105616
H32   H     H_    0.729284 0.040740 0.907257 0.102012
H33   H     H_    0.166320 0.437567 0.199687 0.138758
H34   H     H_    0.169054 0.563130 0.704481 0.130778
H35   H     H_    0.668610 0.937219 0.198787 0.137186
H36   H     H_    0.668737 0.062931 0.709194 0.128250
C17   C     C_3   0.283428 0.400282 0.226135 -0.881291
C18   C     C_3   0.288186 0.596908 0.738194 -0.874034
C19   C     C_3   0.786969 0.901836 0.232625 -0.870852
C20   C     C_3   0.787748 0.097304 0.742007 -0.877776
H37   H     H_    0.343039 0.416377 0.286093 0.269866
H38   H     H_    0.348016 0.574166 0.779617 0.274068
H39   H     H_    0.846405 0.921130 0.287404 0.274367
H40   H     H_    0.847590 0.073771 0.775995 0.275749
H41   H     H_    0.271834 0.345484 0.267913 0.237766
H42   H     H_    0.283198 0.648669 0.801880 0.223070
H43   H     H_    0.778059 0.847862 0.282529 0.234445
H44   H     H_    0.784731 0.147388 0.812663 0.220035
H45   H     H_    0.280474 0.400008 0.092709 0.269530
H46   H     H_    0.279481 0.606973 0.605229 0.269648
H47   H     H_    0.782562 0.897978 0.098987 0.268872
H48   H     H_    0.776640 0.110650 0.610433 0.270882
Ba1   Ba    Ba6+2 0.000000 0.447380 0.844850 1.535494
Ba2   Ba    Ba6+2 0.000000 0.552620 0.344850 1.537256
Ba3   Ba    Ba6+2 0.500000 0.947380 0.844850 1.536632
Ba4   Ba    Ba6+2 0.500000 0.052620 0.344850 1.540981
C21   C     C_3   0.772422 0.543477 0.896558 0.438185
C22   C     C_3   0.785052 0.450121 0.429305 0.402952
C23   C     C_3   0.272275 0.043488 0.896580 0.436789
C24   C     C_3   0.284328 0.950321 0.427234 0.407368
H49   H     H_    0.811777 0.532237 0.810600 0.121942
H50   H     H_    0.816811 0.456708 0.328168 0.108817
H51   H     H_    0.311770 0.032366 0.810834 0.122269
H52   H     H_    0.317320 0.957299 0.328185 0.110001
H53   H     H_    0.799796 0.584531 0.986300 0.118827
H54   H     H_    0.824166 0.423648 0.534509 0.155236
H55   H     H_    0.299451 0.084646 0.986319 0.117717
H56   H     H_    0.322134 0.922605 0.532347 0.152650
C25   C     C_3   0.693922 0.571853 0.800741 -1.072826
C26   C     C_3   0.712361 0.403901 0.372795 -1.020427
C27   C     C_3   0.193714 0.071646 0.800460 -1.072473
C28   C     C_3   0.211044 0.905408 0.365507 -1.033861
H57   H     H_    0.674069 0.537135 0.692875 0.270161
H58   H     H_    0.691128 0.410007 0.239725 0.246154
H59   H     H_    0.174016 0.036834 0.692698 0.270920
H60   H     H_    0.190578 0.913613 0.232614 0.246722
H61   H     H_    0.698383 0.628530 0.763459 0.244151
H62   H     H_    0.725669 0.346457 0.401646 0.271585
H63   H     H_    0.198094 0.128309 0.762957 0.243213
H64   H     H_    0.223481 0.847476 0.389965 0.270424
H65   H     H_    0.647919 0.569637 0.874488 0.283222
H66   H     H_    0.663971 0.420874 0.433397 0.274486
H67   H     H_    0.147590 0.069355 0.873950 0.284019
H68   H     H_    0.162338 0.921654 0.426179 0.279516
O45   O     O_3   0.092100 0.536880 0.086720 -0.403457
O46   O     O_3   0.092100 0.463120 0.586720 -0.401080
O47   O     O_3   0.592100 0.036880 0.086720 -0.404131
O48   O     O_3   0.592100 0.963120 0.586720 -0.400093
P13   P     P_3+3 0.894294 0.732704 0.076102 0.441638
P14   P     P_3+3 0.896858 0.265938 0.573426 0.434502
P15   P     P_3+3 0.395381 0.233675 0.076305 0.446548
P16   P     P_3+3 0.396723 0.766079 0.573217 0.434835
C29   C     C_3   0.987827 0.155723 0.571042 0.462028
C30   C     C_3   0.980465 0.845379 0.107216 0.463128
C31   C     C_3   0.486709 0.655413 0.569505 0.455928
C32   C     C_3   0.473982 0.350716 0.090688 0.435451
H69   H     H_    0.972288 0.167309 0.438101 0.013567
H70   H     H_    0.962742 0.846742 0.971588 0.008364
H71   H     H_    0.469437 0.665521 0.436345 0.016821
H72   H     H_    0.444687 0.358421 0.960873 0.027895
H73   H     H_    0.434683 0.549648 0.542619 0.280474
H74   H     H_    0.436712 0.456503 0.156939 0.272346
H75   H     H_    0.934334 0.050621 0.535018 0.278805
H76   H     H_    0.937318 0.954910 0.118132 0.271803
H77   H     H_    0.470671 0.587070 0.208982 0.263113
H78   H     H_    0.444806 0.411231 0.711908 0.254813
H79   H     H_    0.875012 0.112222 0.092799 0.253138
H80   H     H_    0.940155 0.905843 0.725563 0.256036
C33   C     C_R   0.137991 0.677239 0.914006 -0.525030
C34   C     C_R   0.139006 0.324645 0.415384 -0.544734
C35   C     C_R   0.637560 0.177370 0.914822 -0.520020
C36   C     C_R   0.639576 0.824963 0.414561 -0.545729
C37   C     C_R   0.860934 0.321125 0.255774 -0.496894
C38   C     C_R   0.859621 0.676940 0.760902 -0.508949
C39   C     C_R   0.360909 0.821239 0.255587 -0.497979
C40   C     C_R   0.359979 0.177230 0.760947 -0.501059
C41   C     C_R   0.789935 0.213481 0.291590 -0.185808
C42   C     C_R   0.790458 0.787321 0.793842 -0.169774
C43   C     C_R   0.289836 0.713662 0.291254 -0.186759
C44   C     C_R   0.290830 0.287634 0.793575 -0.176560
C45   C     C_R   0.847137 0.264653 0.354098 0.171088
C46   C     C_R   0.846900 0.734988 0.857035 0.183597
C47   C     C_R   0.347013 0.764827 0.353896 0.170527
C48   C     C_R   0.347382 0.235415 0.857022 0.170869
C49   C     C_R   0.812036 0.334599 0.103851 0.293929
C50   C     C_R   0.811443 0.664802 0.608086 0.283545
C51   C     C_R   0.312157 0.834618 0.103472 0.297391
C52   C     C_R   0.311572 0.164877 0.608281 0.282549
C53   C     C_R   0.748976 0.285359 0.038800 -0.088485
C54   C     C_R   0.748674 0.715271 0.544758 -0.129112
C55   C     C_R   0.249243 0.785355 0.037972 -0.090803
C56   C     C_R   0.248691 0.215266 0.545008 -0.128396
C57   C     C_R   0.241047 0.721353 0.133731 -0.079344
C58   C     C_R   0.241456 0.279773 0.637538 -0.081372
C59   C     C_R   0.740905 0.221314 0.134351 -0.077580
C60   C     C_R   0.741317 0.779682 0.637506 -0.087284
C61   C     C_R   0.182618 0.667976 0.072530 0.268522
C62   C     C_R   0.182766 0.333073 0.574488 0.284922
C63   C     C_R   0.682333 0.168058 0.073151 0.271858
C64   C     C_R   0.682886 0.833157 0.574164 0.284531
C65   C     C_R   0.147087 0.736893 0.816458 0.173176
C66   C     C_R   0.147945 0.263925 0.321527 0.169246
C67   C     C_R   0.646653 0.237016 0.817419 0.169416
C68   C     C_R   0.648424 0.764153 0.320804 0.173452
C69   C     C_R   0.195822 0.794721 0.881459 0.089483
C70   C     C_R   0.192466 0.204617 0.395293 0.117186
C71   C     C_R   0.695274 0.294812 0.882803 0.091458
C72   C     C_R   0.692625 0.704712 0.394899 0.118511
H81   H     H_    0.283483 0.668616 0.368383 0.175313
H82   H     H_    0.285430 0.333524 0.869009 0.168890
H83   H     H_    0.783707 0.168365 0.368698 0.175811
H84   H     H_    0.785048 0.833135 0.869590 0.170568
H85   H     H_    0.096044 0.636237 0.863713 0.174359
H86   H     H_    0.097969 0.366580 0.362473 0.176535
H87   H     H_    0.595624 0.136371 0.864473 0.172825
H88   H     H_    0.598789 0.867043 0.361403 0.176713
H89   H     H_    0.907292 0.358569 0.304603 0.163382
H90   H     H_    0.904865 0.637929 0.811101 0.167825
H91   H     H_    0.407213 0.858712 0.304563 0.163448
H92   H     H_    0.405289 0.138272 0.811076 0.166737
C73   C     C_3   0.672227 0.366777 0.794389 -0.168657
C74   C     C_3   0.607079 0.404649 0.857969 -0.946482
H93   H     H_    0.560071 0.365965 0.863163 0.233827
H94   H     H_    0.629799 0.425861 0.981453 0.277704
H95   H     H_    0.582688 0.449718 0.775621 0.273150
H96   H     H_    0.714869 0.404740 0.774832 0.231402
H97   H     H_    0.654323 0.359984 0.663067 0.193479
C75   C     C_3   0.652918 0.632736 0.352093 -0.354273
C76   C     C_3   0.668468 0.597220 0.195393 -0.544233
H98   H     H_    0.614515 0.569324 0.132109 0.210873
H99   H     H_    0.686958 0.637312 0.113117 0.257944
H100  H     H_    0.713996 0.555287 0.214907 0.262281
H101  H     H_    0.661627 0.596741 0.457598 0.207208
H102  H     H_    0.588657 0.641795 0.334399 0.142277
C77   C     C_3   0.173328 0.866476 0.790730 -0.166972
C78   C     C_3   0.106870 0.904360 0.849668 -0.943609
H103  H     H_    0.061993 0.864572 0.860769 0.240618
H104  H     H_    0.128659 0.929088 0.969846 0.275992
H105  H     H_    0.080473 0.946727 0.761400 0.276145
H106  H     H_    0.215482 0.905214 0.773063 0.232187
H107  H     H_    0.157270 0.858866 0.658996 0.194451
C79   C     C_3   0.152943 0.132597 0.352049 -0.352578
C80   C     C_3   0.168654 0.097302 0.195250 -0.547550
H108  H     H_    0.114758 0.069381 0.131686 0.211201
H109  H     H_    0.187190 0.137497 0.113235 0.257950
H110  H     H_    0.214235 0.055441 0.214763 0.262329
H111  H     H_    0.161561 0.096577 0.457463 0.206939
H112  H     H_    0.088637 0.141471 0.333994 0.142665

loop_
_geom_bond_atom_site_label_1
_geom_bond_atom_site_label_2
_geom_bond_distance
_ccdc_geom_bond_type
P11   C68   1.865593 S    
C24   C28   1.525953 S    
C15   H31   1.104800 S    
C12   H28   1.105910 S    
P1    O17   1.748164 S    
C14   C18   1.518015 S    
O9    Ba1   2.810008 S    
Ba3   O47   2.850346 S    
C71   C73   1.535204 S    
P3    O19   1.748029 S    
O3    Ba3   2.903017 S    
C2    H10   1.111472 S    
C16   H32   1.104305 S    
C28   H60   1.104848 S    
O24   P15   1.745263 S    
C7    H19   1.110148 S    
C18   H42   1.108657 S    
C80   H109  1.105622 S    
C9    H23   1.109862 S    
P16   C47   1.860001 S    
C25   H61   1.103980 S    
O9    P14   1.767947 S    
O8    Ba3   2.834112 S    
C22   H50   1.106051 S    
C77   H106  1.061133 S    
C4    H74   1.108302 S    
O26   Ba2   2.906468 S    
C1    H7    1.109853 S    
P11   O43   1.751110 S    
P1    O1    1.527887 D    
C44   C48   1.397691 A    
O38   C13   1.401470 S    
C33   C61   1.401348 A    
C3    H5    1.109339 S    
P1    Ba1   3.450173 S    
O37   C14   1.400147 S    
C20   H48   1.104443 S    
P3    O3    1.527887 D    
O29   Ba1   2.802953 S    
P4    O20   1.746616 S    
O14   P13   1.538006 D    
P3    Ba3   3.450173 S    
C24   H52   1.106093 S    
C36   C68   1.398084 A    
C21   C25   1.522274 S    
Ba1   O45   2.850346 S    
C40   C52   1.397301 A    
O2    Ba2   2.886877 S    
C35   C63   1.401015 A    
C4    C32   1.522690 S    
P9    O29   1.714588 S    
C19   H43   1.108316 S    
C76   H98   1.109411 S    
C43   C57   1.419087 A    
C54   C72   1.435223 A    
P4    O4    1.528596 D    
C26   H58   1.103297 S    
C75   C76   1.536640 S    
C10   H26   1.105044 S    
C33   C65   1.402907 A    
C9    H25   1.110323 S    
O4    Ba4   2.886877 S    
P5    Ba1   3.444765 S    
P6    Ba2   3.452504 S    
C11   H27   1.108113 S    
P2    O18   1.745740 S    
P3    C51   1.855831 S    
C8    H16   1.111590 S    
O41   C5    1.407567 S    
C14   H34   1.109993 S    
C57   C61   1.440738 A    
P4    O8    1.592147 S    
O6    Ba1   2.834112 S    
C3    H11   1.109587 S    
C73   C74   1.511326 S    
C43   H81   1.075006 S    
P4    C52   1.865431 S    
C78   H105  1.107780 S    
C9    H79   1.112998 S    
C39   H91   1.082548 S    
C27   H63   1.104099 S    
C80   H110  1.091624 S    
P5    O25   1.527914 D    
P9    O41   1.750650 S    
P7    C64   1.890215 S    
O18   C22   1.392495 S    
C59   C63   1.440774 A    
C40   H92   1.082430 S    
C8    H20   1.111904 S    
C56   C58   1.442602 A    
P2    O2    1.528596 D    
C74   H94   1.100802 S    
C15   H35   1.109222 S    
C6    H18   1.111515 S    
C1    H75   1.112609 S    
C55   C57   1.455352 A    
C5    H17   1.109714 S    
C60   C64   1.433754 A    
C21   H53   1.108490 S    
C78   H104  1.099973 S    
C36   C64   1.400109 A    
C42   C46   1.397450 A    
P7    O48   1.597066 S    
Ba2   O46   2.834090 S    
O12   P15   1.763119 S    
C29   H69   1.108913 S    
P8    O47   1.608528 S    
C1    C29   1.519456 S    
C16   H36   1.110018 S    
P9    O33   1.546105 D    
C55   C69   1.450340 A    
C19   H47   1.105883 S    
P10   O30   1.692140 S    
C68   C72   1.406603 A    
O11   P16   1.768020 S    
O32   Ba4   2.809337 S    
O5    Ba2   2.850368 S    
P1    O5    1.603478 S    
C58   C62   1.433809 A    
H2    C30   1.120195 S    
C66   C70   1.406291 A    
C35   H87   1.081503 S    
C20   H44   1.107000 S    
C23   H55   1.108799 S    
C65   C69   1.410314 A    
Ba1   O46   2.949846 S    
C34   H86   1.081424 S    
C31   H71   1.107272 S    
P10   C65   1.870501 S    
C33   H85   1.081533 S    
C14   H30   1.105002 S    
P6    O45   1.608528 S    
P9    C66   1.865574 S    
C75   H102  1.106053 S    
P12   C67   1.870235 S    
C26   H66   1.108605 S    
C39   C51   1.396912 A    
C76   H99   1.105488 S    
C74   H95   1.107390 S    
C3    H73   1.110461 S    
C28   H68   1.109961 S    
C27   H59   1.105787 S    
C73   H96   1.062133 S    
C2    H76   1.113939 S    
O42   C6    1.409310 S    
C79   C80   1.536594 S    
P12   O44   1.756464 S    
C67   C71   1.409672 A    
O23   P16   1.745318 S    
C11   H77   1.107678 S    
C13   C17   1.510183 S    
O20   C24   1.392612 S    
C3    C31   1.518462 S    
P8    C63   1.915373 S    
C79   H112  1.106122 S    
O21   P14   1.745594 S    
C52   C56   1.445967 A    
C15   C19   1.510799 S    
P6    O26   1.527205 D    
C35   C67   1.402036 A    
C10   H80   1.107330 S    
C53   C59   1.454561 A    
O19   C23   1.394982 S    
O44   C8    1.408179 S    
P7    O39   1.750098 S    
C6    C10   1.527159 S    
P7    Ba3   3.444765 S    
O12   Ba4   2.803605 S    
O17   C21   1.394747 S    
O25   Ba1   2.890168 S    
O39   C16   1.399839 S    
C21   H49   1.105783 S    
C50   C54   1.445708 A    
P2    Ba2   3.442603 S    
C42   C60   1.415023 A    
H3    C31   1.112240 S    
O30   Ba2   2.809337 S    
C1    H9    1.111897 S    
H4    C32   1.112517 S    
P12   O36   1.547040 D    
Ba1   Ba2   4.610801 S    
P10   O34   1.547616 D    
C2    H8    1.106071 S    
C4    H12   1.109608 S    
P11   O31   1.714685 S    
C74   H93   1.098401 S    
C36   H88   1.081469 S    
O1    Ba1   2.903017 S    
C80   H108  1.109596 S    
C22   H54   1.107124 S    
C77   H107  1.088499 S    
C18   H38   1.105363 S    
C20   H40   1.105275 S    
C23   C27   1.522608 S    
C78   H103  1.094928 S    
Ba4   O48   2.834090 S    
P7    O27   1.527914 D    
C5    C9    1.520778 S    
Ba2   O45   2.947091 S    
C7    C11   1.520987 S    
P8    O28   1.527205 D    
P11   O35   1.546102 D    
C8    C12   1.525223 S    
P15   C48   1.852035 S    
O22   C30   1.400647 S    
P4    Ba4   3.442603 S    
C12   H22   1.108669 S    
C39   C47   1.382754 A    
P2    C50   1.864101 S    
C53   C71   1.449434 A    
C44   C58   1.415143 A    
C38   C46   1.385808 A    
P1    C49   1.858313 S    
P5    O46   1.597066 S    
C69   C77   1.538817 S    
C37   C45   1.383162 A    
C70   C79   1.516442 S    
C51   C55   1.449216 A    
O27   Ba3   2.890168 S    
C19   H39   1.102590 S    
C77   C78   1.510962 S    
C41   H83   1.075413 S    
P6    O38   1.747383 S    
C16   C20   1.518556 S    
C38   H90   1.082479 S    
C17   H37   1.097588 S    
C24   H56   1.107024 S    
P6    C61   1.918090 S    
C37   H89   1.082544 S    
O22   P13   1.743853 S    
C23   H51   1.105838 S    
P5    C62   1.889584 S    
O10   Ba2   2.803605 S    
C49   C53   1.449836 A    
P8    O40   1.746462 S    
C27   H67   1.104575 S    
C17   H41   1.107673 S    
C76   H100  1.091916 S    
O21   C29   1.402164 S    
C26   H62   1.104132 S    
O10   P13   1.764909 S    
C4    H6    1.104589 S    
O7    Ba4   2.850368 S    
P10   O42   1.758189 S    
O40   C15   1.399791 S    
C13   H33   1.108363 S    
C28   H64   1.104707 S    
C10   H24   1.108443 S    
C18   H46   1.105892 S    
P5    O37   1.749924 S    
O16   P15   1.539060 D    
C25   H65   1.104253 S    
C75   H101  1.090597 S    
C7    H15   1.110748 S    
P8    Ba4   3.452504 S    
C41   C59   1.419134 A    
C34   C62   1.399824 A    
P14   C45   1.860109 S    
C25   H57   1.105822 S    
C30   H70   1.112363 S    
P13   C46   1.847991 S    
H1    C29   1.113367 S    
O15   P16   1.542776 D    
O28   Ba4   2.906468 S    
C38   C50   1.395973 A    
C73   H97   1.085451 S    
C22   C26   1.524885 S    
C43   C47   1.401314 A    
P3    O7    1.603478 S    
O13   P14   1.542974 D    
O24   C32   1.395352 S    
C44   H82   1.073650 S    
C41   C45   1.401430 A    
C42   H84   1.074161 S    
C32   H72   1.108870 S    
C79   H111  1.090337 S    
C40   C48   1.386890 A    
P12   O32   1.692704 S    
C6    H14   1.111637 S    
C56   C70   1.436106 A    
C34   C66   1.397569 A    
C11   H21   1.109924 S    
C5    H13   1.110500 S    
C72   C75   1.516499 S    
C54   C60   1.442535 A    
O11   Ba3   2.810008 S    
C17   H45   1.105495 S    
C37   C49   1.397022 A    
C2    C30   1.522699 S    
O31   Ba3   2.802953 S    
C12   H78   1.104920 S    
C13   H29   1.104649 S    
Ba3   Ba4   4.610801 S    
Ba4   O47   2.947091 S    
O23   C31   1.401502 S    
Ba3   O48   2.949846 S    
O43   C7    1.407748 S    
P2    O6    1.592147 S    
