data_mof_unit_55709.cif
_audit_creation_date              2012-12-10T17:56:45-0500
_audit_creation_method            fapswitch 2.2
_symmetry_space_group_name_H-M    P1
_symmetry_Int_Tables_number       1
_space_group_crystal_system       triclinic
_cell_length_a                    10.811736
_cell_length_b                    9.543643
_cell_length_c                    10.762459
_cell_angle_alpha                 90.003453
_cell_angle_beta                  90.406656
_cell_angle_gamma                 89.903773
_cell_volume                      1110.47702091

loop_
_atom_site_label
_atom_site_type_symbol
_atom_type_description
_atom_site_fract_x
_atom_site_fract_y
_atom_site_fract_z
_atom_type_partial_charge
C1    C     C_R   0.262309 0.500238 0.497098 0.787030
C2    C     C_R   0.737695 0.500091 0.497187 0.863868
C3    C     C_R   0.934517 0.610188 0.430726 0.110416
C4    C     C_R   0.064264 0.610233 0.430696 0.108106
C5    C     C_R   0.423434 0.074305 0.421574 0.236805
C6    C     C_R   0.576306 0.073938 0.578647 0.242062
C7    C     C_R   0.424002 0.925363 0.421790 -0.079727
C8    C     C_R   0.575897 0.925020 0.578276 -0.077633
C9    C     C_R   0.499655 0.499968 0.262729 0.858464
C10   C     C_R   0.499381 0.499990 0.737223 0.852475
C11   C     C_R   0.268022 0.493200 0.128054 -0.141697
C12   C     C_R   0.267733 0.494732 0.868870 -0.143839
C13   C     C_R   0.156290 0.490849 0.062452 -0.149573
C14   C     C_R   0.156143 0.491684 0.933130 -0.138641
C15   C     C_R   0.382047 0.497134 0.933701 0.035202
C16   C     C_R   0.382173 0.496692 0.064673 0.032590
C17   C     C_R   0.496457 0.499619 0.128872 -0.122935
C18   C     C_R   0.496251 0.499748 0.870972 -0.120686
C19   C     C_R   0.609429 0.501179 0.065643 0.095903
C20   C     C_R   0.609322 0.501046 0.935547 0.092591
C21   C     C_R   0.064476 0.391693 0.548410 -0.256161
C22   C     C_R   0.936821 0.391642 0.548402 -0.241997
C23   C     C_R   0.871553 0.500956 0.491570 -0.040960
C24   C     C_R   0.128448 0.501184 0.491657 -0.036338
Cu1   Cu    Cu3+1 0.500000 0.640660 0.500000 0.972509
Cu2   Cu    Cu3+1 0.500000 0.359340 0.500000 0.988464
H1    H     H_    0.264161 0.492043 0.228383 0.131457
H2    H     H_    0.263594 0.495092 0.768446 0.112379
H3    H     H_    0.069567 0.488372 0.112164 0.128928
H4    H     H_    0.069298 0.489812 0.882376 0.132265
H5    H     H_    0.113389 0.307537 0.595335 0.164737
H6    H     H_    0.889030 0.307629 0.595475 0.167428
H7    H     H_    0.363399 0.868848 0.359091 0.150965
H8    H     H_    0.636663 0.868213 0.640824 0.135146
N1    N     N_R   0.500000 0.852070 0.500000 -0.172354
N2    N     N_R   0.500000 0.147940 0.500000 -0.146778
O1    O     O_R   0.319640 0.618740 0.499990 -0.560654
O2    O     O_R   0.680360 0.618740 0.500010 -0.555521
O3    O     O_R   0.319620 0.381170 0.499990 -0.577734
O4    O     O_R   0.680380 0.381170 0.500010 -0.568315
O5    O     O_R   0.500000 0.618810 0.319650 -0.576379
O6    O     O_R   0.500000 0.618810 0.680350 -0.588094
O7    O     O_R   0.499970 0.381240 0.319640 -0.558613
O8    O     O_R   0.500030 0.381240 0.680360 -0.558391
N3    N     N_3   0.723447 0.502449 0.134984 -0.599947
H9    H     H_    0.774727 0.413453 0.111688 0.213379
H10   H     H_    0.773753 0.591347 0.110037 0.212644
N4    N     N_3   0.723200 0.501868 0.867478 -0.608811
H11   H     H_    0.774793 0.413282 0.892050 0.214969
H12   H     H_    0.773398 0.591385 0.891720 0.210910
N5    N     N_3   0.866417 0.718497 0.367565 -0.567933
H13   H     H_    0.891347 0.719063 0.273978 0.205534
H14   H     H_    0.889601 0.815151 0.406897 0.213441
N6    N     N_3   0.131132 0.718143 0.366969 -0.602836
H15   H     H_    0.106089 0.717008 0.273029 0.206223
H16   H     H_    0.107437 0.815281 0.404889 0.211972
N7    N     N_3   0.342117 0.147886 0.339043 -0.529089
H17   H     H_    0.362367 0.116895 0.248251 0.197844
H18   H     H_    0.251574 0.116720 0.358202 0.189870
N8    N     N_3   0.656925 0.147041 0.661936 -0.528272
H19   H     H_    0.634426 0.117635 0.752561 0.196180
H20   H     H_    0.747284 0.113270 0.645125 0.177149

loop_
_geom_bond_atom_site_label_1
_geom_bond_atom_site_label_2
_ccdc_geom_bond_type
Cu1   O6    S    
C15   C18   A    
C19   N3    S    
C2    O4    A    
C5    N7    S    
Cu1   O2    S    
C10   O6    A    
C21   H5    S    
C11   C16   A    
C2    O2    A    
C9    O5    A    
C19   C20   A    
C12   C15   A    
C11   H1    S    
Cu1   O1    S    
C6    N2    A    
N4    H12   S    
Cu2   O8    S    
C8    H8    S    
C21   C22   A    
C7    H7    S    
Cu2   O4    S    
N7    H17   S    
C20   N4    S    
C22   H6    S    
C14   H4    S    
C7    N1    A    
C13   H3    S    
N4    H11   S    
C17   C19   A    
C10   C18   S    
Cu2   O7    S    
C18   C20   A    
N3    H10   S    
C4    C24   A    
N6    H16   S    
Cu2   O3    S    
N7    H18   S    
Cu1   N1    S    
C9    O7    A    
C15   C16   A    
C1    O3    A    
C10   O8    A    
N5    H13   S    
C5    N2    A    
C6    N8    S    
C11   C13   A    
C12   H2    S    
C1    C24   S    
N8    H20   S    
Cu1   O5    S    
C21   C24   A    
C9    C17   S    
C2    C23   S    
C5    C7    A    
C3    N5    S    
N6    H15   S    
N8    H19   S    
C6    C8    A    
C13   C14   A    
C4    N6    S    
Cu1   Cu2   S    
N3    H9    S    
C3    C23   A    
C22   C23   A    
C3    C4    A    
Cu2   N2    S    
C16   C17   A    
C12   C14   A    
C1    O1    A    
N5    H14   S    
C8    N1    A    
