data_mof_unit_29318.cif
_audit_creation_date              2012-12-10T19:00:43-0500
_audit_creation_method            fapswitch 2.2
_symmetry_space_group_name_H-M    P1
_symmetry_Int_Tables_number       1
_space_group_crystal_system       triclinic
_cell_length_a                    15.031398
_cell_length_b                    10.818472
_cell_length_c                    9.559593
_cell_angle_alpha                 90.118362
_cell_angle_beta                  89.795867
_cell_angle_gamma                 89.898233
_cell_volume                      1554.53436925

loop_
_atom_site_label
_atom_site_type_symbol
_atom_type_description
_atom_site_fract_x
_atom_site_fract_y
_atom_site_fract_z
_atom_type_partial_charge
C1    C     C_R   0.498293 0.262394 0.499857 0.792876
C2    C     C_R   0.908126 0.599036 0.426238 0.101879
C3    C     C_R   0.949461 0.319249 0.644543 -0.226618
C4    C     C_R   0.041992 0.315076 0.644827 -0.182608
C5    C     C_R   0.091662 0.404711 0.572575 0.118825
C6    C     C_R   0.046709 0.499201 0.498543 0.020632
C7    C     C_R   0.095181 0.589415 0.424337 0.114467
C8    C     C_R   0.050570 0.682434 0.351167 -0.214756
C9    C     C_R   0.958059 0.687440 0.352136 -0.197548
C10   C     C_R   0.185144 0.402306 0.573193 0.083135
C11   C     C_R   0.232470 0.494752 0.500400 -0.103208
C12   C     C_R   0.329002 0.497285 0.500234 0.811538
C13   C     C_R   0.187673 0.585907 0.425037 -0.280776
C14   C     C_R   0.489320 0.064030 0.625264 0.128111
C15   C     C_R   0.489421 0.129335 0.499586 -0.103568
C16   C     C_R   0.477146 0.064250 0.373691 -0.216968
C17   C     C_R   0.477413 0.935372 0.373819 -0.221741
C18   C     C_R   0.489866 0.870851 0.499865 -0.099483
C19   C     C_R   0.489541 0.936824 0.625444 0.139032
C20   C     C_3   0.552197 0.930913 0.746196 -0.482876
C21   C     C_3   0.551861 0.071223 0.746032 -0.457907
C22   C     C_R   0.577847 0.509174 0.073159 0.256673
C23   C     C_R   0.498521 0.737662 0.500032 0.786503
C24   C     C_R   0.423957 0.480103 0.074513 -0.087208
C25   C     C_R   0.423940 0.480386 0.926235 -0.083971
C26   C     C_R   0.577866 0.508930 0.925893 0.260279
C27   C     C_3   0.642970 0.612545 0.919741 -0.504827
C28   C     C_3   0.642822 0.613028 0.078513 -0.484221
C29   C     C_R   0.670905 0.503840 0.499851 0.803957
C30   C     C_R   0.814410 0.604379 0.429792 0.093620
C31   C     C_R   0.767321 0.509383 0.499839 -0.093981
C32   C     C_R   0.812432 0.416457 0.571939 -0.287902
C33   C     C_R   0.904810 0.412963 0.572381 0.115040
C34   C     C_R   0.953122 0.503602 0.498740 0.026564
Cu1   Cu    Cu3+1 0.500000 0.499980 0.640670 0.935164
Cu2   Cu    Cu3+1 0.500000 0.500020 0.359330 0.936894
H1    H     H_    0.472109 0.886998 0.274891 0.166422
H2    H     H_    0.520354 0.890845 0.840895 0.199724
H3    H     H_    0.617770 0.890253 0.717307 0.192118
H4    H     H_    0.519797 0.111905 0.840497 0.200119
H5    H     H_    0.617220 0.112139 0.717165 0.193846
H6    H     H_    0.361897 0.465151 0.128997 0.151965
H7    H     H_    0.361859 0.466283 0.872425 0.141648
H8    H     H_    0.707745 0.583162 0.873951 0.205176
H9    H     H_    0.614169 0.697658 0.873531 0.209608
H10   H     H_    0.707584 0.583805 0.123494 0.223263
H11   H     H_    0.775028 0.345468 0.626477 0.145171
H12   H     H_    0.613913 0.698598 0.124785 0.212376
H13   H     H_    0.912722 0.249083 0.701133 0.144887
H14   H     H_    0.074247 0.241539 0.702325 0.178683
H15   H     H_    0.225288 0.655621 0.368833 0.149129
H16   H     H_    0.087330 0.751867 0.293463 0.145645
H17   H     H_    0.926135 0.760714 0.293833 0.171063
H18   H     H_    0.471680 0.112177 0.274723 0.167488
N1    N     N_R   0.500570 0.500930 0.147930 -0.187426
N2    N     N_R   0.500570 0.500890 0.852020 -0.185384
O1    O     O_R   0.500000 0.319640 0.618810 -0.579589
O2    O     O_R   0.500010 0.319680 0.381230 -0.581027
O3    O     O_R   0.370250 0.499950 0.618800 -0.592674
O4    O     O_R   0.370260 0.499990 0.381220 -0.589950
O5    O     O_R   0.499990 0.680320 0.618770 -0.572770
O6    O     O_R   0.500000 0.680360 0.381190 -0.588842
O7    O     O_R   0.629740 0.500010 0.618780 -0.583754
O8    O     O_R   0.629750 0.500050 0.381200 -0.576616
N3    N     N_3   0.769495 0.708538 0.367198 -0.614189
H19   H     H_    0.700650 0.704386 0.378960 0.221669
H20   H     H_    0.788644 0.787577 0.422488 0.207280
N4    N     N_3   0.230985 0.303800 0.643425 -0.613611
H21   H     H_    0.267944 0.340915 0.725560 0.229154
H22   H     H_    0.274409 0.261009 0.572568 0.214381

loop_
_geom_bond_atom_site_label_1
_geom_bond_atom_site_label_2
_ccdc_geom_bond_type
Cu1   N2    S    
C11   C12   S    
C29   O7    A    
C22   N1    A    
C1    C15   S    
C1    O1    A    
C20   H2    S    
C8    H16   S    
Cu2   O2    S    
C19   C20   S    
C25   N2    A    
C23   O5    A    
Cu1   O1    S    
C31   C32   A    
C32   C33   A    
C27   H9    S    
C16   H18   S    
C17   H1    S    
C17   C18   A    
C3    H13   S    
C29   O8    A    
C5    C10   A    
Cu1   O5    S    
Cu2   N1    S    
C22   C28   S    
C1    O2    A    
C24   C25   A    
C24   N1    A    
C4    C5    A    
C11   C13   A    
C28   H10   S    
C26   C27   S    
C6    C7    A    
C21   H4    S    
C21   H5    S    
C5    C6    A    
C14   C19   A    
C14   C21   S    
Cu1   O3    S    
C25   H7    S    
C33   C34   A    
C10   N4    S    
C13   H15   S    
C30   C31   A    
C32   H11   S    
Cu2   O6    S    
C30   N3    S    
C9    H17   S    
C10   C11   A    
C3    C33   A    
C18   C23   S    
C12   O4    A    
C6    C34   A    
C7    C13   A    
C2    C9    A    
C24   H6    S    
C20   C21   S    
C29   C31   S    
N3    H19   S    
C22   C26   A    
N4    H22   S    
C27   C28   S    
C20   H3    S    
C7    C8    A    
C14   C15   A    
C18   C19   A    
C2    C30   A    
Cu1   O7    S    
N3    H20   S    
C2    C34   A    
Cu2   O8    S    
C12   O3    A    
C27   H8    S    
N4    H21   S    
C23   O6    A    
C28   H12   S    
C3    C4    A    
C15   C16   A    
C16   C17   A    
C4    H14   S    
C8    C9    A    
Cu2   O4    S    
Cu1   Cu2   S    
C26   N2    A    
