data_mof_unit_55927.cif
_audit_creation_date              2012-10-26T19:29:37-0400
_audit_creation_method            fapswitch 2.2
_symmetry_space_group_name_H-M    P1
_symmetry_Int_Tables_number       1
_space_group_crystal_system       triclinic
_cell_length_a                    15.888325
_cell_length_b                    14.682417
_cell_length_c                    10.70531
_cell_angle_alpha                 89.840969
_cell_angle_beta                  90.611424
_cell_angle_gamma                 90.029358
_cell_volume                      2497.17204756

loop_
_atom_site_label
_atom_site_type_symbol
_atom_type_description
_atom_site_fract_x
_atom_site_fract_y
_atom_site_fract_z
_atom_type_partial_charge
C1    C     C_R   0.339759 0.499978 0.499110 0.542225
C2    C     C_3   0.950278 0.461917 0.361136 0.162213
C3    C     C_3   0.049268 0.463599 0.363924 -0.228178
C4    C     C_1   0.824892 0.498980 0.492642 0.045841
C5    C     C_1   0.174706 0.499555 0.493681 -0.075799
C6    C     C_R   0.498146 0.500217 0.259209 0.564116
C7    C     C_1   0.250187 0.499867 0.496294 -0.032150
C8    C     C_3   0.551845 0.051845 0.617961 -0.233864
C9    C     C_3   0.550423 0.945757 0.617534 -0.211411
C10   C     C_3   0.546590 0.055036 0.383938 0.002283
C11   C     C_3   0.541596 0.947245 0.379110 -0.032223
C12   C     C_3   0.498301 0.500772 0.123805 -0.018591
C13   C     C_3   0.502276 0.092184 0.503937 0.010869
C14   C     C_3   0.501539 0.907620 0.501967 0.013818
C15   C     C_3   0.409172 0.944686 0.508023 0.184370
C16   C     C_3   0.409787 0.052024 0.499967 0.182208
C17   C     C_1   0.501712 0.804693 0.502560 0.128258
C18   C     C_1   0.501989 0.195247 0.503611 0.174325
C19   C     C_R   0.660067 0.499955 0.499043 0.536278
C20   C     C_R   0.501016 0.499943 0.740547 0.577516
C21   C     C_3   0.476367 0.582273 0.038331 0.124993
C22   C     C_3   0.444689 0.437964 0.038787 0.045484
C23   C     C_3   0.048914 0.596728 0.512435 -0.183963
C24   C     C_3   0.423199 0.519757 0.955033 0.058781
C25   C     C_3   0.501006 0.500089 0.876010 0.029053
C26   C     C_3   0.554791 0.563267 0.959614 0.279506
C27   C     C_3   0.523341 0.417329 0.960987 0.235857
C28   C     C_3   0.577012 0.481166 0.044439 0.026065
C29   C     C_3   0.368095 0.108388 0.699983 0.045959
C30   C     C_3   0.288727 0.133435 0.771407 -0.257887
C31   C     C_3   0.307515 0.144640 0.910642 -0.497912
C32   C     C_3   0.306685 0.848649 0.597003 0.023008
C33   C     C_3   0.222658 0.894742 0.564947 -0.257353
C34   C     C_3   0.049573 0.436435 0.596819 -0.198019
C35   C     C_3   0.153328 0.824554 0.542968 -0.499697
C36   C     C_3   0.684725 0.607209 0.879685 0.033999
C37   C     C_3   0.749291 0.642249 0.975438 -0.257428
C38   C     C_3   0.834396 0.595881 0.961651 -0.469440
C39   C     C_3   0.565595 0.268032 0.996471 0.018778
C40   C     C_3   0.571574 0.175975 0.931175 -0.268035
C41   C     C_3   0.601934 0.101003 0.019146 -0.487012
C42   C     C_3   0.864742 0.705561 0.612632 0.002453
C43   C     C_3   0.910458 0.796442 0.594184 -0.275849
C44   C     C_3   0.848231 0.875315 0.584369 -0.486228
C45   C     C_3   0.951735 0.436159 0.598764 0.178614
C46   C     C_3   0.919727 0.395324 0.805153 -0.014557
C47   C     C_3   0.831218 0.353917 0.807736 -0.263150
C48   C     C_3   0.822371 0.285986 0.914875 -0.489860
C49   C     C_3   0.951206 0.598055 0.512316 0.180527
C50   C     C_1   0.749504 0.499576 0.495589 -0.022692
C51   C     C_3   0.082601 0.499040 0.491504 -0.019706
C52   C     C_3   0.917156 0.498805 0.490985 0.169470
Cu1   Cu    Cu3+1 0.499910 0.589920 0.499840 0.980294
Cu2   Cu    Cu3+1 0.499910 0.410080 0.499840 1.016848
H1    H     H_    0.615929 0.919518 0.620747 0.100089
H2    H     H_    0.075219 0.459851 0.688479 0.151505
H3    H     H_    0.072615 0.365651 0.582754 0.073483
H4    H     H_    0.072238 0.642629 0.437442 0.069891
H5    H     H_    0.928595 0.365701 0.581384 0.092317
H6    H     H_    0.930931 0.641948 0.432584 0.082270
H7    H     H_    0.074225 0.507433 0.287821 0.110554
H8    H     H_    0.075474 0.394561 0.346486 0.116433
H9    H     H_    0.299396 0.547406 0.980115 0.222873
H10   H     H_    0.319903 0.486431 0.851574 0.218620
H11   H     H_    0.950251 0.581418 0.253827 0.192701
H12   H     H_    0.617973 0.076119 0.618485 0.127396
H13   H     H_    0.930569 0.488371 0.172361 0.222661
H14   H     H_    0.931116 0.348588 0.248043 0.224570
H15   H     H_    0.953747 0.321336 0.394445 0.194733
H16   H     H_    0.673934 0.058181 0.434282 0.247018
H17   H     H_    0.654134 0.077312 0.282524 0.249754
H18   H     H_    0.661170 0.900195 0.427972 0.228897
H19   H     H_    0.612371 0.839109 0.316217 0.235656
H20   H     H_    0.412603 0.166301 0.709377 0.136025
H21   H     H_    0.394846 0.046062 0.743491 0.184369
H22   H     H_    0.262625 0.198277 0.733669 0.168230
H23   H     H_    0.510507 0.081660 0.301910 0.100849
H24   H     H_    0.240625 0.079216 0.758815 0.169974
H25   H     H_    0.329705 0.079179 0.951507 0.149945
H26   H     H_    0.249484 0.165938 0.959476 0.145031
H27   H     H_    0.356663 0.197324 0.925457 0.162044
H28   H     H_    0.298909 0.808456 0.684194 0.168889
H29   H     H_    0.324568 0.798980 0.523352 0.129840
H30   H     H_    0.204260 0.939925 0.643063 0.174235
H31   H     H_    0.229174 0.937096 0.479446 0.170712
H32   H     H_    0.170179 0.778910 0.464549 0.145123
H33   H     H_    0.093679 0.860060 0.518776 0.140481
H34   H     H_    0.497828 0.930203 0.300437 0.105237
H35   H     H_    0.143485 0.783227 0.628644 0.149784
H36   H     H_    0.499186 0.700148 0.132077 0.249136
H37   H     H_    0.398854 0.663886 0.138136 0.220652
H38   H     H_    0.350329 0.348054 0.005887 0.226492
H39   H     H_    0.341167 0.406171 0.139426 0.224434
H40   H     H_    0.698996 0.637996 0.787445 0.141849
H41   H     H_    0.689932 0.532318 0.865834 0.118429
H42   H     H_    0.757070 0.716975 0.963118 0.149493
H43   H     H_    0.726276 0.629930 0.071680 0.217117
H44   H     H_    0.829009 0.522851 0.987107 0.161109
H45   H     H_    0.387232 0.066997 0.403202 0.083467
H46   H     H_    0.881069 0.628395 0.025254 0.145495
H47   H     H_    0.857059 0.602025 0.864453 0.216550
H48   H     H_    0.516551 0.263546 0.069707 0.176359
H49   H     H_    0.627361 0.283773 0.040702 0.130626
H50   H     H_    0.508441 0.157338 0.894082 0.150885
H51   H     H_    0.615784 0.181252 0.851658 0.172343
H52   H     H_    0.664908 0.118270 0.058410 0.147408
H53   H     H_    0.606784 0.035977 0.966983 0.151804
H54   H     H_    0.556362 0.091666 0.095747 0.151085
H55   H     H_    0.695393 0.429177 0.030396 0.223234
H56   H     H_    0.375128 0.920038 0.422484 0.043447
H57   H     H_    0.651421 0.413754 0.170451 0.241718
H58   H     H_    0.827172 0.710074 0.699147 0.144107
H59   H     H_    0.818861 0.692655 0.535181 0.123243
H60   H     H_    0.953999 0.808445 0.674429 0.170953
H61   H     H_    0.948117 0.794191 0.507461 0.144878
H62   H     H_    0.805835 0.865730 0.502346 0.145789
H63   H     H_    0.883144 0.940239 0.572489 0.144715
H64   H     H_    0.809969 0.879791 0.670395 0.142986
H65   H     H_    0.934734 0.424702 0.898206 0.144953
H66   H     H_    0.967707 0.341278 0.788983 0.102170
H67   H     H_    0.528061 0.076772 0.707640 0.080423
H68   H     H_    0.783979 0.408885 0.818803 0.169944
H69   H     H_    0.817768 0.318639 0.718048 0.159178
H70   H     H_    0.869047 0.230181 0.905677 0.143344
H71   H     H_    0.758271 0.256004 0.912613 0.154230
H72   H     H_    0.832032 0.320639 0.006049 0.145256
H73   H     H_    0.520665 0.921101 0.704937 0.167035
H74   H     H_    0.074059 0.623656 0.602531 0.163145
N1    N     N_1   0.501390 0.724970 0.502570 -0.203404
N2    N     N_3   0.659584 0.461168 0.098663 -0.637172
N3    N     N_1   0.501390 0.275030 0.502570 -0.184765
N4    N     N_3   0.340223 0.542058 0.904617 -0.603767
N5    N     N_3   0.917935 0.519556 0.257841 -0.613286
N6    N     N_3   0.919636 0.367983 0.340238 -0.612057
N7    N     N_3   0.632673 0.090969 0.372452 -0.622381
N8    N     N_3   0.622860 0.905339 0.348596 -0.643038
N9    N     N_3   0.450057 0.672440 0.078771 -0.567315
N10   N     N_3   0.384061 0.371416 0.083660 -0.631165
O1    O     O_R   0.379360 0.575970 0.499860 -0.502710
O2    O     O_3   0.369988 0.914647 0.619766 -0.567675
O3    O     O_3   0.603794 0.636449 0.914624 -0.543336
O4    O     O_3   0.545763 0.334034 0.905228 -0.558657
O5    O     O_3   0.923299 0.633583 0.628442 -0.538656
O6    O     O_3   0.922759 0.467006 0.716405 -0.537135
O7    O     O_R   0.379360 0.424030 0.499860 -0.492229
O8    O     O_R   0.499910 0.575920 0.316720 -0.515163
O9    O     O_R   0.499910 0.424080 0.316720 -0.485933
O10   O     O_R   0.620490 0.575900 0.499870 -0.503156
O11   O     O_R   0.620490 0.424100 0.499870 -0.489408
O12   O     O_R   0.499950 0.575950 0.683010 -0.463436
O13   O     O_R   0.499950 0.424050 0.683010 -0.469753
O14   O     O_3   0.346715 0.095403 0.572965 -0.559069

loop_
_geom_bond_atom_site_label_1
_geom_bond_atom_site_label_2
_ccdc_geom_bond_type
C23   H4    S    
C21   C26   S    
C34   H2    S    
C8    C13   S    
C41   H54   S    
C1    O7    A    
C15   H56   S    
C21   N9    S    
C38   H44   S    
H38   N10   S    
C23   H74   S    
C37   H43   S    
C31   H26   S    
Cu1   Cu2   S    
C8    H12   S    
Cu2   N3    S    
C34   C51   S    
H15   N6    S    
C49   H6    S    
C13   C18   S    
C12   C28   S    
C36   C37   S    
H13   N5    S    
C37   C38   S    
C32   O2    S    
C38   H47   S    
C43   H60   S    
C6    C12   S    
C30   C31   S    
C6    O8    A    
C35   H32   S    
C8    H67   S    
C23   C49   S    
C20   C25   S    
C15   C16   S    
C12   C22   S    
C27   O4    S    
C42   H58   S    
C33   H31   S    
H39   N10   S    
C42   H59   S    
C43   H61   S    
C48   H71   S    
H37   N9    S    
C35   H33   S    
C36   O3    S    
H10   N4    S    
C8    C9    S    
C34   H3    S    
C39   O4    S    
C9    H1    S    
C26   O3    S    
C1    O1    A    
C1    C7    S    
C42   O5    S    
C14   C17   S    
C18   N3    T    
C10   H23   S    
Cu2   O11   S    
C3    H7    S    
C2    N5    S    
C41   H52   S    
C17   N1    T    
C45   O6    S    
C10   N7    S    
C38   H46   S    
C39   C40   S    
C5    C7    T    
C3    C51   S    
C47   H68   S    
C46   O6    S    
C29   H20   S    
C45   C52   S    
C25   C26   S    
C12   C21   S    
Cu1   O10   S    
C37   H42   S    
C4    C50   T    
C9    C14   S    
C29   C30   S    
C33   C35   S    
C40   H50   S    
C30   H22   S    
C24   N4    S    
H57   N2    S    
C23   C51   S    
C47   C48   S    
H19   N8    S    
C44   H64   S    
C11   H34   S    
C49   C52   S    
C46   H66   S    
C16   O14   S    
C34   C45   S    
C9    H73   S    
H9    N4    S    
C24   C25   S    
C31   H25   S    
C2    C52   S    
Cu2   O7    S    
C35   H35   S    
C40   C41   S    
C4    C52   S    
C22   C27   S    
C43   C44   S    
H16   N7    S    
C22   C24   S    
C21   C24   S    
Cu1   N1    S    
C42   C43   S    
C19   C50   S    
H55   N2    S    
H36   N9    S    
C39   H48   S    
C15   O2    S    
C3    H8    S    
C32   H29   S    
C46   C47   S    
C45   H5    S    
C41   H53   S    
Cu1   O1    S    
C10   C13   S    
C48   H70   S    
C2    N6    S    
C16   H45   S    
C39   H49   S    
Cu2   O13   S    
C29   H21   S    
C25   C27   S    
C32   H28   S    
C22   N10   S    
C26   C28   S    
C19   O10   A    
C31   H27   S    
C20   O13   A    
C32   C33   S    
H14   N6    S    
C2    C3    S    
C11   C14   S    
C11   N8    S    
C29   O14   S    
H17   N7    S    
C6    O9    A    
C36   H41   S    
Cu1   O12   S    
C47   H69   S    
C44   H63   S    
C49   O5    S    
Cu1   O8    S    
C19   O11   A    
C20   O12   A    
C46   H65   S    
C28   N2    S    
C33   H30   S    
H18   N8    S    
C10   C11   S    
C48   H72   S    
C30   H24   S    
C36   H40   S    
C44   H62   S    
C13   C16   S    
C27   C28   S    
C14   C15   S    
C5    C51   S    
H11   N5    S    
Cu2   O9    S    
C40   H51   S    
