data_mof_unit_21475.cif
_audit_creation_date              2012-12-10T18:43:42-0500
_audit_creation_method            fapswitch 2.2
_symmetry_space_group_name_H-M    P1
_symmetry_Int_Tables_number       1
_space_group_crystal_system       triclinic
_cell_length_a                    10.867763
_cell_length_b                    10.618833
_cell_length_c                    9.895888
_cell_angle_alpha                 91.644767
_cell_angle_beta                  103.222609
_cell_angle_gamma                 89.95907
_cell_volume                      1111.26036539

loop_
_atom_site_label
_atom_site_type_symbol
_atom_type_description
_atom_site_fract_x
_atom_site_fract_y
_atom_site_fract_z
_atom_type_partial_charge
C1    C     C_R   0.499265 0.260750 0.498354 1.011999
C2    C     C_R   0.500471 0.739869 0.501552 1.007152
C3    C     C_R   0.260089 0.504645 0.444112 0.994693
C4    C     C_R   0.740139 0.505464 0.556230 0.998062
C5    C     C_R   0.545642 0.600431 0.087825 -0.065168
C6    C     C_R   0.452230 0.400413 0.911581 -0.088914
C7    C     C_R   0.547283 0.600686 0.945265 0.059305
C8    C     C_R   0.451928 0.399576 0.054579 0.046886
C9    C     C_2   0.125435 0.516842 0.417842 -0.331579
C10   C     C_2   0.875207 0.519974 0.583436 -0.351398
C11   C     C_2   0.068460 0.562088 0.516718 0.302207
C12   C     C_2   0.932748 0.560926 0.485402 0.305365
C13   C     C_R   0.612060 0.066330 0.496603 0.178157
C14   C     C_R   0.386490 0.936139 0.497711 0.192413
C15   C     C_R   0.613398 0.936511 0.502979 0.197150
C16   C     C_R   0.386826 0.066291 0.500357 0.181210
C17   C     C_R   0.500566 0.872879 0.503400 -0.275378
C18   C     C_R   0.498945 0.128863 0.496253 -0.268289
H1    H     H_    0.582274 0.680623 0.154903 0.182051
H2    H     H_    0.413262 0.321332 0.843822 0.166792
H3    H     H_    0.929370 0.493442 0.684931 0.160199
H4    H     H_    0.071335 0.484183 0.316617 0.155758
N1    N     N_R   0.499970 0.499970 0.857200 -0.097740
N2    N     N_R   0.500030 0.500030 0.142800 -0.101056
O1    O     O_R   0.499990 0.316750 0.614620 -0.622956
O2    O     O_R   0.500010 0.683250 0.385380 -0.618534
O3    O     O_R   0.499990 0.316780 0.385290 -0.599895
O4    O     O_R   0.500010 0.683220 0.614710 -0.597468
O5    O     O_R   0.317810 0.500000 0.571850 -0.556683
O6    O     O_R   0.682190 0.500000 0.428150 -0.554374
O7    O     O_R   0.317810 0.500030 0.342520 -0.634394
O8    O     O_R   0.682190 0.499970 0.657480 -0.637999
Zn1   Zn    Zn3+2 0.500000 0.499980 0.653120 1.008698
Zn2   Zn    Zn3+2 0.500000 0.500020 0.346880 1.011283
Br1   Br    Br    0.851028 0.617833 0.300993 -0.459687
Br2   Br    Br    0.151983 0.630329 0.699997 -0.446452
C19   C     C_R   0.603789 0.711940 0.898090 0.136048
C20   C     C_R   0.730502 0.709686 0.888282 -0.088171
C21   C     C_R   0.790288 0.820649 0.864262 -0.070884
C22   C     C_R   0.724038 0.934293 0.850173 -0.079727
C23   C     C_R   0.597824 0.937205 0.860080 -0.162418
C24   C     C_R   0.538080 0.826662 0.885383 -0.125004
H5    H     H_    0.783924 0.623052 0.903397 0.151817
H6    H     H_    0.888247 0.818691 0.857328 0.182027
H7    H     H_    0.770413 0.020010 0.831185 0.170308
H8    H     H_    0.546685 0.025247 0.849384 0.151259
H9    H     H_    0.441324 0.830534 0.896741 0.161460
C25   C     C_R   0.395953 0.288181 0.102299 0.140910
C26   C     C_R   0.461003 0.173114 0.112812 -0.132208
C27   C     C_R   0.402184 0.063035 0.141030 -0.154016
C28   C     C_R   0.277628 0.066834 0.156638 -0.070282
C29   C     C_R   0.212073 0.180822 0.145080 -0.097002
C30   C     C_R   0.270704 0.291187 0.117236 -0.108819
H10   H     H_    0.556573 0.168639 0.097761 0.148071
H11   H     H_    0.452798 0.974705 0.149849 0.151832
H12   H     H_    0.231933 0.981485 0.177799 0.178851
H13   H     H_    0.115356 0.183405 0.156354 0.171106
H14   H     H_    0.217524 0.377997 0.103647 0.148516
Br3   Br    Br    0.764707 0.158833 0.493858 -0.423050
Br4   Br    Br    0.229238 0.846335 0.474362 -0.388384
Br5   Br    Br    0.769458 0.847900 0.514688 -0.402720
Br6   Br    Br    0.234749 0.158657 0.507354 -0.440934

loop_
_geom_bond_atom_site_label_1
_geom_bond_atom_site_label_2
_ccdc_geom_bond_type
C1    O1    A    
C23   H8    S    
C8    C25   S    
C15   C17   A    
C19   C20   A    
C13   Br3   S    
C14   C16   A    
C6    H2    S    
C23   C24   A    
C27   H11   S    
C30   H14   S    
O8    Zn1   S    
C27   C28   A    
C7    C19   S    
O7    Zn2   S    
C4    O6    A    
C20   H5    S    
C2    O2    A    
O3    Zn2   S    
C29   C30   A    
C2    C17   S    
C3    O7    A    
C9    C11   D    
C14   C17   A    
C1    C18   S    
C4    O8    A    
C5    N2    A    
C10   C12   D    
C13   C18   A    
C3    C9    S    
C6    N1    A    
C6    C8    A    
C16   C18   A    
C22   C23   A    
C8    N2    A    
O4    Zn1   S    
C26   C27   A    
C5    C7    A    
C24   H9    S    
C13   C15   A    
C10   H3    S    
C15   Br5   S    
C25   C30   A    
C7    N1    A    
C9    H4    S    
C29   H13   S    
O6    Zn2   S    
C21   H6    S    
C4    C10   S    
C28   C29   A    
O5    Zn1   S    
C19   C24   A    
C14   Br4   S    
C22   H7    S    
C3    O5    A    
C28   H12   S    
C16   Br6   S    
C21   C22   A    
C1    O3    A    
C25   C26   A    
C2    O4    A    
N1    Zn1   S    
C20   C21   A    
C5    H1    S    
O2    Zn2   S    
N2    Zn2   S    
C26   H10   S    
C11   C12   S    
O1    Zn1   S    
C12   Br1   S    
C11   Br2   S    
