data_mof_unit_48152.cif
_audit_creation_date              2012-12-10T17:18:56-0500
_audit_creation_method            fapswitch 2.2
_symmetry_space_group_name_H-M    P1
_symmetry_Int_Tables_number       1
_space_group_crystal_system       triclinic
_cell_length_a                    9.680445
_cell_length_b                    10.857352
_cell_length_c                    13.543379
_cell_angle_alpha                 96.534486
_cell_angle_beta                  75.745271
_cell_angle_gamma                 91.250657
_cell_volume                      1370.64457709

loop_
_atom_site_label
_atom_site_type_symbol
_atom_type_description
_atom_site_fract_x
_atom_site_fract_y
_atom_site_fract_z
_atom_type_partial_charge
C1    C     C_R   0.499094 0.737756 0.507260 0.828355
C2    C     C_R   0.444985 0.579972 0.979787 -0.111499
C3    C     C_R   0.490010 0.570200 0.871645 -0.269842
C4    C     C_R   0.546131 0.554208 0.035594 -0.141188
C5    C     C_R   0.690977 0.536445 0.981343 -0.329511
C6    C     C_R   0.735071 0.566084 0.880450 0.587940
C7    C     C_R   0.633812 0.596563 0.829648 0.477483
C8    C     C_R   0.507209 0.531268 0.139247 0.610134
C9    C     C_R   0.752006 0.475277 0.132419 0.270118
C10   C     C_R   0.387701 0.541047 0.812885 -0.270317
C11   C     C_R   0.280737 0.890193 0.661068 0.608296
C12   C     C_R   0.426061 0.510740 0.699423 0.895887
C13   C     C_R   0.147475 0.945393 0.702929 -0.253005
C14   C     C_R   0.117270 0.057585 0.674133 -0.330884
C15   C     C_R   0.222575 0.121029 0.609795 0.566634
C16   C     C_R   0.361164 0.066904 0.565204 -0.100388
C17   C     C_R   0.379170 0.941696 0.580800 -0.093237
C18   C     C_R   0.498424 0.873107 0.519749 -0.040528
C19   C     C_R   0.612886 0.933304 0.461575 -0.227959
C20   C     C_R   0.607990 0.059807 0.459902 -0.163353
C21   C     C_R   0.484481 0.128473 0.509278 -0.066690
C22   C     C_R   0.896494 0.303940 0.379611 0.663732
C23   C     C_R   0.495209 0.262874 0.504449 0.855829
C24   C     C_R   0.981388 0.201452 0.336223 -0.363122
C25   C     C_R   0.122614 0.203107 0.335283 -0.305335
C26   C     C_R   0.180479 0.307242 0.377735 0.750117
C27   C     C_R   0.093260 0.405001 0.441191 -0.043033
C28   C     C_R   0.943264 0.403857 0.442248 -0.042921
C29   C     C_R   0.911577 0.592502 0.550659 -0.081766
C30   C     C_R   0.056980 0.590376 0.553837 0.743379
C31   C     C_R   0.574178 0.497966 0.301064 0.989957
C32   C     C_R   0.788643 0.489202 0.028336 0.639996
C33   C     C_R   0.611737 0.501469 0.189311 -0.374440
C34   C     C_R   0.242583 0.545085 0.865729 0.349605
C35   C     C_R   0.203316 0.608340 0.964659 0.320328
C36   C     C_R   0.302958 0.619552 0.024229 0.547170
Cu1   Cu    Cu3+1 0.359340 0.500010 0.500010 1.158115
Cu2   Cu    Cu3+1 0.640660 0.499990 0.499990 1.045338
H1    H     H_    0.069872 0.903766 0.761492 0.169826
H2    H     H_    0.013009 0.099346 0.706450 0.185767
H3    H     H_    0.700407 0.103419 0.415770 0.189749
H4    H     H_    0.847194 0.671643 0.588227 0.192837
H5    H     H_    0.941054 0.125682 0.292166 0.204195
H6    H     H_    0.191203 0.128368 0.291152 0.208746
H7    H     H_    0.706114 0.882002 0.416009 0.158306
N1    N     N_R   0.852480 0.498790 0.499000 -0.210116
N2    N     N_R   0.148360 0.498710 0.498970 -0.209852
O1    O     O_R   0.381190 0.680360 0.500010 -0.533073
O2    O     O_R   0.618760 0.680340 0.500000 -0.611392
O3    O     O_R   0.323240 0.499990 0.650990 -0.495491
O4    O     O_R   0.560820 0.499960 0.650980 -0.555633
O5    O     O_R   0.381240 0.319660 0.500000 -0.476918
O6    O     O_R   0.618810 0.319640 0.499990 -0.558384
O7    O     O_R   0.439180 0.500040 0.349020 -0.481657
O8    O     O_R   0.676760 0.500010 0.349010 -0.517992
O9    O     O_3   0.845292 0.417293 0.175564 -0.525421
C37   C     C_3   0.966512 0.491160 0.177379 0.022315
H8    H     H_    0.008212 0.472053 0.243154 0.145942
H9    H     H_    0.943523 0.592632 0.187589 0.154514
H10   H     H_    0.052128 0.463662 0.107850 0.200237
O10   O     O_3   0.322835 0.798319 0.710070 -0.550713
C38   C     C_3   0.372971 0.858327 0.792696 -0.375916
H11   H     H_    0.289073 0.917112 0.847714 0.141543
H12   H     H_    0.468446 0.915448 0.764791 0.165259
H13   H     H_    0.403755 0.788552 0.836299 0.208080
F1    F     F_    0.178361 0.230424 0.590293 -0.677545
F2    F     F_    0.780497 0.306408 0.342910 -0.619031
F3    F     F_    0.321855 0.311946 0.342354 -0.631775
F4    F     F_    0.875056 0.569810 0.831822 -0.591416
F5    F     F_    0.105521 0.682110 0.612252 -0.646082
F6    F     F_    0.915992 0.445976 0.971707 -0.620243
F7    F     F_    0.367852 0.524971 0.189150 -0.598677
O11   O     O_3   0.138277 0.493894 0.820616 -0.427107
C39   C     C_3   0.146557 0.363262 0.816616 0.017192
H14   H     H_    0.141171 0.333063 0.893388 0.124994
H15   H     H_    0.245355 0.324806 0.762293 0.078951
H16   H     H_    0.054571 0.322157 0.789763 0.217196
F8    F     F_    0.263754 0.681379 0.119802 -0.610346
O12   O     O_3   0.065153 0.649070 0.006913 -0.534007
C40   C     C_3   0.043660 0.758413 0.965654 -0.177444
H17   H     H_    0.062337 0.743226 0.880751 0.224061
H18   H     H_    0.112375 0.834305 0.988584 0.131386
H19   H     H_    0.931067 0.788371 0.997126 0.159731
O13   O     O_3   0.670875 0.665328 0.747229 -0.550153
C41   C     C_3   0.722228 0.782684 0.778442 -0.354660
H20   H     H_    0.834581 0.775946 0.783278 0.220820
H21   H     H_    0.654919 0.826221 0.852709 0.135952
H22   H     H_    0.720601 0.845351 0.719511 0.184047

loop_
_geom_bond_atom_site_label_1
_geom_bond_atom_site_label_2
_ccdc_geom_bond_type
C6    F4    S    
C16   C21   A    
C29   H4    S    
O11   C39   S    
C19   C20   A    
C4    C8    A    
C20   H3    S    
C23   O5    A    
Cu2   O2    S    
C41   H20   S    
C28   N1    A    
C1    C18   S    
C38   H11   S    
C39   H15   S    
Cu1   Cu2   S    
C34   C35   A    
C3    C7    A    
C5    C6    A    
C37   H9    S    
C2    C36   A    
C15   C16   A    
O9    C37   S    
C18   C19   A    
C38   H12   S    
C9    C32   A    
Cu2   O8    S    
C35   C36   A    
C16   C17   A    
C39   H16   S    
C31   C33   S    
Cu1   N2    S    
C5    C32   A    
C7    O13   S    
C22   C28   A    
C13   C14   A    
C9    C33   A    
C40   H19   S    
C25   H6    S    
C30   F5    S    
C23   O6    A    
C32   F6    S    
C41   H21   S    
C8    F7    S    
Cu2   N1    S    
C39   H14   S    
C30   N2    A    
C24   C25   A    
C40   H18   S    
Cu1   O5    S    
C40   H17   S    
C37   H10   S    
Cu2   O4    S    
C25   C26   A    
C15   F1    S    
C2    C4    A    
C29   C30   A    
C17   C18   A    
C26   C27   A    
C10   C34   A    
C9    O9    S    
O13   C41   S    
Cu1   O1    S    
C10   C12   S    
Cu1   O7    S    
C21   C23   S    
C22   C24   A    
C12   O4    A    
C41   H22   S    
C27   N2    A    
C11   C17   A    
C38   H13   S    
C4    C5    A    
C11   O10   S    
C12   O3    A    
C19   H7    S    
C1    O1    A    
C6    C7    A    
C29   N1    A    
C26   F3    S    
C2    C3    A    
C3    C10   A    
C36   F8    S    
Cu1   O3    S    
C11   C13   A    
C37   H8    S    
Cu2   O6    S    
C35   O12   S    
C8    C33   A    
C31   O7    A    
O10   C38   S    
C22   F2    S    
C13   H1    S    
C34   O11   S    
C14   H2    S    
O12   C40   S    
C20   C21   A    
C27   C28   A    
C24   H5    S    
C14   C15   A    
C31   O8    A    
C1    O2    A    
