data_mof_unit_58426.cif
_audit_creation_date              2012-12-10T18:58:15-0500
_audit_creation_method            fapswitch 2.2
_symmetry_space_group_name_H-M    P1
_symmetry_Int_Tables_number       1
_space_group_crystal_system       triclinic
_cell_length_a                    10.954369
_cell_length_b                    10.823676
_cell_length_c                    9.609065
_cell_angle_alpha                 89.439882
_cell_angle_beta                  101.094406
_cell_angle_gamma                 90.614828
_cell_volume                      1117.92259796

loop_
_atom_site_label
_atom_site_type_symbol
_atom_type_description
_atom_site_fract_x
_atom_site_fract_y
_atom_site_fract_z
_atom_type_partial_charge
C1    C     C_R   0.497567 0.262402 0.500149 0.814324
C2    C     C_R   0.405590 0.447818 0.055949 -0.088056
C3    C     C_R   0.404247 0.447364 0.907814 0.062614
C4    C     C_R   0.263261 0.506700 0.444056 0.918100
C5    C     C_R   0.591185 0.559841 0.946127 0.207925
C6    C     C_3   0.728695 0.536093 0.975858 -0.082225
C7    C     C_3   0.724958 0.552791 0.131950 -0.499030
C8    C     C_R   0.498488 0.737414 0.499061 0.837139
C9    C     C_R   0.737312 0.503348 0.556646 0.830983
C10   C     C_2   0.128166 0.517644 0.417693 -0.395732
C11   C     C_2   0.067606 0.571884 0.510407 0.001526
C12   C     C_R   0.485015 0.128941 0.498381 -0.126989
C13   C     C_2   0.872578 0.517502 0.587376 -0.304542
C14   C     C_2   0.932643 0.555010 0.485740 -0.230639
C15   C     C_R   0.485347 0.061390 0.623480 0.143103
C16   C     C_2   0.296716 0.383707 0.820810 0.880805
C17   C     C_3   0.767427 0.404099 0.942883 -0.672513
C18   C     C_2   0.128620 0.657921 0.624226 0.926551
C19   C     C_2   0.512477 0.110449 0.883643 0.935501
C20   C     C_R   0.466375 0.065398 0.368621 -0.187409
C21   C     C_R   0.466971 0.936582 0.367402 -0.191189
C22   C     C_R   0.486810 0.870372 0.496001 -0.085151
C23   C     C_R   0.488750 0.934183 0.621575 0.134080
C24   C     C_3   0.577493 0.924992 0.759884 -0.542355
C25   C     C_3   0.572500 0.065463 0.764943 -0.226794
C26   C     C_R   0.587666 0.565742 0.091571 0.221502
Cu1   Cu    Cu3+1 0.499990 0.499980 0.640670 0.987912
Cu2   Cu    Cu3+1 0.500010 0.500020 0.359330 0.958872
H1    H     H_    0.882953 0.569559 0.379025 0.173821
H2    H     H_    0.457818 0.889715 0.266791 0.178760
H3    H     H_    0.535698 0.875337 0.841498 0.213959
H4    H     H_    0.669963 0.890017 0.747808 0.194471
H5    H     H_    0.110295 0.361259 0.776358 0.325493
H6    H     H_    0.857388 0.408841 0.906145 0.209443
H7    H     H_    0.780575 0.341409 0.036494 0.239998
H8    H     H_    0.697608 0.359160 0.859631 0.272562
H9    H     H_    0.263718 0.784463 0.689399 0.340082
H10   H     H_    0.530739 0.212012 0.061230 0.320596
H11   H     H_    0.663046 0.111395 0.760464 0.138485
H12   H     H_    0.332078 0.401414 0.097547 0.165671
H13   H     H_    0.781441 0.610657 0.932239 0.178162
H14   H     H_    0.752276 0.470468 0.200030 0.224451
H15   H     H_    0.769109 0.641163 0.174058 0.167038
H16   H     H_    0.922554 0.501272 0.694791 0.191456
H17   H     H_    0.075985 0.470570 0.325181 0.155768
H18   H     H_    0.456939 0.114632 0.268577 0.174896
N1    N     N_R   0.500780 0.500930 0.148120 -0.192956
N2    N     N_R   0.500790 0.500890 0.852210 -0.228397
O1    O     O_R   0.500000 0.319640 0.618810 -0.553936
O2    O     O_R   0.176686 0.412626 0.838796 -0.775408
O3    O     O_2   0.084690 0.671811 0.730682 -0.581614
O4    O     O_R   0.231899 0.728716 0.605786 -0.768378
O5    O     O_2   0.407665 0.075725 0.893174 -0.577790
O6    O     O_R   0.579064 0.189464 0.985339 -0.798050
O7    O     O_R   0.500010 0.319680 0.381230 -0.592702
O8    O     O_R   0.320680 0.500000 0.575130 -0.552365
O9    O     O_R   0.320690 0.500040 0.337550 -0.583551
O10   O     O_R   0.499990 0.680320 0.618770 -0.567826
O11   O     O_R   0.500000 0.680360 0.381190 -0.588274
O12   O     O_R   0.679310 0.499960 0.662450 -0.594610
O13   O     O_R   0.679320 0.500000 0.424870 -0.582149
O14   O     O_2   0.311710 0.300905 0.740809 -0.555416

loop_
_geom_bond_atom_site_label_1
_geom_bond_atom_site_label_2
_ccdc_geom_bond_type
Cu1   N2    S    
C4    O9    A    
C8    C22   S    
C23   C24   S    
C24   H4    S    
C11   C18   S    
C6    C7    S    
C17   H8    S    
C7    H15   S    
C2    N1    A    
C21   H2    S    
Cu1   O8    S    
H10   O6    S    
C12   C15   A    
C9    O12   A    
Cu2   O13   S    
C19   O5    D    
C10   H17   S    
C15   C23   A    
C2    C3    A    
C1    O7    A    
C24   H3    S    
C18   O4    S    
Cu2   N1    S    
C7    H14   S    
Cu2   O9    S    
C25   H11   S    
C1    C12   S    
C12   C20   A    
C7    C26   S    
C16   O14   D    
C26   N1    A    
C9    O13   A    
C19   O6    S    
C24   C25   S    
C11   C14   S    
Cu2   O7    S    
C16   O2    S    
C18   O3    D    
Cu1   O12   S    
C8    O11   A    
C5    C6    S    
C19   C25   S    
C5    N2    A    
C15   C25   S    
C17   H6    S    
C14   H1    S    
C4    C10   S    
C5    C26   A    
C2    H12   S    
C3    N2    A    
C4    O8    A    
C20   C21   A    
C10   C11   D    
Cu2   O11   S    
Cu1   Cu2   S    
H9    O4    S    
C6    C17   S    
C9    C13   S    
C22   C23   A    
C17   H7    S    
C13   C14   D    
C8    O10   A    
H5    O2    S    
C21   C22   A    
C1    O1    A    
Cu1   O10   S    
C13   H16   S    
C20   H18   S    
C3    C16   S    
Cu1   O1    S    
C6    H13   S    
