data_mof_unit_57504.cif
_audit_creation_date              2012-10-26T20:00:40-0400
_audit_creation_method            fapswitch 2.2
_symmetry_space_group_name_H-M    P1
_symmetry_Int_Tables_number       1
_space_group_crystal_system       triclinic
_cell_length_a                    11.665786
_cell_length_b                    13.066551
_cell_length_c                    13.442911
_cell_angle_alpha                 92.089724
_cell_angle_beta                  76.114118
_cell_angle_gamma                 98.953138
_cell_volume                      1965.00211426

loop_
_atom_site_label
_atom_site_type_symbol
_atom_type_description
_atom_site_fract_x
_atom_site_fract_y
_atom_site_fract_z
_atom_type_partial_charge
C1    C     C_R   0.520210 0.700392 0.501260 0.542515
C2    C     C_R   0.395503 0.498617 0.810172 -0.056272
C3    C     C_R   0.467983 0.187073 0.510514 0.010440
C4    C     C_R   0.435876 0.499290 0.696600 0.549957
C5    C     C_R   0.532238 0.813372 0.498542 0.034978
C6    C     C_R   0.651469 0.978559 0.441344 -0.125845
C7    C     C_R   0.640097 0.871245 0.442461 -0.038789
C8    C     C_R   0.434233 0.864207 0.546926 -0.010103
C9    C     C_R   0.442894 0.971368 0.531469 0.021369
C10   C     C_R   0.555418 0.029107 0.487878 0.019624
C11   C     C_R   0.570300 0.137607 0.490947 0.260653
C12   C     C_R   0.449813 0.504421 0.975989 -0.025839
C13   C     C_R   0.354460 0.128864 0.543814 -0.188331
C14   C     C_R   0.342399 0.022784 0.558912 -0.151365
C15   C     C_R   0.952555 0.615141 0.572182 -0.183716
C16   C     C_R   0.479337 0.299534 0.501690 0.576715
C17   C     C_R   0.831831 0.601385 0.568941 0.036259
C18   C     C_R   0.853361 0.447445 0.472092 0.019545
C19   C     C_R   0.974626 0.456763 0.475470 -0.006204
C20   C     C_R   0.024888 0.542267 0.525566 0.005204
C21   C     C_R   0.146539 0.552492 0.527650 0.038851
C22   C     C_R   0.168307 0.398661 0.430843 0.041269
C23   C     C_R   0.477021 0.535212 0.871865 -0.032532
C24   C     C_R   0.047494 0.384685 0.427665 -0.192850
C25   C     C_R   0.564285 0.507215 0.304089 0.547398
C26   C     C_R   0.731743 0.623074 0.048419 -0.146276
C27   C     C_R   0.602319 0.526265 0.193387 0.000232
C28   C     C_R   0.277260 0.453680 0.858417 0.257742
C29   C     C_R   0.245774 0.437225 0.964752 0.282761
C30   C     C_R   0.333266 0.455051 0.020384 -0.151655
C31   C     C_3   0.743905 0.821319 0.381963 -0.380704
C32   C     C_3   0.324810 0.808161 0.620810 -0.400455
C33   C     C_3   0.117512 0.484953 0.798839 0.044347
C34   C     C_R   0.538363 0.528396 0.033457 0.046259
C35   C     C_3   0.000950 0.425882 0.779645 -0.247881
C36   C     C_3   0.900097 0.491176 0.807060 -0.484756
C37   C     C_3   0.067463 0.473825 0.063916 0.004962
C38   C     C_3   0.063785 0.477955 0.178579 -0.268102
C39   C     C_3   0.979621 0.551462 0.233850 -0.472922
C40   C     C_3   0.739584 0.183122 0.553104 -0.008773
C41   C     C_3   0.688521 0.242646 0.650402 -0.252993
C42   C     C_3   0.746795 0.223545 0.736802 -0.491799
C43   C     C_R   0.646840 0.593505 0.990263 0.055866
C44   C     C_R   0.667317 0.631639 0.891049 -0.141292
C45   C     C_R   0.583809 0.603364 0.832887 -0.112774
C46   C     C_R   0.521274 0.491588 0.133740 -0.126223
C47   C     C_R   0.708369 0.591414 0.150167 -0.149516
Cu1   Cu    Cu3+1 0.386470 0.492430 0.492410 0.941950
Cu2   Cu    Cu3+1 0.613530 0.507570 0.507590 0.915968
H1    H     H_    0.770002 0.622095 0.196241 0.113150
H2    H     H_    0.748153 0.684137 0.858280 0.094082
H3    H     H_    0.814934 0.384354 0.430286 0.166600
H4    H     H_    0.814001 0.674164 0.016461 0.097968
H5    H     H_    0.444257 0.437107 0.168934 0.110013
H6    H     H_    0.305235 0.432333 0.099491 0.116796
H7    H     H_    0.601912 0.639626 0.758697 0.131492
H8    H     H_    0.812848 0.878164 0.332492 0.109259
H9    H     H_    0.787954 0.787456 0.434717 0.152106
H10   H     H_    0.712183 0.760323 0.330957 0.147109
H11   H     H_    0.340199 0.734554 0.650112 0.134039
H12   H     H_    0.275152 0.166012 0.562299 0.144105
H13   H     H_    0.300067 0.856245 0.690243 0.116316
H14   H     H_    0.248819 0.793647 0.583352 0.120726
H15   H     H_    0.158109 0.541859 0.736268 0.128326
H16   H     H_    0.096525 0.530183 0.870436 0.102926
H17   H     H_    0.015225 0.402768 0.697749 0.165585
H18   H     H_    0.973861 0.354313 0.827111 0.193990
H19   H     H_    0.871182 0.498414 0.891594 0.151977
H20   H     H_    0.822676 0.453685 0.777627 0.166471
H21   H     H_    0.930025 0.569866 0.773520 0.139090
H22   H     H_    0.974436 0.455908 0.054246 0.159289
H23   H     H_    0.735286 0.023103 0.401526 0.148122
H24   H     H_    0.104083 0.552844 0.031225 0.091283
H25   H     H_    0.033798 0.399196 0.212383 0.176966
H26   H     H_    0.154049 0.506995 0.190300 0.154742
H27   H     H_    0.990737 0.623401 0.188715 0.133117
H28   H     H_    0.999824 0.574612 0.308583 0.167294
H29   H     H_    0.885876 0.512080 0.247139 0.167045
H30   H     H_    0.835995 0.213968 0.526125 0.138797
H31   H     H_    0.735536 0.100457 0.572538 0.124813
H32   H     H_    0.704750 0.326952 0.634265 0.202196
H33   H     H_    0.590695 0.217506 0.676773 0.164833
H34   H     H_    0.253442 0.981307 0.588306 0.121174
H35   H     H_    0.727419 0.140175 0.757964 0.151592
H36   H     H_    0.710735 0.269292 0.805234 0.156389
H37   H     H_    0.844984 0.247302 0.712619 0.144323
H38   H     H_    0.185375 0.616451 0.567848 0.100426
H39   H     H_    0.223810 0.342697 0.393714 0.129116
H40   H     H_    0.988790 0.681939 0.611192 0.073098
H41   H     H_    0.011634 0.318340 0.387890 0.091063
H42   H     H_    0.776766 0.657891 0.605339 0.118662
N1    N     N_R   0.215880 0.481050 0.481000 -0.225998
N2    N     N_R   0.784100 0.518950 0.519000 -0.240940
O1    O     O_R   0.419710 0.645650 0.494620 -0.508734
O2    O     O_3   0.130572 0.394579 0.013562 -0.545059
O3    O     O_3   0.683790 0.195740 0.471972 -0.578931
O4    O     O_R   0.611450 0.658430 0.507430 -0.524501
O5    O     O_R   0.357340 0.490460 0.641450 -0.467355
O6    O     O_R   0.549080 0.503250 0.654260 -0.517960
O7    O     O_R   0.388550 0.341570 0.492570 -0.517282
O8    O     O_R   0.580290 0.354350 0.505380 -0.464106
O9    O     O_R   0.450920 0.496750 0.345740 -0.501344
O10   O     O_R   0.642660 0.509540 0.358550 -0.505915
O11   O     O_3   0.196507 0.413606 0.801189 -0.525237

loop_
_geom_bond_atom_site_label_1
_geom_bond_atom_site_label_2
_ccdc_geom_bond_type
C11   O3    S    
C8    C9    A    
C21   H38   S    
C23   C45   A    
C4    O5    A    
C33   O11   S    
C41   C42   S    
C19   C20   A    
C17   H42   S    
C43   C44   A    
C33   H16   S    
C36   H20   S    
C6    H23   S    
C12   C23   A    
C29   C30   A    
Cu1   O1    S    
C1    C5    S    
C39   H28   S    
C31   H9    S    
C28   C29   A    
Cu2   O8    S    
C38   C39   S    
C25   O9    A    
C15   H40   S    
C37   O2    S    
C18   C19   A    
C31   H10   S    
C35   C36   S    
C45   H7    S    
C1    O1    A    
C40   H31   S    
C34   C46   A    
C22   H39   S    
C9    C10   A    
C3    C13   A    
Cu1   O9    S    
C13   C14   A    
C14   H34   S    
C40   O3    S    
C36   H21   S    
C26   C43   A    
C47   H1    S    
C38   H26   S    
C15   C20   A    
Cu1   O7    S    
C7    C31   S    
C18   H3    S    
C8    C32   S    
C39   H29   S    
C42   H35   S    
C1    O4    A    
C29   O2    S    
C16   O7    A    
C35   H17   S    
C2    C4    S    
C9    C14   A    
C6    C10   A    
C37   C38   S    
Cu2   O6    S    
C28   O11   S    
C35   H18   S    
C41   H32   S    
C46   H5    S    
C40   H30   S    
C42   H36   S    
C39   H27   S    
C26   C47   A    
C42   H37   S    
C27   C46   A    
Cu1   Cu2   S    
C37   H22   S    
C22   C24   A    
C17   N2    A    
C32   H11   S    
C12   C34   A    
C26   H4    S    
C44   C45   A    
C44   H2    S    
C5    C7    A    
C38   H25   S    
C27   C47   A    
C15   C17   A    
C37   H24   S    
C40   C41   S    
C12   C30   A    
C25   O10   A    
C34   C43   A    
C32   H14   S    
C24   H41   S    
Cu2   O10   S    
C5    C8    A    
C36   H19   S    
C6    C7    A    
C25   C27   S    
Cu1   O5    S    
C30   H6    S    
C31   H8    S    
C19   C24   A    
C32   H13   S    
C33   H15   S    
C41   H33   S    
C33   C35   S    
C3    C11   A    
C10   C11   A    
Cu2   O4    S    
C16   O8    A    
C13   H12   S    
C20   C21   A    
Cu1   N1    S    
C4    O6    A    
C2    C23   A    
C18   N2    A    
C22   N1    A    
C2    C28   A    
Cu2   N2    S    
C3    C16   S    
C21   N1    A    
