data_mof_unit_14181.cif
_audit_creation_date              2012-12-10T17:02:03-0500
_audit_creation_method            fapswitch 2.2
_symmetry_space_group_name_H-M    P1
_symmetry_Int_Tables_number       1
_space_group_crystal_system       triclinic
_cell_length_a                    10.754381
_cell_length_b                    11.007588
_cell_length_c                    9.875523
_cell_angle_alpha                 111.107732
_cell_angle_beta                  98.282841
_cell_angle_gamma                 91.117281
_cell_volume                      1076.01698917

loop_
_atom_site_label
_atom_site_type_symbol
_atom_type_description
_atom_site_fract_x
_atom_site_fract_y
_atom_site_fract_z
_atom_type_partial_charge
C1    C     C_R   0.490790 0.254190 0.440692 0.874833
C2    C     C_R   0.061992 0.621301 0.485851 -0.077719
C3    C     C_R   0.129411 0.515686 0.501859 -0.106285
C4    C     C_R   0.067669 0.408458 0.513934 -0.285922
C5    C     C_R   0.938644 0.401672 0.510973 0.237249
C6    C     C_R   0.870897 0.506051 0.499621 -0.073649
C7    C     C_2   0.486787 0.114635 0.407393 -0.348912
C8    C     C_2   0.504333 0.069705 0.516497 -0.168784
C9    C     C_2   0.515493 0.885438 0.592758 -0.345461
C10   C     C_2   0.501627 0.930523 0.483713 -0.114243
C11   C     C_2   0.506193 0.515058 0.081914 -0.155646
C12   C     C_R   0.263492 0.509786 0.502535 0.896158
C13   C     C_2   0.481707 0.496271 0.919965 0.337990
C14   C     C_R   0.509975 0.745839 0.559368 0.897678
C15   C     C_R   0.736973 0.498615 0.498901 0.826726
C16   C     C_R   0.117879 0.729359 0.462351 0.358459
C17   C     C_R   0.051051 0.841186 0.475925 0.469323
C18   C     C_R   0.924560 0.838985 0.490924 -0.293055
C19   C     C_R   0.864626 0.728320 0.496183 -0.262170
C20   C     C_R   0.931666 0.618497 0.493581 -0.011400
Cu1   Cu    Cu3+1 0.521920 0.521810 0.644910 0.961655
Cu2   Cu    Cu3+1 0.478080 0.478190 0.355090 0.936714
H1    H     H_    0.120009 0.327221 0.521440 0.145819
H2    H     H_    0.470284 0.048225 0.293103 0.146146
H3    H     H_    0.575438 0.592136 0.155398 0.148147
H4    H     H_    0.631610 0.612801 0.932135 0.158304
H5    H     H_    0.386630 0.366235 0.066667 0.202594
H6    H     H_    0.871709 0.922733 0.495401 0.174668
H7    H     H_    0.765638 0.730836 0.505019 0.156226
H8    H     H_    0.487372 0.864582 0.369228 0.173824
H9    H     H_    0.520545 0.135750 0.631006 0.175012
H10   H     H_    0.530012 0.951758 0.707054 0.134518
N1    N     N_2   0.445130 0.445430 0.137370 -0.295877
N2    N     N_2   0.554930 0.554500 0.862630 -0.298883
O1    O     O_R   0.511700 0.332330 0.577400 -0.558311
O2    O     O_R   0.474680 0.295500 0.332650 -0.586862
O3    O     O_R   0.338160 0.518420 0.622400 -0.555738
O4    O     O_R   0.301140 0.481590 0.377650 -0.555790
O5    O     O_R   0.525320 0.704500 0.667350 -0.589986
O6    O     O_R   0.488300 0.667670 0.422600 -0.566583
O7    O     O_R   0.698860 0.518410 0.622350 -0.568922
O8    O     O_R   0.661840 0.481580 0.377600 -0.588679
N3    N     N_2   0.375327 0.413380 0.828254 -0.351640
H11   H     H_    0.381448 0.317014 0.817217 0.210446
C21   C     C_3   0.253922 0.460680 0.861229 -0.687247
H12   H     H_    0.177669 0.392736 0.780376 0.212389
H13   H     H_    0.245758 0.559413 0.856107 0.246495
H14   H     H_    0.239185 0.466014 0.971786 0.192189
O9    O     O_3   0.234756 0.725266 0.419620 -0.578893
C22   C     C_3   0.216657 0.694289 0.265737 -0.214584
H15   H     H_    0.158704 0.600113 0.205554 0.138269
H16   H     H_    0.309390 0.683318 0.228185 0.189644
H17   H     H_    0.173221 0.773491 0.235075 0.172484
O10   O     O_3   0.106067 0.948543 0.459637 -0.574702
C23   C     C_3   0.172326 0.030494 0.597485 -0.311108
H18   H     H_    0.216949 0.116604 0.584622 0.186896
H19   H     H_    0.248922 0.980114 0.639084 0.183509
H20   H     H_    0.107486 0.067039 0.679282 0.142043
N4    N     N_2   0.877568 0.290812 0.523030 -0.432494
H21   H     H_    0.931820 0.252176 0.590381 0.253479
C24   C     C_3   0.824308 0.191016 0.383487 -0.675125
H22   H     H_    0.900288 0.149027 0.319329 0.236905
H23   H     H_    0.756125 0.231900 0.318821 0.232451
H24   H     H_    0.773525 0.111633 0.403086 0.225430

loop_
_geom_bond_atom_site_label_1
_geom_bond_atom_site_label_2
_ccdc_geom_bond_type
C24   H24   S    
C22   H16   S    
C9    C14   S    
N4    H21   S    
Cu1   O1    S    
C2    C16   A    
C6    C20   A    
C9    C10   D    
C10   H8    S    
C15   O8    A    
C19   C20   A    
Cu1   O5    S    
C11   N1    D    
C23   H18   S    
Cu2   O6    S    
C21   H13   S    
C17   C18   A    
C6    C15   S    
Cu1   O3    S    
C7    C8    D    
C19   H7    S    
C21   H12   S    
H5    N1    S    
N3    C21   S    
C15   O7    A    
Cu2   O8    S    
Cu2   N1    S    
Cu1   O7    S    
C5    C6    A    
Cu1   Cu2   S    
C2    C3    A    
C23   H19   S    
N3    H11   S    
C12   O4    A    
C24   H22   S    
C3    C12   S    
N4    C24   S    
C11   C13   S    
C5    N4    S    
C2    C20   A    
C3    C4    A    
C22   H17   S    
C13   N3    S    
C18   H6    S    
C16   O9    S    
C1    O1    A    
C8    C10   S    
C18   C19   A    
C23   H20   S    
C12   O3    A    
O9    C22   S    
C4    H1    S    
C11   H3    S    
O10   C23   S    
C4    C5    A    
C13   N2    D    
Cu1   N2    S    
C21   H14   S    
C9    H10   S    
C22   H15   S    
C14   O5    A    
C1    C7    S    
C8    H9    S    
C14   O6    A    
C17   O10   S    
H4    N2    S    
C24   H23   S    
Cu2   O2    S    
C7    H2    S    
C1    O2    A    
C16   C17   A    
Cu2   O4    S    
