data_mof_unit_11435.cif
_audit_creation_date              2012-12-11T14:54:22-0500
_audit_creation_method            fapswitch 2.2
_symmetry_space_group_name_H-M    P1
_symmetry_Int_Tables_number       1
_space_group_crystal_system       triclinic
_cell_length_a                    19.018801
_cell_length_b                    10.979124
_cell_length_c                    18.878006
_cell_angle_alpha                 90.00197
_cell_angle_beta                  90.526484
_cell_angle_gamma                 90.019557
_cell_volume                      3941.74552617

loop_
_atom_site_label
_atom_site_type_symbol
_atom_type_description
_atom_site_fract_x
_atom_site_fract_y
_atom_site_fract_z
_atom_type_partial_charge
C1    C     C_R   0.727359 0.371055 0.643532 0.545458
C2    C     C_R   0.269741 0.376774 0.353883 0.538068
C3    C     C_R   0.227360 0.871056 0.643532 0.545466
C4    C     C_R   0.769741 0.876774 0.353883 0.538070
C5    C     C_3   0.438902 0.358917 0.468934 -0.246049
C6    C     C_3   0.451850 0.356143 0.548262 -0.282695
C7    C     C_3   0.938897 0.858909 0.468936 -0.246051
C8    C     C_3   0.951847 0.856136 0.548264 -0.282698
C9    C     C_R   0.703921 0.856824 0.538696 -0.153665
C10   C     C_R   0.308391 0.883477 0.463431 -0.141050
C11   C     C_R   0.203921 0.356824 0.538696 -0.153665
C12   C     C_R   0.808400 0.383518 0.463437 -0.141056
C13   C     C_R   0.706524 0.840190 0.465753 -0.141156
C14   C     C_R   0.302599 0.870857 0.536466 -0.150975
C15   C     C_R   0.206522 0.340191 0.465753 -0.141155
C16   C     C_R   0.802605 0.370895 0.536472 -0.150988
C17   C     C_R   0.749356 0.916024 0.424192 0.023052
C18   C     C_R   0.238138 0.894484 0.568758 0.034208
C19   C     C_R   0.249357 0.416024 0.424193 0.023052
C20   C     C_R   0.738135 0.394476 0.568757 0.034207
C21   C     C_R   0.785035 0.013694 0.455205 -0.143139
C22   C     C_R   0.178787 0.923204 0.527109 -0.128024
C23   C     C_R   0.285038 0.513690 0.455206 -0.143140
C24   C     C_R   0.678779 0.423146 0.527101 -0.128016
C25   C     C_R   0.783524 0.028646 0.527656 -0.125898
C26   C     C_R   0.184114 0.932919 0.454733 -0.137736
C27   C     C_R   0.283528 0.528640 0.527657 -0.125898
C28   C     C_R   0.684111 0.432867 0.454726 -0.137740
C29   C     C_R   0.744546 0.948450 0.570113 0.030149
C30   C     C_R   0.249439 0.918619 0.422708 0.029095
C31   C     C_R   0.244547 0.448447 0.570113 0.030149
C32   C     C_R   0.749443 0.418617 0.422708 0.029086
C33   C     C_R   0.502049 0.060398 0.963885 -0.196864
C34   C     C_R   0.497939 0.060384 0.036141 -0.196467
C35   C     C_R   0.002042 0.560395 0.963880 -0.196860
C36   C     C_R   0.997926 0.560384 0.036135 -0.196514
C37   C     C_R   0.490698 0.168924 0.073227 -0.006541
C38   C     C_R   0.509467 0.168927 0.926838 -0.007131
C39   C     C_R   0.990671 0.668923 0.073217 -0.006489
C40   C     C_R   0.009448 0.668924 0.926830 -0.007114
C41   C     C_R   0.493595 0.281665 0.036574 0.264555
C42   C     C_R   0.506818 0.281649 0.963534 0.264417
C43   C     C_R   0.993542 0.781661 0.036561 0.264586
C44   C     C_R   0.006776 0.781649 0.963521 0.264351
C45   C     C_R   0.537939 0.154034 0.643274 0.546824
C46   C     C_R   0.468452 0.155541 0.353118 0.543903
C47   C     C_R   0.037942 0.654034 0.643273 0.546825
C48   C     C_R   0.968452 0.655542 0.353118 0.543907
C49   C     C_R   0.796158 0.004973 0.970160 -0.150123
C50   C     C_R   0.204167 0.005674 0.029730 -0.150351
C51   C     C_R   0.296166 0.504956 0.970156 -0.150120
C52   C     C_R   0.704214 0.505774 0.029710 -0.150400
C53   C     C_R   0.796706 0.995553 0.042351 -0.164112
C54   C     C_R   0.203607 0.996076 0.957538 -0.164168
C55   C     C_R   0.296711 0.495538 0.042347 -0.164137
C56   C     C_R   0.703649 0.496157 0.957518 -0.164165
C57   C     C_R   0.750333 0.916265 0.075857 0.047706
C58   C     C_R   0.249724 0.916283 0.924124 0.047552
C59   C     C_R   0.250337 0.416249 0.075852 0.047692
C60   C     C_R   0.749743 0.416315 0.924112 0.047562
C61   C     C_R   0.696985 0.855666 0.036265 0.278194
C62   C     C_R   0.302853 0.855338 0.963800 0.278294
C63   C     C_R   0.196993 0.355641 0.036258 0.278219
C64   C     C_R   0.802864 0.355354 0.963792 0.278299
C65   C     C_R   0.699038 0.864008 0.961632 -0.125547
C66   C     C_R   0.300747 0.863745 0.038416 -0.125356
C67   C     C_R   0.199043 0.363997 0.961626 -0.125538
C68   C     C_R   0.800753 0.363764 0.038409 -0.125349
C69   C     C_R   0.748403 0.939005 0.929075 -0.019210
C70   C     C_R   0.251616 0.939222 0.070892 -0.018715
C71   C     C_R   0.248408 0.438995 0.929071 -0.019210
C72   C     C_R   0.751634 0.439272 0.070879 -0.018720
C73   C     C_R   0.739655 0.975655 0.645120 0.542196
C74   C     C_R   0.258756 0.968451 0.352239 0.543229
C75   C     C_R   0.239656 0.475654 0.645120 0.542196
C76   C     C_R   0.758756 0.468451 0.352239 0.543243
C77   C     C_R   0.730297 0.378168 0.852561 0.572638
C78   C     C_R   0.269709 0.378178 0.147434 0.570871
C79   C     C_R   0.230293 0.878162 0.852565 0.572639
C80   C     C_R   0.769708 0.878183 0.147436 0.570877
C81   C     C_R   0.534186 0.157757 0.854342 0.564272
C82   C     C_R   0.465866 0.157771 0.145686 0.561874
C83   C     C_R   0.034181 0.657757 0.854339 0.564274
C84   C     C_R   0.965859 0.657771 0.145683 0.561941
C85   C     C_R   0.740972 0.973236 0.855175 0.549373
C86   C     C_R   0.259031 0.973300 0.144812 0.547179
C87   C     C_R   0.240973 0.473233 0.855174 0.549378
C88   C     C_R   0.759036 0.473315 0.144806 0.547185
C89   C     C_R   0.505360 0.166495 0.420464 0.017152
C90   C     C_R   0.525312 0.159032 0.567508 0.024778
C91   C     C_R   0.005361 0.666496 0.420464 0.017152
C92   C     C_R   0.025316 0.659033 0.567507 0.024778
C93   C     C_R   0.499068 0.272355 0.461526 0.004209
C94   C     C_R   0.510037 0.268941 0.533960 0.007047
C95   C     C_R   0.999066 0.772355 0.461526 0.004222
C96   C     C_R   0.010037 0.768941 0.533960 0.007069
C97   C     C_R   0.543777 0.058165 0.525293 -0.146166
C98   C     C_R   0.534495 0.062246 0.452091 -0.154148
C99   C     C_R   0.043783 0.558168 0.525291 -0.146173
C100  C     C_R   0.034499 0.562249 0.452089 -0.154156
Cr1   Cr    Cr6+3 0.771950 0.169480 0.750100 1.014014
Cr2   Cr    Cr6+3 0.228050 0.169480 0.249900 1.014138
Cr3   Cr    Cr6+3 0.271950 0.669480 0.750100 1.014039
Cr4   Cr    Cr6+3 0.728050 0.669480 0.249900 1.014148
Cr5   Cr    Cr6+3 0.614930 0.323340 0.749170 1.001543
Cr6   Cr    Cr6+3 0.385070 0.323340 0.250830 0.998182
Cr7   Cr    Cr6+3 0.114930 0.823340 0.749170 1.001531
Cr8   Cr    Cr6+3 0.885070 0.823340 0.250830 0.998160
Cr9   Cr    Cr6+3 0.616590 0.010620 0.750610 1.007516
Cr10  Cr    Cr6+3 0.383410 0.010620 0.249390 1.006042
Cr11  Cr    Cr6+3 0.116590 0.510620 0.750610 1.007512
Cr12  Cr    Cr6+3 0.883410 0.510620 0.249390 1.006048
H1    H     H_    0.562813 0.974349 0.548824 0.143463
H2    H     H_    0.543425 0.980125 0.421646 0.134237
H3    H     H_    0.062821 0.474354 0.548822 0.143463
H4    H     H_    0.043431 0.480131 0.421644 0.134236
H5    H     H_    0.832402 0.066877 0.946244 0.185568
H6    H     H_    0.168160 0.068021 0.053590 0.185922
H7    H     H_    0.332415 0.566854 0.946241 0.185553
H8    H     H_    0.668225 0.568158 0.053564 0.185961
H9    H     H_    0.836310 0.046171 0.071647 0.149908
H10   H     H_    0.164202 0.046987 0.928169 0.149625
H11   H     H_    0.336314 0.546158 0.071644 0.149893
H12   H     H_    0.664258 0.547091 0.928143 0.149586
H13   H     H_    0.662020 0.814769 0.928507 0.108340
H14   H     H_    0.337566 0.814164 0.071574 0.108264
H15   H     H_    0.162024 0.314766 0.928499 0.108354
H16   H     H_    0.837558 0.314158 0.071569 0.108263
H17   H     H_    0.887910 0.816806 0.453508 0.169309
H18   H     H_    0.971574 0.944146 0.569730 0.133648
H19   H     H_    0.387914 0.316820 0.453506 0.169315
H20   H     H_    0.471581 0.444152 0.569729 0.133648
H21   H     H_    0.449951 0.449081 0.444672 0.136226
H22   H     H_    0.407995 0.314392 0.578377 0.141430
H23   H     H_    0.949941 0.949073 0.444674 0.136228
H24   H     H_    0.907995 0.814380 0.578379 0.141424
H25   H     H_    0.671662 0.797100 0.570504 0.119175
H26   H     H_    0.359585 0.872407 0.439601 0.134002
H27   H     H_    0.171659 0.297102 0.570504 0.119171
H28   H     H_    0.859599 0.372488 0.439612 0.134019
H29   H     H_    0.678518 0.763719 0.442696 0.137957
H30   H     H_    0.348271 0.844696 0.567607 0.119257
H31   H     H_    0.178515 0.263723 0.442695 0.137951
H32   H     H_    0.848281 0.344772 0.567617 0.119259
H33   H     H_    0.817785 0.073738 0.424063 0.126702
H34   H     H_    0.127516 0.937271 0.550213 0.141117
H35   H     H_    0.317790 0.573733 0.424064 0.126699
H36   H     H_    0.627502 0.437171 0.550202 0.141127
H37   H     H_    0.813011 0.103719 0.550338 0.140285
H38   H     H_    0.137816 0.958784 0.424391 0.127608
H39   H     H_    0.313018 0.603709 0.550340 0.140276
H40   H     H_    0.637809 0.458698 0.424378 0.127599
H41   H     H_    0.504090 0.973741 0.937003 0.148482
H42   H     H_    0.495714 0.973705 0.062982 0.148714
H43   H     H_    0.004102 0.473734 0.937003 0.148491
H44   H     H_    0.995716 0.473707 0.062979 0.148714
O1    O     O_R   0.787510 0.042610 0.670410 -0.538664
O2    O     O_R   0.212490 0.042610 0.329590 -0.535669
O3    O     O_R   0.287510 0.542610 0.670410 -0.538653
O4    O     O_R   0.712490 0.542610 0.329590 -0.535635
O5    O     O_R   0.556450 0.252890 0.823790 -0.474431
O6    O     O_R   0.443550 0.252890 0.176210 -0.475445
O7    O     O_R   0.056450 0.752890 0.823790 -0.474440
O8    O     O_R   0.943550 0.752890 0.176210 -0.475460
O9    O     O_R   0.545750 0.051070 0.830560 -0.528015
O10   O     O_R   0.454250 0.051070 0.169440 -0.529908
O11   O     O_R   0.045750 0.551070 0.830560 -0.528018
O12   O     O_R   0.954250 0.551070 0.169440 -0.529920
O13   O     O_R   0.681210 0.959150 0.825320 -0.504060
O14   O     O_R   0.318790 0.959150 0.174680 -0.505247
O15   O     O_R   0.181210 0.459150 0.825320 -0.504064
O16   O     O_R   0.818790 0.459150 0.174680 -0.505246
O17   O     O_3   0.667820 0.167810 0.749960 -0.255561
O18   O     O_3   0.332180 0.167810 0.250040 -0.249289
O19   O     O_3   0.167820 0.667810 0.749960 -0.255564
O20   O     O_3   0.832180 0.667810 0.250040 -0.249306
O21   O     O_R   0.765670 0.292090 0.675090 -0.510128
O22   O     O_R   0.234330 0.292090 0.324910 -0.507659
O23   O     O_R   0.265670 0.792090 0.675090 -0.510128
O24   O     O_R   0.734330 0.792090 0.324910 -0.507659
O25   O     O_R   0.670220 0.409020 0.668560 -0.536971
O26   O     O_R   0.329780 0.409020 0.331440 -0.539129
O27   O     O_R   0.170220 0.909020 0.668560 -0.536973
O28   O     O_R   0.829780 0.909020 0.331440 -0.539137
O29   O     O_R   0.556580 0.251590 0.674980 -0.510430
O30   O     O_R   0.443420 0.251590 0.325020 -0.511676
O31   O     O_R   0.056580 0.751590 0.674980 -0.510438
O32   O     O_R   0.943420 0.751590 0.325020 -0.511701
O33   O     O_R   0.545890 0.049670 0.670030 -0.527269
O34   O     O_R   0.454110 0.049670 0.329970 -0.524771
O35   O     O_R   0.045890 0.549670 0.670030 -0.527273
O36   O     O_R   0.954110 0.549670 0.329970 -0.524770
O37   O     O_R   0.681340 0.957860 0.676500 -0.507262
O38   O     O_R   0.318660 0.957860 0.323500 -0.506908
O39   O     O_R   0.181340 0.457860 0.676500 -0.507264
O40   O     O_R   0.818660 0.457860 0.323500 -0.506909
O41   O     O_R   0.787380 0.044010 0.830940 -0.527799
O42   O     O_R   0.212620 0.044010 0.169060 -0.529447
O43   O     O_R   0.287380 0.544010 0.830940 -0.527781
O44   O     O_R   0.712620 0.544010 0.169060 -0.529462
O45   O     O_R   0.765540 0.293390 0.823910 -0.447111
O46   O     O_R   0.234460 0.293390 0.176090 -0.448296
O47   O     O_R   0.265540 0.793390 0.823910 -0.447099
O48   O     O_R   0.734460 0.793390 0.176090 -0.448321
O49   O     O_R   0.670090 0.410410 0.829090 -0.531428
O50   O     O_R   0.329910 0.410410 0.170910 -0.532340
O51   O     O_R   0.170090 0.910410 0.829090 -0.531439
O52   O     O_R   0.829910 0.910410 0.170910 -0.532291
O53   O     O_3   0.647428 0.786071 0.072442 -0.565321
C101  C     C_3   0.584297 0.767590 0.033939 -0.168559
H45   H     H_    0.588865 0.689101 0.997345 0.102417
H46   H     H_    0.568559 0.848835 0.003570 0.109392
H47   H     H_    0.541514 0.748032 0.071590 0.126858
O54   O     O_3   0.352229 0.785229 0.927759 -0.564896
C102  C     C_3   0.415494 0.767409 0.966136 -0.168411
H48   H     H_    0.411145 0.689087 0.002880 0.102103
H49   H     H_    0.431157 0.848911 0.996340 0.109449
H50   H     H_    0.458229 0.747939 0.928421 0.126800
O55   O     O_3   0.147443 0.286020 0.072429 -0.565285
C103  C     C_3   0.084313 0.267536 0.033925 -0.168572
H51   H     H_    0.088903 0.189110 0.997287 0.102318
H52   H     H_    0.068552 0.348817 0.003599 0.109427
H53   H     H_    0.041537 0.247869 0.071569 0.126775
O56   O     O_3   0.852234 0.285224 0.927758 -0.564916
C104  C     C_3   0.915497 0.267393 0.966137 -0.168418
H54   H     H_    0.911139 0.189081 0.002888 0.102119
H55   H     H_    0.931166 0.348896 0.996337 0.109466
H56   H     H_    0.958233 0.247899 0.928427 0.126791
O57   O     O_3   0.471553 0.388849 0.067982 -0.555542
C105  C     C_3   0.527602 0.443616 0.105608 0.032433
H57   H     H_    0.560065 0.495338 0.067738 0.151339
H58   H     H_    0.561241 0.375748 0.134039 0.123541
C106  C     C_3   0.496906 0.532248 0.159882 -0.270062
H59   H     H_    0.466845 0.604780 0.131916 0.136428
H60   H     H_    0.459967 0.483164 0.194843 0.215324
C107  C     C_3   0.553603 0.590064 0.206537 -0.457490
H61   H     H_    0.583114 0.518671 0.236009 0.163956
H62   H     H_    0.528742 0.652047 0.245444 0.121200
H63   H     H_    0.590440 0.643957 0.174024 0.213780
O58   O     O_3   0.528973 0.388767 0.932104 -0.555358
C108  C     C_3   0.472857 0.443936 0.894820 0.032114
H64   H     H_    0.440815 0.495924 0.932906 0.151104
H65   H     H_    0.438844 0.376302 0.866618 0.124254
C109  C     C_3   0.503431 0.532354 0.840342 -0.270248
H66   H     H_    0.533515 0.605093 0.868136 0.136271
H67   H     H_    0.540315 0.483182 0.805387 0.216050
C110  C     C_3   0.446626 0.589794 0.793683 -0.457097
H68   H     H_    0.417130 0.518178 0.764338 0.165451
H69   H     H_    0.471391 0.651699 0.754654 0.122593
H70   H     H_    0.409777 0.643681 0.826169 0.213371
O59   O     O_3   0.971494 0.888833 0.067980 -0.555498
C111  C     C_3   0.027581 0.943712 0.105500 0.032430
H71   H     H_    0.059869 0.995663 0.067567 0.151320
H72   H     H_    0.061392 0.875889 0.133786 0.123448
C112  C     C_3   0.996925 0.032111 0.159939 -0.270049
H73   H     H_    0.966750 0.104680 0.132113 0.136408
H74   H     H_    0.960095 0.982834 0.194936 0.215410
C113  C     C_3   0.053681 0.089891 0.206541 -0.457406
H75   H     H_    0.083364 0.018444 0.235819 0.164191
H76   H     H_    0.028842 0.151588 0.245629 0.121136
H77   H     H_    0.090373 0.144084 0.174008 0.213662
O60   O     O_3   0.028928 0.888772 0.932094 -0.555446
C114  C     C_3   0.972822 0.943917 0.894787 0.032069
H78   H     H_    0.940763 0.995902 0.932855 0.151093
H79   H     H_    0.938826 0.876270 0.866580 0.124265
C115  C     C_3   0.003404 0.032324 0.840308 -0.270236
H80   H     H_    0.033518 0.105041 0.868097 0.136313
H81   H     H_    0.040265 0.983120 0.805336 0.216004
C116  C     C_3   0.946597 0.089812 0.793669 -0.457083
H82   H     H_    0.917077 0.018221 0.764325 0.165487
H83   H     H_    0.971365 0.151713 0.754642 0.122587
H84   H     H_    0.909765 0.143712 0.826170 0.213386

loop_
_geom_bond_atom_site_label_1
_geom_bond_atom_site_label_2
_ccdc_geom_bond_type
C58   C62   A    
C114  C115  S    
C14   H30   S    
Cr11  O35   S    
C93   C94   A    
C88   O16   A    
C73   O37   A    
Cr3   O47   S    
C8    H24   S    
C34   C37   A    
C62   O54   S    
C41   C42   A    
C14   C18   A    
Cr1   O17   S    
C95   C96   A    
C8    C96   S    
Cr6   O6    S    
C87   O43   A    
C88   O44   A    
Cr8   O52   S    
Cr3   O3    S    
O56   C104  S    
Cr2   O2    S    
C74   O38   A    
C97   C98   A    
C7    C8    S    
Cr4   O20   S    
C46   C89   S    
C66   C70   A    
C107  H61   S    
C15   C19   A    
Cr8   O8    S    
C23   H35   S    
C50   C54   A    
C51   C71   A    
C105  C106  S    
Cr11  O19   S    
C64   C68   A    
C16   H32   S    
Cr4   O4    S    
C39   C84   S    
C38   C42   A    
C5    H19   S    
C77   O49   A    
C102  H49   S    
C2    O26   A    
C5    C6    S    
C30   C74   S    
C33   H41   S    
C98   H2    S    
C67   C71   A    
C29   C73   S    
C63   O55   S    
Cr12  O12   S    
Cr7   O31   S    
C92   C96   A    
C104  H56   S    
C10   H26   S    
C109  H66   S    
C64   O56   S    
C3    C18   S    
C25   H37   S    
C108  H64   S    
C47   C92   S    
Cr1   O41   S    
Cr5   O29   S    
C57   C61   A    
C11   H27   S    
Cr6   O26   S    
C9    C13   A    
C76   O40   A    
C9    H25   S    
Cr12  O40   S    
C22   H34   S    
Cr9   O33   S    
C6    C94   S    
C48   C91   S    
C100  H4    S    
Cr10  O38   S    
C51   H7    S    
C12   H28   S    
Cr9   O37   S    
C23   C27   A    
C91   C100  A    
C18   C22   A    
C24   C28   A    
C106  H59   S    
C68   H16   S    
C90   C97   A    
Cr7   O51   S    
C116  H82   S    
C84   O8    A    
C46   O34   A    
C68   C72   A    
C112  H74   S    
C110  H69   S    
C114  H78   S    
C54   H10   S    
C112  C113  S    
C11   C31   A    
Cr5   O17   S    
C115  H80   S    
C12   C32   A    
C89   C93   A    
Cr4   O44   S    
C57   C80   S    
C40   C83   S    
Cr6   O50   S    
C1    O21   A    
C4    O24   A    
C59   C78   S    
C103  H52   S    
C103  H51   S    
C72   C88   S    
Cr9   O13   S    
C90   C94   A    
C55   H11   S    
C34   H42   S    
C42   O58   S    
C25   C29   A    
O53   C101  S    
C49   H5    S    
C60   C77   S    
C59   C63   A    
C82   O10   A    
Cr8   O28   S    
C27   C31   A    
C12   C16   A    
C28   C32   A    
Cr6   O30   S    
C6    H20   S    
C24   H36   S    
C102  H50   S    
O55   C103  S    
Cr1   O45   S    
C62   C66   A    
O54   C102  S    
C39   C43   A    
C82   O6    A    
C51   C55   A    
Cr3   O23   S    
C83   O11   A    
C1    O25   A    
Cr10  O34   S    
C17   C21   A    
C3    O23   A    
C48   O36   A    
Cr7   O27   S    
C108  H65   S    
C35   C36   A    
C21   H33   S    
Cr4   O24   S    
C19   C23   A    
C102  H48   S    
C78   O50   A    
C63   C67   A    
C7    H23   S    
O57   C105  S    
C52   C72   A    
C67   H15   S    
Cr12  O36   S    
C10   C30   A    
C31   C75   S    
C99   C100  A    
C26   H38   S    
C16   C20   A    
C87   O15   A    
C77   O45   A    
Cr3   O19   S    
C33   C34   A    
C5    H21   S    
C75   O39   A    
C48   O32   A    
Cr3   O43   S    
C4    O28   A    
C74   O2    A    
C105  H58   S    
C45   C90   S    
C106  H60   S    
Cr9   O9    S    
C58   C79   S    
C86   O42   A    
C111  C112  S    
C71   C87   S    
C4    C17   S    
C52   H8    S    
Cr4   O48   S    
C45   O33   A    
C80   O52   A    
C41   O57   S    
C3    O27   A    
C26   C30   A    
C83   O7    A    
C11   C15   A    
C50   H6    S    
C116  H83   S    
C43   C44   A    
C8    H18   S    
Cr2   O22   S    
C15   H31   S    
C37   C82   S    
C113  H77   S    
Cr11  O11   S    
C97   H1    S    
C112  H73   S    
C70   C86   S    
Cr10  O14   S    
C113  H76   S    
C69   C85   S    
C55   C59   A    
C36   H44   S    
C111  H72   S    
C54   C58   A    
C110  H70   S    
C75   O3    A    
C114  H79   S    
C109  H67   S    
C21   C25   A    
C76   O4    A    
C1    C20   S    
C27   H39   S    
C104  H54   S    
C2    C19   S    
C86   O14   A    
C81   O5    A    
C13   H29   S    
Cr8   O32   S    
C36   C39   A    
C78   O46   A    
C35   H43   S    
C115  C116  S    
C53   C57   A    
C32   C76   S    
C5    C93   S    
C110  H68   S    
C107  H63   S    
C47   O35   A    
Cr5   O49   S    
O60   C114  S    
C73   O1    A    
C9    C29   A    
O59   C111  S    
Cr2   O18   S    
C101  H47   S    
C7    C95   S    
C79   O47   A    
C33   C38   A    
C109  C110  S    
C13   C17   A    
C89   C98   A    
C60   C64   A    
C108  C109  S    
C101  H46   S    
C28   H40   S    
Cr2   O42   S    
C35   C40   A    
Cr2   O46   S    
C66   H14   S    
C38   C81   S    
C53   H9    S    
Cr12  O20   S    
C44   O60   S    
Cr10  O10   S    
C45   O29   A    
C65   H13   S    
Cr12  O16   S    
Cr10  O18   S    
Cr7   O19   S    
C61   O53   S    
C65   C69   A    
Cr8   O20   S    
C99   H3    S    
O58   C108  S    
C104  H55   S    
C107  H62   S    
C113  H75   S    
Cr9   O17   S    
C79   O51   A    
C61   C65   A    
C37   C41   A    
C105  H57   S    
C106  C107  S    
C85   O13   A    
C50   C70   A    
C7    H17   S    
C49   C53   A    
Cr1   O21   S    
C115  H81   S    
Cr1   O1    S    
C43   O59   S    
C40   C44   A    
C56   C60   A    
C84   O12   A    
C46   O30   A    
C91   C95   A    
C6    H22   S    
C101  H45   S    
C22   C26   A    
C116  H84   S    
Cr11  O39   S    
C81   O9    A    
C85   O41   A    
C56   H12   S    
Cr5   O5    S    
C49   C69   A    
Cr7   O7    S    
C2    O22   A    
Cr5   O25   S    
C80   O48   A    
C47   O31   A    
C20   C24   A    
C103  H53   S    
C52   C56   A    
C92   C99   A    
C10   C14   A    
C111  H71   S    
Cr11  O15   S    
Cr6   O18   S    
