data_mof_unit_15112.cif
_audit_creation_date              2012-10-26T19:54:46-0400
_audit_creation_method            fapswitch 2.2
_symmetry_space_group_name_H-M    P1
_symmetry_Int_Tables_number       1
_space_group_crystal_system       triclinic
_cell_length_a                    17.736935
_cell_length_b                    16.454004
_cell_length_c                    10.795717
_cell_angle_alpha                 90.034284
_cell_angle_beta                  90.20425
_cell_angle_gamma                 90.064491
_cell_volume                      3150.63832098

loop_
_atom_site_label
_atom_site_type_symbol
_atom_type_description
_atom_site_fract_x
_atom_site_fract_y
_atom_site_fract_z
_atom_type_partial_charge
C1    C     C_R   0.355441 0.499966 0.499193 0.535394
C2    C     C_R   0.549044 0.171235 0.577197 -0.125737
C3    C     C_R   0.548858 0.743154 0.574630 0.057833
C4    C     C_R   0.451884 0.256847 0.424108 0.061981
C5    C     C_R   0.451133 0.742946 0.425333 0.058027
C6    C     C_R   0.548144 0.257042 0.575876 0.056262
C7    C     C_R   0.499985 0.873046 0.499958 0.026172
C8    C     C_R   0.500035 0.126945 0.499970 0.025209
C9    C     C_1   0.499998 0.962699 0.499950 -0.000232
C10   C     C_1   0.500021 0.037292 0.499963 -0.000171
C11   C     C_R   0.500030 0.499984 0.262514 0.533451
C12   C     C_R   0.644566 0.500051 0.499515 0.536032
C13   C     C_R   0.499976 0.500014 0.737522 0.532858
C14   C     C_R   0.365307 0.538518 0.128456 -0.100765
C15   C     C_R   0.634815 0.461875 0.871795 -0.099488
C16   C     C_R   0.365080 0.537841 0.870485 -0.088015
C17   C     C_R   0.634732 0.461515 0.129767 -0.090238
C18   C     C_R   0.299431 0.556788 0.063586 -0.092173
C19   C     C_R   0.700584 0.443299 0.936787 -0.093444
C20   C     C_R   0.299296 0.556346 0.934834 -0.089405
C21   C     C_R   0.700536 0.443077 0.065541 -0.088490
C22   C     C_R   0.432856 0.519533 0.934530 0.010080
C23   C     C_R   0.885102 0.501107 0.488390 0.011725
C24   C     C_R   0.567092 0.480273 0.065625 0.010432
C25   C     C_R   0.432923 0.519699 0.064969 0.007474
C26   C     C_R   0.567110 0.480395 0.935186 0.007102
C27   C     C_R   0.499986 0.500012 0.871117 -0.010161
C28   C     C_R   0.500019 0.499978 0.128985 -0.009631
C29   C     C_R   0.845977 0.568998 0.536176 0.195853
C30   C     C_R   0.153910 0.432396 0.537426 0.221148
C31   C     C_R   0.155537 0.567490 0.442400 0.193962
C32   C     C_R   0.844549 0.433004 0.443869 0.196064
C33   C     C_R   0.767268 0.568130 0.538296 -0.124718
C34   C     C_R   0.114863 0.500081 0.488432 0.006200
C35   C     C_R   0.232635 0.432663 0.538935 -0.114181
C36   C     C_R   0.234179 0.567126 0.448411 -0.139712
C37   C     C_R   0.765933 0.432913 0.450131 -0.142534
C38   C     C_R   0.727124 0.500221 0.496517 -0.074541
C39   C     C_R   0.272889 0.499984 0.495911 -0.084597
C40   C     C_1   0.966112 0.500929 0.486822 0.183873
C41   C     C_1   0.033851 0.500632 0.486841 0.183859
C42   C     C_R   0.549751 0.828959 0.575914 -0.125161
C43   C     C_R   0.451018 0.171041 0.422755 -0.120783
C44   C     C_R   0.450222 0.828752 0.424015 -0.124493
Cu1   Cu    Cu3+1 0.500000 0.580420 0.500000 0.946284
Cu2   Cu    Cu3+1 0.500000 0.419580 0.500000 0.946021
H1    H     H_    0.751720 0.428877 0.115961 0.171442
H2    H     H_    0.262800 0.380603 0.575124 0.192003
H3    H     H_    0.265589 0.618905 0.414345 0.147054
H4    H     H_    0.734632 0.380649 0.417087 0.154217
H5    H     H_    0.589105 0.860572 0.635945 0.118375
H6    H     H_    0.412264 0.139430 0.361697 0.121168
H7    H     H_    0.410868 0.860202 0.363961 0.117350
H8    H     H_    0.587807 0.139776 0.638248 0.118179
H9    H     H_    0.587517 0.710132 0.633733 0.130473
H10   H     H_    0.413804 0.289875 0.364037 0.136817
H11   H     H_    0.412495 0.709757 0.366207 0.124787
H12   H     H_    0.247984 0.570147 0.884521 0.154255
H13   H     H_    0.586208 0.290227 0.635976 0.130051
H14   H     H_    0.808042 0.749943 0.614065 0.345590
H15   H     H_    0.135924 0.240724 0.705631 0.389428
H16   H     H_    0.197076 0.745038 0.349220 0.346823
H17   H     H_    0.804018 0.253926 0.353364 0.350455
H18   H     H_    0.751829 0.429305 0.886977 0.152262
H19   H     H_    0.248248 0.570984 0.113500 0.171311
H20   H     H_    0.362430 0.538932 0.228488 0.121939
H21   H     H_    0.637825 0.461893 0.771756 0.124059
H22   H     H_    0.362016 0.537666 0.770420 0.132526
H23   H     H_    0.637667 0.461245 0.229825 0.129721
H24   H     H_    0.736979 0.620204 0.573814 0.154239
N1    N     N_R   0.500000 0.701220 0.500000 -0.219340
N2    N     N_R   0.500000 0.298780 0.500000 -0.221859
O1    O     O_R   0.391260 0.567930 0.500000 -0.510350
O2    O     O_2   0.921118 0.704731 0.481706 -0.194064
O3    O     O_3   0.834745 0.715340 0.675088 -0.489477
O4    O     O_2   0.040038 0.369977 0.671456 -0.236669
O5    O     O_2   0.080272 0.295383 0.486266 -0.185839
O6    O     O_3   0.165635 0.289248 0.681862 -0.522332
O7    O     O_2   0.044334 0.629298 0.300507 -0.196880
O8    O     O_2   0.083105 0.706792 0.483527 -0.193685
O9    O     O_3   0.170972 0.707656 0.291232 -0.508049
O10   O     O_2   0.955463 0.370630 0.303040 -0.199070
O11   O     O_2   0.917813 0.294421 0.487337 -0.201561
O12   O     O_R   0.608740 0.432070 0.500000 -0.513046
O13   O     O_3   0.829131 0.291586 0.295034 -0.505687
O14   O     O_R   0.608740 0.567930 0.500000 -0.498700
O15   O     O_R   0.391260 0.432070 0.500000 -0.497821
O16   O     O_R   0.500000 0.567910 0.319660 -0.499543
O17   O     O_R   0.500000 0.432090 0.680340 -0.499466
O18   O     O_R   0.500000 0.567910 0.680340 -0.501440
O19   O     O_R   0.500000 0.432090 0.319660 -0.503301
O20   O     O_2   0.959366 0.633369 0.670430 -0.198538
S1    S     S_3+6 0.893207 0.656919 0.590897 0.072943
S2    S     S_3+6 0.106709 0.345354 0.594542 0.057998
S3    S     S_3+6 0.110511 0.654142 0.379233 0.064881
S4    S     S_3+6 0.889726 0.346093 0.382162 0.061740

loop_
_geom_bond_atom_site_label_1
_geom_bond_atom_site_label_2
_ccdc_geom_bond_type
C1    O15   A    
C3    C42   A    
C17   H23   S    
C13   O18   A    
Cu1   N1    S    
C14   C18   A    
C35   C39   A    
C8    C43   A    
Cu2   O17   S    
Cu1   Cu2   S    
C25   C28   A    
C6    N2    A    
C26   C27   A    
C30   C35   A    
C23   C29   A    
C19   C21   A    
C24   C26   A    
O9    S3    S    
O13   S4    S    
C43   H6    S    
C23   C40   S    
C29   C33   A    
O5    S2    D    
C12   O12   A    
Cu1   O1    S    
C7    C42   A    
O4    S2    D    
C15   C19   A    
C3    H9    S    
C44   H7    S    
C22   C25   A    
C16   H22   S    
C9    C10   T    
C19   H18   S    
Cu2   N2    S    
C42   H5    S    
C4    H10   S    
O2    S1    D    
C2    C6    A    
C34   C41   S    
C35   H2    S    
C17   C24   A    
O10   S4    D    
C30   C34   A    
Cu1   O16   S    
C2    H8    S    
C15   C26   A    
Cu2   O19   S    
C32   C37   A    
C17   C21   A    
C18   H19   S    
C3    N1    A    
O7    S3    D    
C37   C38   A    
C11   O16   A    
C16   C20   A    
C15   H21   S    
C14   H20   S    
C31   C34   A    
C7    C44   A    
O8    S3    D    
Cu1   O18   S    
C33   H24   S    
Cu2   O12   S    
C8    C10   S    
C40   C41   T    
C32   S4    S    
H16   O9    S    
C22   C27   A    
C20   H12   S    
C4    N2    A    
O3    S1    S    
Cu2   O15   S    
C7    C9    S    
C16   C22   A    
C13   O17   A    
C6    H13   S    
C5    C44   A    
C36   C39   A    
C2    C8    A    
C24   C28   A    
C4    C43   A    
C5    H11   S    
H14   O3    S    
C33   C38   A    
C12   O14   A    
C1    O1    A    
C23   C32   A    
Cu1   O14   S    
C5    N1    A    
C29   S1    S    
C37   H4    S    
C11   C28   S    
O6    S2    S    
C31   S3    S    
O11   S4    D    
O20   S1    D    
C18   C20   A    
C14   C25   A    
C12   C38   S    
H15   O6    S    
C1    C39   S    
C11   O19   A    
C30   S2    S    
C31   C36   A    
C13   C27   S    
H17   O13   S    
C36   H3    S    
C21   H1    S    
