data_mof_unit_18274.cif
_audit_creation_date              2012-12-10T17:26:14-0500
_audit_creation_method            fapswitch 2.2
_symmetry_space_group_name_H-M    P1
_symmetry_Int_Tables_number       1
_space_group_crystal_system       triclinic
_cell_length_a                    10.089677
_cell_length_b                    10.707893
_cell_length_c                    27.639403
_cell_angle_alpha                 89.467417
_cell_angle_beta                  82.558546
_cell_angle_gamma                 95.473261
_cell_volume                      2946.77971697

loop_
_atom_site_label
_atom_site_type_symbol
_atom_type_description
_atom_site_fract_x
_atom_site_fract_y
_atom_site_fract_z
_atom_type_partial_charge
C1    C     C_R   0.556433 0.733546 0.494942 0.890850
C2    C     C_R   0.537001 0.627199 0.123757 -0.074637
C3    C     C_R   0.507744 0.493328 0.646549 -0.051634
C4    C     C_R   0.492286 0.506804 0.353456 -0.045601
C5    C     C_R   0.558909 0.610071 0.020929 -0.005298
C6    C     C_R   0.441068 0.390338 0.979096 -0.005248
C7    C     C_R   0.413966 0.411179 0.029969 0.048773
C8    C     C_R   0.585995 0.589240 0.970053 0.048843
C9    C     C_R   0.480768 0.515434 0.050962 0.067349
C10   C     C_R   0.519205 0.484975 0.949061 0.067406
C11   C     C_R   0.598803 0.725215 0.042817 -0.071832
C12   C     C_R   0.443279 0.266511 0.501449 0.892381
C13   C     C_R   0.401203 0.275179 0.957212 -0.071767
C14   C     C_R   0.596320 0.730965 0.093750 -0.051016
C15   C     C_R   0.403724 0.269400 0.906278 -0.051252
C16   C     C_R   0.501968 0.498892 0.593972 0.881785
C17   C     C_R   0.498038 0.501130 0.406027 0.865874
C18   C     C_R   0.687250 0.663338 0.939974 -0.238865
C19   C     C_R   0.312698 0.337090 0.060047 -0.238949
C20   C     C_2   0.588989 0.867056 0.485716 -0.179091
C21   C     C_2   0.409589 0.133271 0.495874 -0.183828
C22   C     C_2   0.491157 0.932748 0.473463 -0.191064
C23   C     C_R   0.532463 0.474995 0.897634 -0.070471
C24   C     C_2   0.504990 0.068186 0.472714 -0.192429
C25   C     C_2   0.927649 0.510211 0.503969 -0.116988
C26   C     C_2   0.072369 0.489844 0.496008 -0.121842
C27   C     C_R   0.608377 0.566688 0.817104 0.507522
C28   C     C_R   0.391591 0.433707 0.182918 0.507136
C29   C     C_R   0.460456 0.377794 0.825354 0.515906
C30   C     C_R   0.539635 0.622524 0.174666 0.515387
C31   C     C_R   0.402483 0.507801 0.729820 -0.091804
C32   C     C_R   0.597400 0.491975 0.270187 -0.093419
C33   C     C_R   0.395411 0.514650 0.679917 -0.204161
C34   C     C_R   0.467526 0.525396 0.102389 -0.070641
C35   C     C_R   0.604455 0.485031 0.320089 -0.208104
C36   C     C_R   0.626697 0.464595 0.663754 -0.205288
C37   C     C_R   0.373527 0.536104 0.336256 -0.210059
C38   C     C_R   0.633243 0.457381 0.713507 -0.092831
C39   C     C_R   0.366993 0.543392 0.286505 -0.095050
C40   C     C_R   0.521473 0.479283 0.746567 0.313893
C41   C     C_R   0.478590 0.521026 0.253446 0.315631
C42   C     C_1   0.278476 0.075228 0.516514 0.201880
C43   C     C_1   0.721698 0.924683 0.491724 0.197782
C44   C     C_1   0.803319 0.740980 0.861881 0.285461
C45   C     C_R   0.614227 0.567903 0.867642 -0.054492
C46   C     C_1   0.196645 0.259420 0.138137 0.284919
C47   C     C_1   0.647798 0.847338 0.114382 0.303541
C48   C     C_1   0.352271 0.153007 0.885654 0.304054
C49   C     C_1   0.623042 0.842636 0.014733 0.172036
C50   C     C_1   0.376958 0.157772 0.985305 0.171985
C51   C     C_R   0.385739 0.432499 0.132380 -0.054455
C52   C     C_R   0.699263 0.656936 0.889471 -0.000299
C53   C     C_R   0.300686 0.343484 0.110550 0.000030
C54   C     C_R   0.463039 0.373159 0.876267 -0.074751
H1    H     H_    0.714750 0.447230 0.638855 0.167889
H2    H     H_    0.302683 0.536822 0.667528 0.168303
H3    H     H_    0.683696 0.474217 0.244489 0.146606
H4    H     H_    0.316046 0.525202 0.755514 0.147107
H5    H     H_    0.760811 0.725249 0.955514 0.156486
H6    H     H_    0.239138 0.275184 0.044504 0.156528
H7    H     H_    0.602110 0.114650 0.457373 0.190302
H8    H     H_    0.392783 0.886568 0.469074 0.191539
H9    H     H_    0.285622 0.553858 0.361158 0.166012
H10   H     H_    0.107831 0.422208 0.469565 0.166763
H11   H     H_    0.892199 0.577884 0.530398 0.167743
H12   H     H_    0.120795 0.614766 0.544834 0.174419
H13   H     H_    0.879188 0.385196 0.455178 0.169759
H14   H     H_    0.725204 0.435156 0.726487 0.145684
H15   H     H_    0.275177 0.566027 0.273524 0.144771
H16   H     H_    0.697026 0.462414 0.332480 0.166641
N1    N     N_R   0.529851 0.474661 0.797695 -0.353854
N2    N     N_1   0.311268 0.060031 0.869468 -0.149327
N3    N     N_1   0.642137 0.936314 0.992554 -0.178036
N4    N     N_1   0.357857 0.064105 0.007492 -0.178142
N5    N     N_R   0.470191 0.525680 0.202322 -0.353789
N6    N     N_2   0.842700 0.448890 0.480020 -0.192751
N7    N     N_2   0.157300 0.551110 0.519980 -0.193194
N8    N     N_1   0.173819 0.028932 0.532980 -0.180728
N9    N     N_1   0.827615 0.970628 0.496529 -0.185218
N10   N     N_1   0.886793 0.808355 0.839994 -0.152624
N11   N     N_1   0.113186 0.192028 0.160023 -0.154544
N12   N     N_1   0.688821 0.940299 0.130573 -0.150489
O1    O     O_R   0.431060 0.692470 0.504020 -0.608282
O2    O     O_2   0.323493 0.341893 0.212568 -0.548502
O3    O     O_2   0.612160 0.712171 0.196689 -0.547738
O4    O     O_2   0.388033 0.288075 0.803328 -0.546469
O5    O     O_R   0.568940 0.307530 0.495980 -0.607455
O6    O     O_R   0.651120 0.659650 0.491200 -0.601945
O7    O     O_R   0.348880 0.340350 0.508800 -0.601163
O8    O     O_R   0.389980 0.516390 0.577660 -0.606776
O9    O     O_R   0.610020 0.483610 0.422340 -0.613544
O10   O     O_R   0.610040 0.483570 0.564830 -0.615753
O11   O     O_R   0.389960 0.516430 0.435170 -0.622326
O12   O     O_2   0.676396 0.658555 0.787460 -0.546978
Zn1   Zn    Zn3+2 0.353060 0.521910 0.508560 0.960189
Zn2   Zn    Zn3+2 0.646940 0.478090 0.491440 0.959627

loop_
_geom_bond_atom_site_label_1
_geom_bond_atom_site_label_2
_ccdc_geom_bond_type
O6    Zn2   S    
C16   O8    A    
C24   H7    S    
C23   C45   A    
C40   N1    S    
C28   O2    S    
C17   O9    A    
C18   C52   A    
O8    Zn1   S    
C39   C41   A    
C34   C51   A    
C32   H3    S    
C31   H4    S    
C5    C11   A    
C50   N4    T    
C28   C51   A    
C41   N5    S    
C27   C45   A    
C3    C33   A    
C43   N9    T    
O10   Zn2   S    
C31   C40   A    
C47   N12   T    
C26   H10   S    
O9    Zn2   S    
C35   H16   S    
C32   C41   A    
C31   C33   A    
C2    C34   A    
C1    O6    A    
C4    C35   A    
O11   Zn1   S    
C15   C48   S    
C48   N2    T    
C37   H9    S    
C26   N7    D    
C32   C35   A    
C12   O7    A    
C44   N10   T    
C25   H11   S    
C45   C52   A    
C25   C26   S    
C12   C21   S    
N7    Zn1   S    
C8    C18   A    
C13   C50   S    
C51   C53   A    
O7    Zn1   S    
C15   C54   A    
C5    C9    A    
C11   C49   S    
C22   H8    S    
C46   N11   T    
O1    Zn1   S    
O5    Zn2   S    
C39   H15   S    
C30   O3    S    
C29   O4    S    
C6    C7    A    
C4    C17   S    
C38   H14   S    
C42   N8    T    
C7    C19   A    
C13   C15   A    
C9    C34   A    
C10   C23   A    
C49   N3    T    
C17   O11   A    
C20   C43   S    
C27   N1    A    
C23   C54   A    
C7    C9    A    
H12   N7    S    
C1    C20   S    
C12   O5    A    
C20   C22   D    
C44   C52   S    
C6    C10   A    
C5    C8    A    
C16   O10   A    
C14   C47   S    
C19   H6    S    
C1    O1    A    
C2    C30   A    
C25   N6    D    
C36   C38   A    
C37   C39   A    
C36   H1    S    
N6    Zn2   S    
C6    C13   A    
C38   C40   A    
C30   N5    A    
C19   C53   A    
C3    C36   A    
C33   H2    S    
C46   C53   S    
C11   C14   A    
C22   C24   S    
C2    C14   A    
C21   C42   S    
C18   H5    S    
C4    C37   A    
C8    C10   A    
C29   C54   A    
C21   C24   D    
C27   O12   S    
H13   N6    S    
C28   N5    A    
C3    C16   S    
C29   N1    A    
