data_mof_unit_36785.cif
_audit_creation_date              2012-12-10T19:51:00-0500
_audit_creation_method            fapswitch 2.2
_symmetry_space_group_name_H-M    P1
_symmetry_Int_Tables_number       1
_space_group_crystal_system       triclinic
_cell_length_a                    23.509926
_cell_length_b                    10.823825
_cell_length_c                    22.189126
_cell_angle_alpha                 90.388444
_cell_angle_beta                  89.909717
_cell_angle_gamma                 89.789074
_cell_volume                      5646.23227517

loop_
_atom_site_label
_atom_site_type_symbol
_atom_type_description
_atom_site_fract_x
_atom_site_fract_y
_atom_site_fract_z
_atom_type_partial_charge
C1    C     C_R   0.500361 0.262091 0.499658 0.855066
C2    C     C_R   0.701474 0.473223 0.553533 -0.184715
C3    C     C_R   0.238885 0.472599 0.552406 -0.121247
C4    C     C_R   0.760638 0.473627 0.554006 -0.154983
C5    C     C_R   0.208855 0.503940 0.500250 0.344685
C6    C     C_R   0.791073 0.498201 0.501235 0.344809
C7    C     C_R   0.330320 0.234118 0.408663 -0.120720
C8    C     C_R   0.677921 0.777867 0.577333 -0.111277
C9    C     C_R   0.367649 0.167100 0.445121 -0.152749
C10   C     C_R   0.636454 0.842034 0.544924 -0.170216
C11   C     C_R   0.421494 0.132909 0.423187 0.132691
C12   C     C_R   0.499729 0.737856 0.500304 0.855686
C13   C     C_R   0.583180 0.866624 0.571063 0.123346
C14   C     C_R   0.437523 0.166103 0.364477 -0.007156
C15   C     C_R   0.571826 0.826309 0.629897 0.000121
C16   C     C_R   0.390716 0.500303 0.500038 0.863872
C17   C     C_R   0.609283 0.499484 0.499982 0.863664
C18   C     C_R   0.400390 0.234456 0.328501 -0.109422
C19   C     C_R   0.613143 0.760697 0.661853 -0.119384
C20   C     C_R   0.346856 0.268489 0.350578 -0.126983
C21   C     C_R   0.666199 0.736761 0.635641 -0.121497
C22   C     C_R   0.459593 0.935172 0.464538 -0.033895
C23   C     C_R   0.238611 0.535398 0.447113 0.112339
C24   C     C_R   0.540781 0.064666 0.535161 -0.034899
C25   C     C_R   0.498880 0.871673 0.501218 -0.167117
C26   C     C_R   0.501458 0.128179 0.498541 -0.169080
C27   C     C_R   0.539264 0.935419 0.536632 -0.088905
C28   C     C_R   0.461976 0.064237 0.462027 -0.095594
C29   C     C_R   0.488617 0.393427 0.871673 0.542782
C30   C     C_R   0.511231 0.606298 0.128369 0.541325
C31   C     C_R   0.512439 0.607485 0.872682 0.534089
C32   C     C_R   0.487514 0.392181 0.127366 0.532624
C33   C     C_R   0.512199 0.609341 0.936461 -0.017866
C34   C     C_R   0.761857 0.522227 0.446944 0.128973
C35   C     C_R   0.487717 0.390337 0.063587 -0.017182
C36   C     C_R   0.500100 0.499998 0.967948 -0.014082
C37   C     C_R   0.499791 0.499696 0.032099 -0.014224
C38   C     C_R   0.488311 0.390954 0.935426 -0.023785
C39   C     C_R   0.511562 0.608754 0.064619 -0.023726
C40   C     C_R   0.879789 0.608445 0.511437 0.525381
C41   C     C_R   0.119988 0.392614 0.497401 0.508768
C42   C     C_R   0.523928 0.717736 0.969488 -0.161183
C43   C     C_R   0.475983 0.281947 0.030559 -0.162171
C44   C     C_R   0.523605 0.717452 0.032634 -0.162545
C45   C     C_R   0.298275 0.533751 0.447659 -0.200350
C46   C     C_R   0.476273 0.282251 0.967413 -0.161230
C47   C     C_R   0.536986 0.422954 0.256622 -0.236931
C48   C     C_R   0.463288 0.577620 0.743391 -0.226652
C49   C     C_R   0.536651 0.424911 0.319946 0.023670
C50   C     C_R   0.463676 0.575816 0.680064 0.026642
C51   C     C_R   0.462692 0.573741 0.320691 0.057698
C52   C     C_R   0.536940 0.425389 0.679308 0.055456
C53   C     C_R   0.461644 0.574585 0.257395 -0.231715
C54   C     C_R   0.537945 0.424413 0.742607 -0.228674
C55   C     C_R   0.499241 0.498739 0.224412 0.352018
C56   C     C_R   0.702220 0.521356 0.446997 -0.258527
C57   C     C_R   0.500669 0.500991 0.775609 0.350689
C58   C     C_R   0.880856 0.389310 0.497236 0.525281
C59   C     C_R   0.118998 0.612098 0.509959 0.523575
C60   C     C_R   0.940500 0.387640 0.497893 -0.017429
C61   C     C_R   0.059337 0.613404 0.511081 -0.015213
C62   C     C_R   0.969901 0.500055 0.504771 -0.021839
C63   C     C_R   0.029917 0.500936 0.504594 -0.016154
C64   C     C_R   0.939427 0.611592 0.511756 -0.010131
C65   C     C_R   0.060374 0.389320 0.497970 -0.008219
C66   C     C_R   0.971298 0.276844 0.491516 -0.166187
C67   C     C_R   0.328200 0.502024 0.500075 -0.047259
C68   C     C_R   0.028533 0.724023 0.518240 -0.167931
C69   C     C_R   0.030634 0.277649 0.491677 -0.167043
C70   C     C_R   0.969182 0.723110 0.518641 -0.166129
C71   C     C_2   0.414419 0.867339 0.430928 0.841890
C72   C     C_2   0.585544 0.132520 0.569356 0.844229
C73   C     C_3   0.208020 0.571446 0.389879 -0.403995
C74   C     C_3   0.187818 0.457462 0.354722 -0.357637
C75   C     C_3   0.159513 0.494142 0.295639 -0.825162
C76   C     C_3   0.792963 0.547495 0.388619 -0.403352
C77   C     C_3   0.787149 0.683631 0.370850 -0.344486
C78   C     C_R   0.671796 0.497845 0.500129 -0.041331
C79   C     C_3   0.820170 0.710566 0.313203 -0.812964
C80   C     C_R   0.298058 0.472081 0.552482 -0.237793
Cu1   Cu    Cu3+1 0.500000 0.499970 0.559570 0.970264
Cu2   Cu    Cu3+1 0.500000 0.500030 0.440430 0.968098
H1    H     H_    0.949686 0.189234 0.486268 0.187613
H2    H     H_    0.467021 0.196832 0.943758 0.189400
H3    H     H_    0.566677 0.363419 0.232842 0.158402
H4    H     H_    0.433825 0.637701 0.767167 0.160520
H5    H     H_    0.565778 0.366129 0.344365 0.137461
H6    H     H_    0.434812 0.635211 0.655649 0.140871
H7    H     H_    0.433471 0.632028 0.345694 0.145894
H8    H     H_    0.565902 0.366496 0.654300 0.147914
H9    H     H_    0.431614 0.633541 0.234237 0.156688
H10   H     H_    0.567703 0.364790 0.765751 0.158489
H11   H     H_    0.053077 0.190637 0.486522 0.189029
H12   H     H_    0.050153 0.811651 0.523368 0.189508
H13   H     H_    0.946736 0.810051 0.524077 0.189222
H14   H     H_    0.321411 0.557243 0.407053 0.157061
H15   H     H_    0.679624 0.539690 0.405455 0.159963
H16   H     H_    0.320213 0.447104 0.593414 0.168575
H17   H     H_    0.678964 0.454031 0.595039 0.162812
H18   H     H_    0.216088 0.448636 0.593105 0.151338
H19   H     H_    0.783065 0.455135 0.595587 0.146514
H20   H     H_    0.318302 0.321491 0.322583 0.124121
H21   H     H_    0.698194 0.686103 0.660429 0.136116
H22   H     H_    0.288755 0.260229 0.425612 0.161235
H23   H     H_    0.479038 0.140563 0.347090 0.131014
H24   H     H_    0.718996 0.759139 0.557064 0.174731
H25   H     H_    0.354812 0.142290 0.490331 0.140843
H26   H     H_    0.645769 0.872658 0.499614 0.138640
H27   H     H_    0.373423 0.839207 0.352256 0.322690
H28   H     H_    0.626366 0.158436 0.648301 0.326667
H29   H     H_    0.121919 0.553992 0.304647 0.257285
H30   H     H_    0.190070 0.544342 0.266552 0.255000
H31   H     H_    0.145189 0.409899 0.271289 0.249064
H32   H     H_    0.224598 0.396146 0.344604 0.217281
H33   H     H_    0.156750 0.404698 0.381827 0.247976
H34   H     H_    0.530896 0.844806 0.650609 0.136130
H35   H     H_    0.171378 0.632809 0.400475 0.224801
H36   H     H_    0.237001 0.625784 0.360633 0.198601
H37   H     H_    0.866175 0.691204 0.319779 0.255163
H38   H     H_    0.803943 0.652893 0.275412 0.255626
H39   H     H_    0.814921 0.809417 0.301288 0.249826
H40   H     H_    0.741628 0.707176 0.363550 0.219088
H41   H     H_    0.803715 0.743568 0.407638 0.261744
H42   H     H_    0.838793 0.523620 0.392225 0.206530
H43   H     H_    0.775083 0.487594 0.352463 0.201222
H44   H     H_    0.413172 0.261315 0.283583 0.163428
H45   H     H_    0.604040 0.728528 0.706926 0.154107
H46   H     H_    0.533399 0.803369 0.946655 0.188875
H47   H     H_    0.466526 0.196308 0.053394 0.188644
H48   H     H_    0.532846 0.802877 0.056289 0.188725
N1    N     N_R   0.851975 0.498681 0.503471 -0.470675
N2    N     N_R   0.147875 0.503093 0.502044 -0.465110
N3    N     N_R   0.500625 0.500621 0.841266 -0.453013
N4    N     N_R   0.499275 0.499080 0.158768 -0.452279
N5    N     N_R   0.500010 0.500010 0.350920 -0.173564
N6    N     N_R   0.499990 0.499990 0.649080 -0.176315
O1    O     O_R   0.500000 0.319610 0.550310 -0.576757
O2    O     O_2   0.149948 0.286579 0.491598 -0.550425
O3    O     O_2   0.851869 0.282860 0.490056 -0.527524
O4    O     O_2   0.148005 0.718669 0.516582 -0.531112
O5    O     O_2   0.476326 0.289530 0.840490 -0.529003
O6    O     O_2   0.523440 0.710230 0.159561 -0.531975
O7    O     O_2   0.525022 0.711636 0.842480 -0.546882
O8    O     O_2   0.475038 0.287990 0.157584 -0.553330
O9    O     O_2   0.384949 0.791686 0.457028 -0.619349
O10   O     O_R   0.405517 0.890391 0.369744 -0.760386
O11   O     O_2   0.614647 0.209859 0.543982 -0.618862
O12   O     O_R   0.500000 0.680390 0.449690 -0.578453
O13   O     O_R   0.594577 0.107120 0.630289 -0.757381
O14   O     O_R   0.499990 0.319670 0.449690 -0.588423
O15   O     O_R   0.500010 0.680330 0.550310 -0.589855
O16   O     O_R   0.417880 0.499930 0.550320 -0.591879
O17   O     O_R   0.582120 0.500070 0.449680 -0.595692
O18   O     O_R   0.417880 0.499990 0.449700 -0.580735
O19   O     O_R   0.582120 0.500010 0.550300 -0.580319
O20   O     O_2   0.849773 0.713934 0.518945 -0.561944

loop_
_geom_bond_atom_site_label_1
_geom_bond_atom_site_label_2
_ccdc_geom_bond_type
C58   O3    S    
C29   N3    A    
C63   C65   A    
C34   C56   A    
C23   C45   A    
C73   C74   S    
C14   C18   A    
C10   H26   S    
H27   O10   S    
C24   C27   A    
C31   N3    A    
H28   O13   S    
C17   O17   A    
Cu1   Cu2   S    
C48   C57   A    
C47   C49   A    
Cu1   O1    S    
C79   H39   S    
C75   H30   S    
C2    C78   A    
C33   C42   A    
C47   H3    S    
C36   C37   A    
C35   C37   A    
C24   C26   A    
C69   H11   S    
C11   C14   A    
C66   C69   A    
C20   H20   S    
C74   H33   S    
C44   H48   S    
C74   H32   S    
C33   C36   A    
C56   C78   A    
C60   C62   A    
Cu2   N5    S    
C61   C63   A    
C49   H5    S    
C62   C64   A    
C77   H40   S    
C14   H23   S    
C66   H1    S    
Cu2   O17   S    
C51   N5    A    
C3    H18   S    
C5    N2    S    
C30   N4    A    
C22   C25   A    
C79   H37   S    
C29   C38   A    
C45   C67   A    
C31   C33   A    
C75   H31   S    
C64   C70   A    
C35   C43   A    
C50   H6    S    
C48   C50   A    
C49   N5    A    
C60   C66   A    
C22   C28   A    
C79   H38   S    
C76   H43   S    
C12   O15   A    
C57   N3    S    
C42   C44   A    
C56   H15   S    
C23   C73   S    
C3    C80   A    
C52   C54   A    
C53   C55   A    
C59   N2    A    
C59   C61   A    
C73   H35   S    
C74   C75   S    
C76   H42   S    
C32   C35   A    
C43   H47   S    
C76   C77   S    
C4    C6    A    
C52   H8    S    
C41   C65   A    
Cu1   O15   S    
C68   H12   S    
C6    C34   A    
C8    H24   S    
C51   C53   A    
C21   H21   S    
C15   C19   A    
C54   H10   S    
C62   C63   A    
C77   H41   S    
C5    C23   A    
C58   N1    A    
C29   O5    S    
C4    H19   S    
C8    C21   A    
C77   C79   S    
C1    O14   A    
C16   O16   A    
C16   C67   S    
C9    C11   A    
C41   O2    S    
Cu2   O14   S    
C46   H2    S    
C53   H9    S    
C8    C10   A    
C71   O9    D    
C40   N1    A    
C2    H17   S    
C7    C20   A    
C7    H22   S    
C13   C15   A    
C16   O18   A    
C1    C26   S    
C52   N6    A    
C48   H4    S    
C25   C27   A    
C55   N4    S    
C22   C71   S    
C1    O1    A    
C24   C72   S    
Cu1   N6    S    
C47   C55   A    
C7    C9    A    
C59   O4    S    
C73   H36   S    
C80   H16   S    
C75   H29   S    
C13   C27   S    
C67   C80   A    
C6    N1    S    
C3    C5    A    
C10   C13   A    
Cu1   O19   S    
C41   N2    A    
Cu2   O12   S    
C72   O11   D    
C39   C44   A    
C42   H46   S    
C9    H25   S    
Cu1   O16   S    
C26   C28   A    
C30   O6    S    
C12   C25   S    
C12   O12   A    
C36   C38   A    
C70   H13   S    
C37   C39   A    
C50   N6    A    
C18   H44   S    
C38   C46   A    
C32   N4    A    
C61   C68   A    
C11   C28   S    
C65   C69   A    
C2    C4    A    
C19   H45   S    
C17   C78   S    
C30   C39   A    
C18   C20   A    
C31   O7    S    
C43   C46   A    
C32   O8    S    
Cu2   O18   S    
C71   O10   S    
C68   C70   A    
C72   O13   S    
C15   H34   S    
C40   O20   S    
C40   C64   A    
C45   H14   S    
C58   C60   A    
C51   H7    S    
C34   C76   S    
C19   C21   A    
C54   C57   A    
C17   O19   A    
