data_mof_unit_21500.cif
_audit_creation_date              2013-03-05T15:50:56-0500
_audit_creation_method            fapswitch 2.2
_symmetry_space_group_name_H-M    P1
_symmetry_Int_Tables_number       1
_space_group_crystal_system       triclinic
_cell_length_a                    12.071662
_cell_length_b                    12.880676
_cell_length_c                    15.778752
_cell_angle_alpha                 90.395304
_cell_angle_beta                  85.316112
_cell_angle_gamma                 92.692376
_cell_volume                      2442.55216574

loop_
_atom_site_label
_atom_site_type_symbol
_atom_site_description
_atom_site_fract_x
_atom_site_fract_y
_atom_site_fract_z
_atom_type_partial_charge
O1    O     O_R   0.421690 0.658830 0.504140 -0.628123
O2    O     O_R   0.609320 0.646410 0.494190 -0.566442
C1    C     C_R   0.521736 0.700589 0.496812 0.917892
O3    O     O_R   0.406150 0.506210 0.627840 -0.612287
O4    O     O_R   0.593770 0.493790 0.617880 -0.628335
C2    C     C_R   0.499397 0.499633 0.661624 0.862672
Zn1   Zn    Zn3+2 0.374720 0.508290 0.506640 0.981283
Zn2   Zn    Zn3+2 0.625280 0.491710 0.493360 1.054032
O5    O     O_R   0.390680 0.353590 0.505810 -0.622547
O6    O     O_R   0.578310 0.341170 0.495860 -0.586232
O7    O     O_R   0.406230 0.506210 0.382120 -0.634221
O8    O     O_R   0.593850 0.493790 0.372160 -0.548347
C3    C     C_R   0.478458 0.300332 0.510279 0.928912
C4    C     C_R   0.500946 0.501497 0.338537 0.930835
C5    C     C_3   0.415010 0.600211 0.953226 0.357079
C6    C     C_3   0.611831 0.527648 0.943495 0.061534
C7    C     C_3   0.609722 0.542139 0.041310 -0.460293
H1    H     H_    0.647139 0.600773 0.913603 0.204862
H2    H     H_    0.637844 0.622979 0.055409 0.264482
H3    H     H_    0.672565 0.494321 0.068385 0.241855
C8    C     C_1   0.502848 0.507781 0.250124 -0.064337
C9    C     C_3   0.489376 0.505777 0.917979 -0.206642
C10   C     C_3   0.404840 0.597368 0.057296 0.074360
C11   C     C_3   0.490672 0.514147 0.084614 -0.066797
C12   C     C_3   0.461279 0.399166 0.054876 0.018081
C13   C     C_3   0.449113 0.396221 0.956646 0.047462
C14   C     C_1   0.499806 0.512657 0.175402 0.126669
C15   C     C_1   0.495446 0.502082 0.825821 0.190418
C16   C     C_1   0.498253 0.500423 0.750443 -0.029948
H4    H     H_    0.510024 0.339612 0.930614 0.177578
H5    H     H_    0.538460 0.357281 0.063225 0.176943
C17   C     C_R   0.465464 0.189439 0.528881 -0.201263
C18   C     C_R   0.535024 0.812760 0.495876 -0.198700
C19   C     C_R   0.648942 0.972454 0.486715 -0.090294
C20   C     C_R   0.639291 0.864545 0.477191 0.288308
C21   C     C_R   0.440176 0.868332 0.515905 -0.195595
C22   C     C_R   0.446930 0.975351 0.521682 0.007834
C23   C     C_R   0.553183 0.027394 0.512567 -0.000745
C24   C     C_R   0.561132 0.132920 0.531756 -0.017134
C25   C     C_R   0.360234 0.139153 0.547195 -0.160281
C26   C     C_R   0.350458 0.030745 0.542974 0.306738
H6    H     H_    0.360640 0.827191 0.529495 0.228892
N1    N     N_R   0.207800 0.519340 0.515510 -0.111305
N2    N     N_R   0.792190 0.480660 0.484490 -0.156726
C27   C     C_R   0.961721 0.433270 0.403336 -0.417481
C28   C     C_R   0.844872 0.435288 0.413730 0.445775
C29   C     C_R   0.855272 0.526890 0.544193 -0.056420
C30   C     C_R   0.973665 0.526792 0.535138 0.071939
C31   C     C_R   0.027018 0.479006 0.463688 0.028358
C32   C     C_R   0.144772 0.476281 0.454960 -0.026309
C33   C     C_R   0.157126 0.567757 0.584534 0.063245
C34   C     C_R   0.040284 0.572507 0.595549 -0.245372
H7    H     H_    0.185889 0.437762 0.400752 0.151175
H8    H     H_    0.207323 0.601877 0.632151 0.170674
H9    H     H_    0.001156 0.395388 0.348019 0.182113
H10   H     H_    0.002496 0.610391 0.651427 0.183508
H11   H     H_    0.813726 0.564662 0.598567 0.174424
N3    N     N_R   0.433972 0.704013 0.088085 0.236719
O9    O     O_R   0.370995 0.779708 0.071836 -0.258921
O10   O     O_R   0.511165 0.722915 0.139893 -0.371226
N4    N     N_R   0.303087 0.598306 0.920996 0.182475
O11   O     O_R   0.274844 0.536054 0.860344 -0.376123
O12   O     O_R   0.238560 0.674322 0.941671 -0.294820
C35   C     C_R   0.286938 0.570817 0.104521 0.101418
C36   C     C_R   0.199550 0.511092 0.070343 0.005282
C37   C     C_R   0.095526 0.495140 0.115285 -0.041529
C38   C     C_R   0.075816 0.536322 0.196484 -0.098465
C39   C     C_R   0.160828 0.591142 0.234008 -0.126866
C40   C     C_R   0.264700 0.607553 0.189314 -0.021923
H12   H     H_    0.208447 0.475669 0.009290 0.200370
H13   H     H_    0.029851 0.450577 0.086782 0.177713
H14   H     H_    0.994904 0.525409 0.230533 0.196101
H15   H     H_    0.146233 0.621619 0.297854 0.165092
H16   H     H_    0.327650 0.650348 0.222001 0.165673
C41   C     C_R   0.638872 0.167088 0.595788 0.100576
C42   C     C_R   0.611186 0.141518 0.681724 -0.175784
C43   C     C_R   0.676450 0.181086 0.744758 -0.083853
C44   C     C_R   0.768367 0.248043 0.722641 -0.029458
C45   C     C_R   0.795480 0.274122 0.637519 -0.170831
C46   C     C_R   0.733625 0.231285 0.574103 -0.093505
H17   H     H_    0.537829 0.092472 0.699878 0.169702
H18   H     H_    0.654485 0.161533 0.810788 0.185642
H19   H     H_    0.817985 0.280320 0.771375 0.196401
H20   H     H_    0.862749 0.329349 0.620282 0.125368
H21   H     H_    0.757736 0.250903 0.508611 0.175087
C47   C     C_R   0.265063 0.197903 0.582406 0.186352
C48   C     C_R   0.174439 0.212122 0.534736 -0.085081
C49   C     C_R   0.085307 0.268454 0.568888 -0.168154
C50   C     C_R   0.088396 0.313715 0.649571 -0.135072
C51   C     C_R   0.179150 0.300741 0.696800 -0.033867
C52   C     C_R   0.267393 0.242582 0.663628 -0.074529
H22   H     H_    0.173994 0.180452 0.471145 0.129924
H23   H     H_    0.015118 0.278301 0.531913 0.139463
H24   H     H_    0.021897 0.360346 0.675824 0.142799
H25   H     H_    0.180370 0.336251 0.758912 0.218851
H26   H     H_    0.337946 0.232718 0.700485 0.162658
C53   C     C_R   0.755595 0.026980 0.457593 0.074119
C54   C     C_R   0.849543 0.017781 0.503161 -0.057210
C55   C     C_R   0.952246 0.061533 0.471282 -0.094254
C56   C     C_R   0.961592 0.116187 0.394540 -0.162819
C57   C     C_R   0.868013 0.126495 0.349344 -0.059478
C58   C     C_R   0.765185 0.081656 0.380528 -0.060822
H27   H     H_    0.843351 0.975749 0.562695 0.178182
H28   H     H_    0.024341 0.052077 0.506122 0.206872
H29   H     H_    0.041198 0.150065 0.369655 0.158138
H30   H     H_    0.875352 0.168466 0.289812 0.189751
H31   H     H_    0.693454 0.088291 0.344259 0.179948
N5    N     N_R   0.243251 0.977938 0.558477 0.179308
O13   O     O_R   0.188005 0.984539 0.632488 -0.361495
O14   O     O_R   0.198006 0.928277 0.497017 -0.400260
N6    N     N_R   0.733580 0.809163 0.443462 0.220931
O15   O     O_R   0.738455 0.775782 0.365268 -0.342081
O16   O     O_R   0.809529 0.784478 0.492717 -0.383521
N7    N     N_R   0.471383 0.698721 0.918193 0.234570
O17   O     O_R   0.447552 0.731685 0.844229 -0.318102
O18   O     O_R   0.553284 0.747460 0.952930 -0.343670
N8    N     N_R   0.783032 0.392543 0.347036 0.213504
O19   O     O_R   0.812056 0.418311 0.268523 -0.415889
O20   O     O_R   0.712665 0.314225 0.361873 -0.418360
N9    N     N_R   0.688434 0.447750 0.911185 0.211033
O21   O     O_R   0.744672 0.461647 0.837895 -0.413336
O22   O     O_R   0.709427 0.368528 0.957127 -0.403319
N10   N     N_R   0.343221 0.353802 0.926773 0.243418
O23   O     O_R   0.265252 0.309280 0.977538 -0.313143
O24   O     O_R   0.341731 0.332010 0.846355 -0.422405
N11   N     N_R   0.376360 0.336624 0.107511 0.254882
O25   O     O_R   0.377038 0.235821 0.100850 -0.277039
O26   O     O_R   0.318356 0.375243 0.172230 -0.408873

loop_
_geom_bond_atom_site_label_1
_geom_bond_atom_site_label_2
_geom_bond_distance
_ccdc_geom_bond_type
C12   H5    1.115685 S    
C10   N3    1.489947 S    
C48   C49   1.395642 A    
C57   C58   1.397619 A    
C26   N5    1.437101 S    
C3    C17   1.458854 S    
C21   H6    1.081111 S    
N6    O15   1.301470 A    
C11   C14   1.446033 S    
C12   N11   1.477215 S    
C19   C53   1.478142 S    
N7    O17   1.303155 A    
N10   O23   1.299572 A    
C27   C28   1.408152 A    
Zn1   O7    1.970762 S    
C15   C16   1.187162 T    
C56   H29   1.081401 S    
N11   O25   1.302299 A    
O4    C2    1.287966 A    
C4    C8    1.396200 S    
C21   C22   1.379890 A    
C22   C23   1.416220 A    
C38   H14   1.079299 S    
C47   C52   1.403092 A    
N8    O20   1.297803 A    
C45   H20   1.073201 S    
O7    C4    1.288973 A    
N10   O24   1.299053 A    
C1    C18   1.446248 S    
N3    O10   1.302383 A    
C54   H27   1.082998 S    
C18   C21   1.392115 A    
N5    O13   1.300970 A    
C19   C20   1.397444 A    
C17   C24   1.397779 A    
C25   C47   1.474063 S    
C50   H24   1.079033 S    
N4    O12   1.302921 A    
O5    C3    1.295968 A    
C18   C20   1.406893 A    
C52   H26   1.082502 S    
C44   H19   1.081821 S    
C5    C9    1.614462 S    
C29   C30   1.424722 A    
N9    O22   1.302111 A    
C39   C40   1.395365 A    
N11   O26   1.299799 A    
C10   C11   1.609990 S    
Zn1   N1    2.020072 S    
C41   C46   1.400111 A    
C53   C58   1.403274 A    
N2    C29   1.374311 A    
C5    C10   1.637184 S    
C55   H28   1.078650 S    
C8    C14   1.184783 T    
C9    C15   1.450557 S    
C48   H22   1.080862 S    
O3    Zn1   1.980417 S    
C12   C13   1.568823 S    
N2    C28   1.379317 A    
C53   C54   1.401498 A    
C32   H7    1.082618 S    
C33   C34   1.411141 A    
C7    C11   1.567343 S    
C58   H31   1.083122 S    
C11   C12   1.583598 S    
O3    C2    1.290735 A    
C47   C48   1.396868 A    
C6    C7    1.551649 S    
C39   H15   1.082625 S    
C43   C44   1.395642 A    
C38   C39   1.388419 A    
C28   N8    1.431627 S    
O1    C1    1.295497 A    
C41   C42   1.407343 A    
C37   H13   1.082676 S    
C46   H21   1.078905 S    
C29   H11   1.082228 S    
C55   C56   1.398770 A    
C27   C31   1.395144 A    
Zn2   O8    1.980418 S    
C5    N4    1.481090 S    
C5    N7    1.498618 S    
C40   H16   1.080767 S    
N6    O16   1.301091 A    
C35   C40   1.424977 A    
C42   C43   1.397473 A    
Zn2   O6    1.994269 S    
C25   C26   1.397396 A    
O8    C4    1.287415 A    
C13   H4    1.112640 S    
C24   C41   1.484942 S    
C31   C32   1.418976 A    
C13   N10   1.477828 S    
C20   N6    1.435197 S    
N9    O21   1.301332 A    
C57   H30   1.082313 S    
Zn1   O5    2.010772 S    
C49   H23   1.079926 S    
C10   C35   1.575590 S    
C6    C9    1.575798 S    
C19   C23   1.413959 A    
C7    H3    1.112596 S    
O2    Zn2   2.010772 S    
Zn2   N2    2.019950 S    
O6    C3    1.295641 A    
C51   H25   1.079571 S    
C42   H17   1.083449 S    
O4    Zn2   1.970762 S    
N7    O18   1.302869 A    
N1    C32   1.367871 A    
C33   H8    1.081501 S    
C35   C36   1.416489 A    
C6    N9    1.476249 S    
O2    C1    1.291647 A    
N3    O9    1.303558 A    
C36   C37   1.397968 A    
N8    O19   1.300564 A    
C44   C45   1.395722 A    
N1    C33   1.366367 A    
C51   C52   1.395842 A    
C23   C24   1.391133 A    
C43   H18   1.082345 S    
C30   C31   1.404903 A    
C56   C57   1.396168 A    
C7    H2    1.106758 S    
N5    O14   1.301172 A    
C37   C38   1.390042 A    
C17   C25   1.407843 A    
C22   C26   1.410343 A    
N4    O11   1.300805 A    
C45   C46   1.392459 A    
C34   H10   1.082986 S    
C30   C34   1.405360 A    
C2    C16   1.400369 S    
C49   C50   1.399101 A    
C27   H9    1.083797 S    
C6    H1    1.107649 S    
C54   C55   1.394320 A    
C9    C13   1.580768 S    
O1    Zn1   1.994269 S    
C50   C51   1.391312 A    
C36   H12   1.062727 S    
