data_mof_unit_59555.cif
_audit_creation_date              2012-12-11T16:33:22-0500
_audit_creation_method            fapswitch 2.2
_symmetry_space_group_name_H-M    P1
_symmetry_Int_Tables_number       1
_space_group_crystal_system       triclinic
_cell_length_a                    6.961601
_cell_length_b                    18.524836
_cell_length_c                    20.05504
_cell_angle_alpha                 68.879132
_cell_angle_beta                  89.611731
_cell_angle_gamma                 90.610277
_cell_volume                      2412.3105798

loop_
_atom_site_label
_atom_site_type_symbol
_atom_type_description
_atom_site_fract_x
_atom_site_fract_y
_atom_site_fract_z
_atom_type_partial_charge
O1    O     O_R   0.488960 0.443750 0.941980 -0.525425
O2    O     O_R   0.823890 0.406510 0.087590 -0.540658
O3    O     O_R   0.999680 0.556250 0.058020 -0.534177
C1    C     C_R   0.652995 0.382442 0.114573 0.772353
O4    O     O_R   0.818360 0.434410 0.944340 -0.526978
O5    O     O_R   0.994110 0.584350 0.913750 -0.526775
C2    C     C_R   0.651768 0.423479 0.921175 0.727435
O6    O     O_R   0.494530 0.415650 0.086250 -0.526840
O7    O     O_3   0.662590 0.549160 0.990130 -0.360625
V1    V     V_3+5 0.935320 0.490880 0.001830 1.547768
O8    O     O_R   0.324180 0.593490 0.912410 -0.539502
C3    C     C_R   0.155110 0.618283 0.886181 0.764030
O9    O     O_R   0.329720 0.565590 0.055660 -0.517816
C4    C     C_R   0.161942 0.576544 0.078823 0.736606
V2    V     V_3+5 0.435990 0.509120 0.998170 1.559681
O10   O     O_3   0.158850 0.450840 0.009870 -0.365071
C5    C     C_3   0.028176 0.712035 0.310214 0.026637
C6    C     C_3   0.219970 0.686782 0.286837 0.249662
C7    C     C_1   0.156410 0.621135 0.125441 -0.087069
C8    C     C_1   0.104934 0.879664 0.374084 -0.105716
C9    C     C_3   0.949179 0.731119 0.233604 0.115765
C10   C     C_3   0.141361 0.706288 0.210102 -0.035373
C11   C     C_3   0.027608 0.815189 0.212205 0.144233
C12   C     C_3   0.106207 0.795692 0.288597 0.019416
C13   C     C_3   0.219691 0.790167 0.188837 0.040954
C14   C     C_3   0.298528 0.770749 0.265500 0.225985
C15   C     C_1   0.152850 0.658778 0.164146 0.100544
C16   C     C_1   0.101340 0.842465 0.335120 0.149016
C17   C     C_R   0.005043 0.773300 0.875443 0.036908
C18   C     C_R   0.884116 0.836329 0.866295 0.285526
C19   C     C_R   0.891047 0.898788 0.801880 0.263947
C20   C     C_R   0.013502 0.896330 0.747261 0.028307
C21   C     C_R   0.071716 0.822619 0.746789 -0.014948
C22   C     C_R   0.075320 0.759116 0.813770 -0.005124
C23   C     C_R   0.124543 0.812294 0.681925 -0.099020
C24   C     C_R   0.193783 0.738081 0.684470 0.030861
C25   C     C_R   0.195982 0.673883 0.751924 -0.076778
C26   C     C_R   0.144065 0.685172 0.816608 -0.102527
C27   C     C_R   0.259705 0.723457 0.622247 0.081879
C28   C     C_R   0.352723 0.654819 0.629672 -0.166078
C29   C     C_R   0.346633 0.593082 0.693125 0.315543
C30   C     C_R   0.249113 0.598974 0.751813 0.167255
H1    H     H_    0.418184 0.646569 0.583747 0.185621
C31   C     C_R   0.549108 0.099853 0.253483 0.020607
C32   C     C_R   0.433899 0.092322 0.199425 0.291270
C33   C     C_R   0.408982 0.155677 0.136566 0.125867
C34   C     C_R   0.517207 0.223625 0.126364 0.099240
C35   C     C_R   0.584070 0.239569 0.187401 -0.008208
C36   C     C_R   0.590016 0.175595 0.253987 -0.019001
C37   C     C_R   0.637669 0.315911 0.184631 -0.087620
C38   C     C_R   0.678124 0.328632 0.249707 -0.066143
C39   C     C_R   0.699977 0.263156 0.315026 -0.058576
C40   C     C_R   0.639181 0.187434 0.318259 -0.069804
C41   C     C_R   0.699590 0.405086 0.252395 0.131104
C42   C     C_R   0.761722 0.415004 0.314852 0.279205
C43   C     C_R   0.795249 0.351790 0.376343 0.274289
C44   C     C_R   0.779068 0.277026 0.375278 0.105693
O11   O     O_R   0.770540 0.084530 0.414050 -0.523962
O12   O     O_R   0.445710 0.065660 0.555720 -0.539846
O13   O     O_R   0.270420 0.915650 0.586190 -0.547319
C45   C     C_R   0.612602 0.079393 0.576676 0.764126
O14   O     O_R   0.441140 0.093540 0.412470 -0.530200
O15   O     O_R   0.265820 0.943740 0.441930 -0.541144
C46   C     C_R   0.614270 0.120820 0.388462 0.760211
O16   O     O_R   0.775150 0.056440 0.558310 -0.521538
O17   O     O_3   0.602370 0.950960 0.510050 -0.384061
V3    V     V_3+5 0.329450 0.009140 0.498150 1.496382
O18   O     O_R   0.935790 0.934280 0.444060 -0.544612
C47   C     C_R   0.103127 0.923923 0.420733 0.706575
O19   O     O_R   0.940370 0.906390 0.587310 -0.539912
C48   C     C_R   0.110056 0.880659 0.612923 0.709844
V4    V     V_3+5 0.828810 0.990710 0.501460 1.485284
O20   O     O_3   0.105780 0.049100 0.489960 -0.334714
C49   C     C_3   0.734539 0.314628 0.713150 0.306480
C50   C     C_3   0.538222 0.293164 0.689350 0.215433
C51   C     C_1   0.611050 0.124941 0.622312 -0.089142
C52   C     C_1   0.651980 0.378068 0.875383 -0.059745
C53   C     C_3   0.799335 0.229853 0.732113 0.072577
C54   C     C_3   0.603358 0.208544 0.708301 -0.065327
C55   C     C_3   0.720232 0.208723 0.809415 0.120607
C56   C     C_3   0.655425 0.293287 0.790469 -0.074692
C57   C     C_3   0.524214 0.187524 0.785519 0.052940
C58   C     C_3   0.459088 0.272227 0.766695 0.190587
C59   C     C_1   0.601509 0.162532 0.660930 0.126477
C60   C     C_1   0.659301 0.340011 0.837142 0.187289
Br1   Br    Br    0.347906 0.592078 0.342632 -0.364070
Br2   Br    Br    0.750416 0.990787 0.790660 -0.614574
C61   C     C_3   0.113112 0.971390 0.702321 -0.640087
H2    H     H_    0.130847 0.010198 0.733127 0.213591
H3    H     H_    0.261750 0.960723 0.688345 0.201784
H4    H     H_    0.029713 0.002423 0.653893 0.222929
C62   C     C_3   0.231248 0.775388 0.546274 -0.717912
H5    H     H_    0.081278 0.795801 0.538647 0.184063
H6    H     H_    0.341874 0.821653 0.532056 0.234030
H7    H     H_    0.250991 0.744880 0.508080 0.204437
Br3   Br    Br    0.154546 0.500745 0.818888 -0.413532
Br4   Br    Br    0.867488 0.368531 0.463139 -0.266524
C63   C     C_3   0.655507 0.028765 0.299792 -0.616505
H8    H     H_    0.801176 0.044965 0.311992 0.188886
H9    H     H_    0.572226 0.996617 0.349093 0.225243
H10   H     H_    0.682779 0.988807 0.270853 0.241523
Br5   Br    Br    0.326193 0.993418 0.208522 -0.633895
C64   C     C_3   0.281354 0.147833 0.078569 -0.705584
H11   H     H_    0.138160 0.124555 0.101524 0.230461
H12   H     H_    0.255159 0.204251 0.035307 0.211347
H13   H     H_    0.347413 0.108097 0.054959 0.230802
C65   C     C_3   0.579483 0.269336 0.050992 -0.777647
H14   H     H_    0.590510 0.231971 0.018503 0.209450
H15   H     H_    0.469882 0.313304 0.026771 0.220162
H16   H     H_    0.726718 0.293227 0.048833 0.190740
C66   C     C_3   0.931043 0.670435 0.382628 -0.532901
H17   H     H_    0.906509 0.608692 0.391776 0.285363
H18   H     H_    0.025315 0.674303 0.425645 0.196935
H19   H     H_    0.792328 0.697410 0.385972 0.238791
Br6   Br    Br    0.618153 0.500532 0.179426 -0.479850
Br7   Br    Br    0.824049 0.516245 0.314934 -0.406827
Br8   Br    Br    0.935981 0.205373 0.446019 -0.453507
Br9   Br    Br    0.402442 0.351391 0.602970 -0.266217
Br10  Br    Br    0.888664 0.405089 0.659691 -0.239042
Br11  Br    Br    0.228664 0.308643 0.799485 -0.486932
C67   C     C_3   0.399552 0.117657 0.827684 -0.638278
H20   H     H_    0.322614 0.129296 0.871327 0.211132
H21   H     H_    0.293703 0.105415 0.791994 0.205474
H22   H     H_    0.489848 0.066215 0.851959 0.267916
C68   C     C_3   0.822177 0.160408 0.877519 -0.677408
H23   H     H_    0.858755 0.103257 0.875109 0.249869
H24   H     H_    0.955700 0.190257 0.883713 0.234274
H25   H     H_    0.726557 0.151822 0.924339 0.199226
C69   C     C_3   0.983489 0.202805 0.707152 -0.610571
H26   H     H_    0.111244 0.220974 0.728713 0.246744
H27   H     H_    0.982043 0.138837 0.724966 0.209314
H28   H     H_    0.993430 0.227489 0.647919 0.247819
Br12  Br    Br    0.532797 0.804734 0.297388 -0.608078
C70   C     C_3   0.323166 0.834493 0.118487 -0.649604
H29   H     H_    0.398602 0.885945 0.122140 0.258772
H30   H     H_    0.427794 0.796697 0.105606 0.215000
H31   H     H_    0.217244 0.853500 0.074658 0.220021
C71   C     C_3   0.920643 0.887934 0.167790 -0.648594
H32   H     H_    0.853182 0.879154 0.121267 0.215425
H33   H     H_    0.808709 0.901723 0.200590 0.251989
H34   H     H_    0.021634 0.937715 0.147286 0.244520
C72   C     C_3   0.754971 0.707425 0.212845 -0.565553
H35   H     H_    0.670287 0.675570 0.261487 0.278434
H36   H     H_    0.676560 0.759452 0.180347 0.209270
H37   H     H_    0.771943 0.669836 0.180996 0.228916
Br13  Br    Br    0.457574 0.498787 0.693526 -0.353692
C73   C     C_3   0.072226 0.731330 0.950234 -0.687438
H38   H     H_    0.217304 0.707236 0.951347 0.183444
H39   H     H_    0.090512 0.771941 0.979232 0.229980
H40   H     H_    0.961514 0.687891 0.978749 0.224911
Br14  Br    Br    0.728302 0.841171 0.944818 -0.544122

loop_
_geom_bond_atom_site_label_1
_geom_bond_atom_site_label_2
_ccdc_geom_bond_type
C31   C36   A    
C42   C43   A    
C29   C30   A    
C11   C71   S    
C73   H38   S    
C6    C14   S    
C1    O6    A    
O11   V4    S    
C51   C59   T    
C70   H31   S    
C32   C33   A    
C31   C32   A    
C49   Br10  S    
C6    Br1   S    
O14   V3    S    
C30   Br3   S    
C24   C25   A    
C73   H39   S    
C53   C69   S    
C12   C14   S    
C9    C72   S    
O5    C3    A    
C54   C59   S    
C40   C46   S    
C53   C55   S    
C42   Br7   S    
V2    O10   S    
C20   C61   S    
C32   Br5   S    
C43   C44   A    
C25   C30   A    
C67   H22   S    
O14   C46   A    
O12   V3    S    
C41   C42   A    
C31   C63   S    
C28   H1    S    
O17   V4    S    
C29   Br13  S    
O15   C47   A    
O13   V3    S    
O18   C47   A    
C10   C13   S    
C68   H25   S    
C65   H14   S    
O19   C48   A    
V3    O20   S    
C64   H13   S    
C17   C18   A    
C7    C15   T    
O7    V1    S    
C57   C67   S    
C2    C52   S    
C69   H28   S    
C35   C37   A    
O17   V3    S    
C52   C60   T    
O1    C2    A    
O9    C4    A    
C65   H15   S    
C72   H37   S    
C50   Br9   S    
O8    V2    S    
C43   Br4   S    
C5    C66   S    
C56   C58   S    
C37   C38   A    
C24   C27   A    
C45   C51   S    
O11   C46   A    
O15   V3    S    
O12   C45   A    
C5    C12   S    
C19   Br2   S    
C49   C50   S    
C38   C39   A    
C73   H40   S    
C64   H12   S    
C39   C44   A    
C27   C28   A    
O4    C2    A    
C53   C54   S    
C55   C56   S    
C70   H30   S    
C8    C16   T    
O13   C48   A    
C13   C14   S    
C17   C22   A    
C62   H7    S    
C5    C9    S    
C1    C37   S    
C23   C24   A    
C58   Br11  S    
O2    C1    A    
O5    V1    S    
C25   C26   A    
C34   C35   A    
C61   H4    S    
O18   V4    S    
C41   Br6   S    
C62   H6    S    
C5    C6    S    
C66   H18   S    
C68   H24   S    
C13   C70   S    
C67   H20   S    
O3    C4    A    
C71   H33   S    
O1    V2    S    
C55   C57   S    
C28   C29   A    
C61   H3    S    
C63   H8    S    
O6    V2    S    
C34   C65   S    
C10   C15   S    
C9    C11   S    
C49   C53   S    
C68   H23   S    
C65   H16   S    
C72   H36   S    
C8    C47   S    
C49   C56   S    
O2    V1    S    
C27   C62   S    
C39   C40   A    
C44   Br8   S    
C69   H26   S    
C33   C34   A    
C35   C36   A    
C66   H17   S    
C22   C26   A    
C4    C7    S    
C19   C20   A    
C12   C16   S    
V4    O20   S    
C71   H34   S    
C17   C73   S    
C54   C57   S    
O8    C3    A    
C70   H29   S    
C6    C10   S    
O16   V4    S    
C33   C64   S    
C63   H9    S    
C63   H10   S    
C38   C41   A    
C20   C21   A    
O9    V2    S    
O7    V2    S    
O4    V1    S    
O3    V1    S    
V1    O10   S    
C50   C58   S    
C18   Br14  S    
C18   C19   A    
C36   C40   A    
C62   H5    S    
C21   C23   A    
C21   C22   A    
C66   H19   S    
C11   C13   S    
C3    C26   S    
C67   H21   S    
C71   H32   S    
C11   C12   S    
C23   C48   S    
C45   O16   A    
C61   H2    S    
C57   C58   S    
C55   C68   S    
C64   H11   S    
C14   Br12  S    
C72   H35   S    
O19   V4    S    
C9    C10   S    
C50   C54   S    
C56   C60   S    
C69   H27   S    
