data_mof_unit_11235.cif
_audit_creation_date              2012-12-11T16:38:22-0500
_audit_creation_method            fapswitch 2.2
_symmetry_space_group_name_H-M    P1
_symmetry_Int_Tables_number       1
_space_group_crystal_system       triclinic
_cell_length_a                    23.004699
_cell_length_b                    7.251971
_cell_length_c                    20.845638
_cell_angle_alpha                 89.874183
_cell_angle_beta                  93.339436
_cell_angle_gamma                 90.150555
_cell_volume                      3471.74101735

loop_
_atom_site_label
_atom_site_type_symbol
_atom_type_description
_atom_site_fract_x
_atom_site_fract_y
_atom_site_fract_z
_atom_type_partial_charge
O1    O     O_R   0.188620 0.380490 0.689890 -0.536481
O2    O     O_R   0.811380 0.619510 0.310110 -0.514080
O3    O     O_R   0.311380 0.880490 0.810110 -0.514261
O4    O     O_R   0.688620 0.119510 0.189890 -0.535767
O5    O     O_R   0.306510 0.709050 0.686440 -0.529434
O6    O     O_R   0.693490 0.290950 0.313560 -0.533481
O7    O     O_R   0.193490 0.209050 0.813560 -0.536761
O8    O     O_R   0.806510 0.790950 0.186440 -0.531421
C1    C     C_R   0.325280 0.542173 0.671643 0.713246
C2    C     C_R   0.674592 0.457790 0.328182 0.703707
C3    C     C_R   0.174635 0.041610 0.828201 0.703014
C4    C     C_R   0.825275 0.958426 0.171680 0.714325
O9    O     O_R   0.188770 0.710120 0.682280 -0.538199
O10   O     O_R   0.811230 0.289880 0.317720 -0.554188
O11   O     O_R   0.311230 0.210120 0.817720 -0.554584
O12   O     O_R   0.688770 0.789880 0.182280 -0.539769
O13   O     O_R   0.192790 0.881680 0.805920 -0.527660
O14   O     O_R   0.807210 0.118320 0.194080 -0.535125
O15   O     O_R   0.307210 0.381680 0.694080 -0.533409
O16   O     O_R   0.692790 0.618320 0.305920 -0.527431
C5    C     C_R   0.169247 0.541495 0.666799 0.765755
C6    C     C_R   0.831390 0.458587 0.333166 0.748430
C7    C     C_R   0.331374 0.041486 0.833186 0.747594
C8    C     C_R   0.669214 0.958423 0.166845 0.764818
O17   O     O_3   0.251460 0.547440 0.790570 -0.382182
O18   O     O_3   0.748540 0.452560 0.209430 -0.379682
O19   O     O_3   0.248540 0.047440 0.709430 -0.377773
O20   O     O_3   0.751460 0.952560 0.290570 -0.378876
V1    V     V_3+5 0.249730 0.821800 0.742470 1.465954
V2    V     V_3+5 0.750270 0.178200 0.257530 1.423675
V3    V     V_3+5 0.250270 0.321800 0.757530 1.414656
V4    V     V_3+5 0.749730 0.678200 0.242470 1.461812
C9    C     C_R   0.468479 0.879124 0.928672 -0.230267
C10   C     C_R   0.516752 0.018563 0.090712 -0.226031
C11   C     C_R   0.016862 0.479869 0.590509 -0.223038
C12   C     C_R   0.968613 0.621516 0.428533 -0.228463
H1    H     H_    0.499844 0.768408 0.927147 0.178685
H2    H     H_    0.472974 0.037051 0.106064 0.155100
H3    H     H_    0.973083 0.460249 0.605830 0.159227
H4    H     H_    0.999997 0.732718 0.427017 0.178193
C13   C     C_R   0.421660 0.884473 0.882193 0.441903
C14   C     C_R   0.563373 0.008069 0.137449 0.434831
C15   C     C_R   0.063459 0.490198 0.637272 0.434499
C16   C     C_R   0.921756 0.616195 0.382095 0.439298
C17   C     C_R   0.381173 0.030669 0.882362 -0.185221
C18   C     C_R   0.619791 0.969354 0.118588 -0.177169
C19   C     C_R   0.119874 0.530402 0.618487 -0.177317
C20   C     C_R   0.881222 0.469471 0.382289 -0.183038
C21   C     C_R   0.388426 0.167103 0.929973 -0.372002
C22   C     C_R   0.629459 0.952059 0.053157 -0.325609
C23   C     C_R   0.129573 0.549301 0.553082 -0.328033
C24   C     C_R   0.888490 0.332384 0.429833 -0.367450
H5    H     H_    0.357726 0.279605 0.929631 0.144739
H6    H     H_    0.673045 0.926223 0.038266 0.144298
H7    H     H_    0.173161 0.576320 0.538247 0.140318
H8    H     H_    0.857763 0.219447 0.429484 0.146077
C25   C     C_R   0.435183 0.160848 0.977346 0.480776
C26   C     C_R   0.583583 0.973767 0.006222 0.480938
C27   C     C_R   0.083721 0.527709 0.506099 0.482641
C28   C     C_R   0.935302 0.338507 0.477131 0.476660
C29   C     C_R   0.475809 0.015354 0.976203 -0.019611
C30   C     C_R   0.526154 0.003274 0.024847 -0.008165
C31   C     C_R   0.026286 0.496732 0.524667 -0.009548
C32   C     C_R   0.975947 0.484642 0.476012 -0.017096
C33   C     C_R   0.043477 0.133574 0.007750 -0.344774
C34   C     C_R   0.955686 0.867430 0.991167 -0.343743
C35   C     C_R   0.478310 0.672471 0.516474 -0.306774
C36   C     C_R   0.517619 0.327454 0.478409 -0.312657
H9    H     H_    0.077895 0.234970 0.014964 0.150644
H10   H     H_    0.921273 0.766020 0.983958 0.152535
H11   H     H_    0.464394 0.806556 0.531999 0.201170
H12   H     H_    0.533336 0.193358 0.465102 0.199147
C37   C     C_R   0.044195 0.011855 0.955535 -0.026838
C38   C     C_R   0.955007 0.989046 0.043435 -0.025222
C39   C     C_R   0.453026 0.512702 0.540971 -0.050258
C40   C     C_R   0.542808 0.487207 0.453813 -0.049956
C41   C     C_R   0.000407 0.876316 0.947588 0.491345
C42   C     C_R   0.998721 0.124857 0.051273 0.495544
C43   C     C_R   0.471738 0.338999 0.520119 0.504148
C44   C     C_R   0.521587 0.660937 0.471539 0.495317
C45   C     C_1   0.090584 0.024033 0.910926 0.031673
C46   C     C_1   0.908808 0.976420 0.088292 0.040211
C47   C     C_1   0.407950 0.526645 0.587164 0.044562
C48   C     C_1   0.589880 0.473148 0.410122 0.033992
C49   C     C_1   0.870557 0.967634 0.126065 -0.163039
C50   C     C_1   0.129078 0.032554 0.873461 -0.176810
C51   C     C_1   0.628757 0.465198 0.373133 -0.169451
C52   C     C_1   0.370240 0.534599 0.625603 -0.158930
O21   O     O_3   0.419319 0.759393 0.832017 -0.547258
C53   C     C_3   0.405431 0.583382 0.855610 -0.157855
H13   H     H_    0.397054 0.489590 0.814124 0.162125
H14   H     H_    0.365154 0.586795 0.882759 0.115820
H15   H     H_    0.442257 0.524613 0.885836 0.134759
O22   O     O_3   0.553317 0.020719 0.202088 -0.562126
C54   C     C_3   0.541583 0.206180 0.216840 -0.244540
H16   H     H_    0.577399 0.299439 0.203155 0.143202
H17   H     H_    0.538333 0.218235 0.269553 0.146552
H18   H     H_    0.499319 0.251826 0.193531 0.140159
O23   O     O_3   0.053372 0.475955 0.701884 -0.554623
C55   C     C_3   0.041773 0.289897 0.716446 -0.195815
H19   H     H_    0.038539 0.276663 0.769151 0.155074
H20   H     H_    0.077652 0.197793 0.702665 0.134021
H21   H     H_    0.999541 0.243732 0.693086 0.140492
O24   O     O_3   0.919425 0.741874 0.331920 -0.549516
C56   C     C_3   0.905603 0.917398 0.355523 -0.158655
H22   H     H_    0.865329 0.913092 0.382680 0.118581
H23   H     H_    0.897249 0.011613 0.314042 0.162581
H24   H     H_    0.942454 0.976269 0.385743 0.135128
O25   O     O_3   0.446266 0.304024 0.020741 -0.553523
C57   C     C_3   0.395104 0.362848 0.048760 -0.287029
H25   H     H_    0.407776 0.433108 0.094701 0.165231
H26   H     H_    0.366004 0.245703 0.060271 0.128847
H27   H     H_    0.371599 0.465394 0.017325 0.140277
O26   O     O_3   0.595192 0.960808 0.942122 -0.553879
C58   C     C_3   0.608023 0.138916 0.919610 -0.207466
H28   H     H_    0.647587 0.196791 0.945612 0.131852
H29   H     H_    0.570438 0.233923 0.923479 0.144043
H30   H     H_    0.617052 0.129397 0.868032 0.172436
O27   O     O_3   0.095364 0.542250 0.442023 -0.554693
C59   C     C_3   0.108166 0.364838 0.419312 -0.218200
H31   H     H_    0.070531 0.269258 0.422979 0.147091
H32   H     H_    0.147665 0.306878 0.445319 0.128323
H33   H     H_    0.117289 0.375665 0.367773 0.170568
O28   O     O_3   0.946420 0.194712 0.520416 -0.555776
C60   C     C_3   0.895289 0.134482 0.548453 -0.273671
H34   H     H_    0.871765 0.032086 0.516974 0.141537
H35   H     H_    0.866194 0.250905 0.560071 0.133966
H36   H     H_    0.908006 0.063618 0.594337 0.170747
O29   O     O_3   0.999762 0.239659 0.104297 -0.542299
C61   C     C_3   0.985900 0.420669 0.083931 -0.224054
H37   H     H_    0.022025 0.483193 0.058131 0.126044
H38   H     H_    0.979752 0.506509 0.126982 0.181736
H39   H     H_    0.944426 0.425236 0.053571 0.119372
O30   O     O_3   0.999223 0.762189 0.894377 -0.539914
C62   C     C_3   0.013130 0.580917 0.914391 -0.208221
H40   H     H_    0.977083 0.518048 0.940221 0.121961
H41   H     H_    0.054688 0.575936 0.944591 0.116267
H42   H     H_    0.019137 0.495704 0.871160 0.179238
O31   O     O_3   0.545256 0.820975 0.448044 -0.544430
C63   C     C_3   0.515469 0.864059 0.388847 -0.238863
H43   H     H_    0.468445 0.889424 0.394981 0.117836
H44   H     H_    0.520702 0.753957 0.352552 0.145839
H45   H     H_    0.534353 0.992252 0.369622 0.168391
O32   O     O_3   0.447607 0.179010 0.543049 -0.539203
C64   C     C_3   0.397917 0.135041 0.503099 -0.265776
H46   H     H_    0.409642 0.108379 0.452932 0.124514
H47   H     H_    0.364408 0.245335 0.503688 0.132391
H48   H     H_    0.378005 0.007356 0.521463 0.162001

loop_
_geom_bond_atom_site_label_1
_geom_bond_atom_site_label_2
_ccdc_geom_bond_type
O17   V3    S    
C62   H42   S    
C6    C20   S    
C26   C30   A    
C7    C17   S    
O19   V1    S    
O13   V1    S    
O3    C7    A    
C54   H16   S    
C10   C14   A    
C63   H45   S    
O1    V3    S    
O4    V2    S    
O15   V3    S    
C40   C48   S    
O26   C58   S    
C16   O24   S    
C54   H18   S    
C21   C25   A    
C62   H40   S    
O1    C5    A    
C56   H23   S    
C22   H6    S    
C4    C49   S    
O9    V1    S    
C42   O29   S    
C15   O23   S    
C1    C52   S    
C64   H46   S    
C11   H3    S    
O4    C8    A    
C33   H9    S    
C3    C50   S    
C58   H28   S    
C34   C38   A    
C10   C30   A    
C33   C37   A    
O2    V4    S    
C14   C18   A    
C28   O28   S    
C37   C41   A    
C57   H25   S    
C24   C28   A    
C1    O15   A    
C25   O25   S    
C43   O32   S    
C2    O16   A    
C58   H29   S    
O2    C6    A    
C60   H36   S    
C48   C51   T    
O12   V4    S    
O14   V2    S    
C11   C15   A    
C23   H7    S    
C45   C50   T    
C59   H33   S    
C36   H12   S    
C36   C43   A    
O11   C7    A    
C47   C52   T    
O12   C8    A    
C14   O22   S    
O22   C54   S    
O10   V2    S    
C37   C45   S    
O24   C56   S    
C64   H47   S    
C59   H32   S    
O7    C3    A    
O5    V1    S    
C56   H24   S    
C2    C51   S    
O7    V3    S    
C22   C26   A    
C12   H4    S    
C63   H43   S    
O18   V4    S    
C19   C23   A    
C55   H21   S    
C9    H1    S    
O8    V4    S    
C61   H38   S    
O5    C1    A    
C53   H14   S    
O23   C55   S    
C17   C21   A    
O8    C4    A    
C58   H30   S    
C55   H20   S    
O9    C5    A    
O27   C59   S    
C25   C29   A    
C57   H27   S    
O6    V2    S    
C60   H34   S    
C12   C16   A    
C61   H39   S    
C35   C39   A    
C41   O30   S    
C46   C49   T    
C64   H48   S    
C59   H31   S    
C53   H15   S    
C60   H35   S    
O29   C61   S    
O16   V4    S    
C62   H41   S    
C34   C41   A    
C3    O13   A    
C27   O27   S    
C33   C42   A    
C13   O21   S    
C10   H2    S    
C35   C44   A    
C40   C44   A    
C63   H44   S    
O32   C64   S    
O6    C2    A    
O31   C63   S    
C54   H17   S    
O11   V3    S    
O30   C62   S    
C36   C40   A    
C44   O31   S    
C56   H22   S    
C18   C22   A    
C27   C31   A    
C28   C32   A    
C9    C13   A    
O10   C6    A    
O20   V2    S    
C61   H37   S    
C8    C18   S    
O25   C57   S    
C39   C47   S    
C53   H13   S    
C34   H10   S    
C15   C19   A    
C21   H5    S    
C55   H19   S    
C35   H11   S    
C29   C30   S    
C57   H26   S    
C31   C32   S    
C16   C20   A    
C20   C24   A    
C23   C27   A    
C9    C29   A    
C38   C42   A    
C4    O14   A    
C26   O26   S    
C13   C17   A    
O3    V1    S    
C11   C31   A    
O21   C53   S    
C12   C32   A    
C39   C43   A    
C38   C46   S    
C24   H8    S    
O28   C60   S    
C5    C19   S    
