data_mof_unit_53725.cif
_audit_creation_date              2013-03-05T16:34:24-0500
_audit_creation_method            fapswitch 2.2
_symmetry_space_group_name_H-M    P1
_symmetry_Int_Tables_number       1
_space_group_crystal_system       triclinic
_cell_length_a                    11.014352
_cell_length_b                    9.09471
_cell_length_c                    7.787137
_cell_angle_alpha                 90.006903
_cell_angle_beta                  90.522236
_cell_angle_gamma                 89.997972
_cell_volume                      780.023305191

loop_
_atom_site_label
_atom_site_type_symbol
_atom_site_description
_atom_site_fract_x
_atom_site_fract_y
_atom_site_fract_z
_atom_type_partial_charge
O1    O     O_R   0.500000 0.288390 0.642760 -0.578271
O2    O     O_R   0.500000 0.711610 0.642760 -0.575644
O3    O     O_R   0.500000 0.288370 0.357190 -0.573585
O4    O     O_R   0.500000 0.711630 0.357190 -0.575536
C1    C     C_R   0.499995 0.220031 0.499971 0.833656
C2    C     C_R   0.499873 0.779976 0.499984 0.853376
O5    O     O_R   0.321940 0.500000 0.642750 -0.558771
O6    O     O_R   0.678060 0.500000 0.642750 -0.592063
O7    O     O_R   0.321930 0.500000 0.357180 -0.604839
O8    O     O_R   0.678070 0.500000 0.357180 -0.593524
C3    C     C_R   0.265252 0.496221 0.498684 0.743049
C4    C     C_R   0.735300 0.503706 0.500665 0.742518
Cu1   Cu    Cu3+1 0.500000 0.500000 0.669080 1.003446
Cu2   Cu    Cu3+1 0.500000 0.500000 0.330920 0.990060
C5    C     C_2   0.935035 0.481583 0.368535 0.132048
C6    C     C_2   0.063704 0.520361 0.368431 0.126188
C7    C     C_2   0.866532 0.528446 0.501059 0.345467
C8    C     C_2   0.136004 0.465209 0.494020 0.362965
C9    C     C_1   0.499856 0.065380 0.499980 -0.185290
C10   C     C_1   0.499818 0.934638 0.499998 -0.177078
N1    N     N_1   0.500000 0.500000 0.076820 -0.051537
N2    N     N_1   0.500000 0.500000 0.923180 -0.054332
C11   C     C_3   0.889867 0.382218 0.225814 -0.911978
H1    H     H_    0.966860 0.340094 0.148778 0.242983
H2    H     H_    0.841601 0.285896 0.280184 0.236595
H3    H     H_    0.829070 0.443764 0.137126 0.249889
C12   C     C_3   0.106751 0.624333 0.230324 -0.877774
H4    H     H_    0.159099 0.716434 0.288372 0.231648
H5    H     H_    0.163361 0.564629 0.135948 0.257911
H6    H     H_    0.028283 0.672954 0.160144 0.232236
O9    O     O_3   0.918500 0.624502 0.620569 -0.596597
C13   C     C_3   0.902020 0.574489 0.790471 -0.210799
H7    H     H_    0.892716 0.452740 0.801243 0.177609
H8    H     H_    0.822360 0.629910 0.848116 0.170634
H9    H     H_    0.983112 0.606113 0.867149 0.187946
O10   O     O_3   0.087354 0.376218 0.620961 -0.590212
C14   C     C_3   0.126501 0.230263 0.595247 -0.342113
H10   H     H_    0.225396 0.218699 0.621954 0.169250
H11   H     H_    0.104262 0.191077 0.463070 0.159545
H12   H     H_    0.078018 0.158013 0.686638 0.200924

loop_
_geom_bond_atom_site_label_1
_geom_bond_atom_site_label_2
_geom_bond_distance
_ccdc_geom_bond_type
C4    C7    1.462829 S    
O7    Cu2   1.973811 S    
C13   H9    1.107816 S    
C3    C8    1.451390 S    
C14   H10   1.112058 S    
C1    C9    1.406501 S    
C12   H5    1.109928 S    
C2    C10   1.406611 S    
O9    C13   1.412389 S    
O6    C4    1.278884 A    
C11   H1    1.111296 S    
C13   H7    1.115246 S    
C6    C12   1.511672 S    
C5    C11   1.512969 S    
C14   H11   1.114333 S    
N1    N2    1.196417 T    
C12   H6    1.110228 S    
O5    C3    1.279388 A    
O7    C3    1.271866 A    
O2    C2    1.273916 A    
O3    Cu2   1.935580 S    
O8    C4    1.278310 A    
O1    C1    1.273856 A    
Cu2   N1    1.978711 S    
C6    C8    1.352071 D    
O10   C14   1.410507 S    
Cu1   N2    1.978711 S    
C14   H12   1.109270 S    
C11   H2    1.110644 S    
O4    Cu2   1.935530 S    
C7    O9    1.395366 S    
O1    Cu1   1.935391 S    
C5    C6    1.460440 S    
O6    Cu1   1.973762 S    
O5    Cu1   1.970046 S    
O4    C2    1.273845 A    
O8    Cu2   1.970102 S    
C11   H3    1.109201 S    
C12   H4    1.110679 S    
C5    C7    1.352767 D    
O2    Cu1   1.935439 S    
Cu1   Cu2   2.633299 S    
C8    O10   1.388958 S    
C9    C10   1.189064 T    
O3    C1    1.273846 A    
C13   H8    1.110178 S    
