data_mof_unit_16632.cif
_audit_creation_date              2012-12-11T15:46:48-0500
_audit_creation_method            fapswitch 2.2
_symmetry_space_group_name_H-M    P1
_symmetry_Int_Tables_number       1
_space_group_crystal_system       triclinic
_cell_length_a                    11.5345
_cell_length_b                    11.680951
_cell_length_c                    19.536574
_cell_angle_alpha                 90.590096
_cell_angle_beta                  89.979936
_cell_angle_gamma                 60.177147
_cell_volume                      2283.47790521

loop_
_atom_site_label
_atom_site_type_symbol
_atom_type_description
_atom_site_fract_x
_atom_site_fract_y
_atom_site_fract_z
_atom_type_partial_charge
C1    C     C_R   0.640490 0.116529 0.599241 0.544235
C2    C     C_1   0.641202 0.704387 0.667971 0.003267
C3    C     C_1   0.126398 0.199670 0.859357 0.001911
C4    C     C_1   0.171575 0.170471 0.727699 -0.031307
C5    C     C_1   0.150064 0.182912 0.798970 -0.031993
C6    C     C_1   0.195562 0.160742 0.667324 0.003645
C7    C     C_1   0.678631 0.191613 0.860831 0.003050
C8    C     C_1   0.658954 0.166603 0.729019 -0.031341
C9    C     C_1   0.665853 0.180838 0.800365 -0.031540
C10   C     C_1   0.653413 0.148752 0.668609 0.003613
C11   C     C_R   0.651760 0.685252 0.188739 -0.001716
C12   C     C_R   0.612398 0.746359 0.598621 0.547944
C13   C     C_R   0.539934 0.698502 0.223321 0.032005
C14   C     C_R   0.536320 0.697980 0.293308 -0.009432
C15   C     C_R   0.757745 0.670518 0.298297 -0.179622
C16   C     C_R   0.759408 0.674825 0.226905 -0.173754
C17   C     C_3   0.395577 0.804490 0.218580 -0.124468
C18   C     C_3   0.388549 0.794920 0.296638 -0.104228
C19   C     C_R   0.642480 0.690264 0.332269 -0.000305
C20   C     C_R   0.134662 0.201015 0.194220 0.001034
C21   C     C_R   0.174225 0.281080 0.228777 0.016234
C22   C     C_R   0.191622 0.270530 0.299079 0.037730
C23   C     C_R   0.241662 0.144888 0.598118 0.545629
C24   C     C_R   0.120630 0.110507 0.303670 -0.182227
C25   C     C_R   0.104182 0.117523 0.232866 -0.159852
C26   C     C_3   0.090957 0.427781 0.233934 -0.265391
C27   C     C_3   0.100619 0.415185 0.309940 -0.283058
C28   C     C_R   0.178512 0.175706 0.335627 0.008226
C29   C     C_R   0.687569 0.196236 0.198967 0.001736
C30   C     C_R   0.773105 0.074154 0.227284 0.022102
C31   C     C_R   0.770861 0.052521 0.295801 -0.001133
C32   C     C_R   0.612907 0.282285 0.314333 -0.020380
C33   C     C_R   0.615555 0.303698 0.243547 -0.139888
C34   C     C_R   0.647613 0.112767 0.403765 0.536062
C35   C     C_3   0.792433 0.942963 0.206814 -0.276455
C36   C     C_3   0.787134 0.919600 0.282303 -0.260528
C37   C     C_R   0.681460 0.152333 0.339548 0.021005
C38   C     C_R   0.081036 0.231950 0.928654 0.544531
C39   C     C_R   0.684102 0.604070 0.929531 0.541114
C40   C     C_R   0.708564 0.207153 0.930184 0.547093
C41   C     C_R   0.080139 0.237687 0.125882 0.537282
C42   C     C_R   0.679722 0.617808 0.123268 0.537213
C43   C     C_R   0.710599 0.213804 0.128116 0.545262
C44   C     C_R   0.615368 0.740429 0.401787 0.536615
C45   C     C_R   0.240223 0.143042 0.402876 0.531169
C46   C     C_1   0.670694 0.646039 0.860182 0.003637
C47   C     C_1   0.654829 0.683941 0.728419 -0.031769
C48   C     C_1   0.663670 0.666489 0.799733 -0.031787
Cr1   Cr    Cr6+3 0.404720 0.198220 0.499960 1.007923
Cr2   Cr    Cr6+3 0.698290 0.897110 0.500380 1.013282
Cr3   Cr    Cr6+3 0.396970 0.904720 0.499610 1.006793
Cr4   Cr    Cr6+3 0.926290 0.152010 0.028150 1.001945
Cr5   Cr    Cr6+3 0.921440 0.451830 0.027490 1.016856
Cr6   Cr    Cr6+3 0.626370 0.446880 0.028730 1.011930
H1    H     H_    0.840675 0.665195 0.326763 0.123863
H2    H     H_    0.141976 0.478822 0.212162 0.127728
H3    H     H_    0.147211 0.467324 0.334153 0.126801
H4    H     H_    0.005058 0.436671 0.334881 0.141238
H5    H     H_    0.560248 0.402975 0.223683 0.135847
H6    H     H_    0.892496 0.878406 0.183422 0.132512
H7    H     H_    0.706482 0.949521 0.177727 0.135465
H8    H     H_    0.695655 0.917021 0.297488 0.162020
H9    H     H_    0.882984 0.839166 0.301917 0.134764
H10   H     H_    0.845627 0.668033 0.201146 0.126308
H11   H     H_    0.385989 0.900810 0.204007 0.123667
H12   H     H_    0.366855 0.887937 0.322852 0.175735
H13   H     H_    0.077955 0.065781 0.334181 0.113117
H14   H     H_    0.056799 0.066784 0.209622 0.148253
H15   H     H_    0.988725 0.461582 0.215666 0.172626
O1    O     O_R   0.267750 0.231960 0.575440 -0.503968
O2    O     O_R   0.685950 0.784660 0.430010 -0.506265
O3    O     O_R   0.502510 0.767000 0.423980 -0.535515
O4    O     O_R   0.288320 0.026340 0.429250 -0.522841
O5    O     O_3   0.499990 0.000020 0.499980 -0.250521
O6    O     O_R   0.821590 0.119350 0.952850 -0.507089
O7    O     O_R   0.037230 0.162540 0.957390 -0.497975
O8    O     O_R   0.056530 0.344750 0.951370 -0.504166
O9    O     O_R   0.798000 0.560370 0.957490 -0.494647
O10   O     O_R   0.596230 0.579400 0.952760 -0.513745
O11   O     O_R   0.639160 0.321170 0.958690 -0.493331
O12   O     O_R   0.527290 0.186640 0.570530 -0.494902
O13   O     O_R   0.821370 0.124220 0.104400 -0.519964
O14   O     O_R   0.037020 0.167050 0.097880 -0.518002
O15   O     O_R   0.056310 0.349620 0.102920 -0.518432
O16   O     O_R   0.797790 0.564880 0.097980 -0.509501
O17   O     O_R   0.596000 0.584270 0.104310 -0.527577
O18   O     O_R   0.638950 0.325690 0.099180 -0.506545
O19   O     O_3   0.824700 0.350240 0.028120 -0.250614
O20   O     O_R   0.728110 0.003450 0.576380 -0.506682
O21   O     O_R   0.682980 0.789190 0.570500 -0.493051
O22   O     O_R   0.499300 0.771880 0.575540 -0.505857
O23   O     O_R   0.285350 0.030870 0.569740 -0.493879
O24   O     O_R   0.270960 0.227070 0.423890 -0.524934
O25   O     O_R   0.530270 0.182120 0.430040 -0.511107
O26   O     O_R   0.731320 0.998570 0.424830 -0.527320
C49   C     C_3   0.526409 0.396721 0.359591 -0.269880
C50   C     C_3   0.382918 0.427022 0.351883 -0.418597
H16   H     H_    0.345787 0.463076 0.299813 0.119366
H17   H     H_    0.374552 0.337672 0.357103 0.216834
H18   H     H_    0.319827 0.498274 0.391894 0.129345
H19   H     H_    0.557608 0.377008 0.413949 0.158996
H20   H     H_    0.538377 0.481095 0.344522 0.138106
C51   C     C_3   0.307893 0.767134 0.174516 -0.249211
C52   C     C_3   0.288332 0.824491 0.102383 -0.295983
C53   C     C_3   0.197487 0.791876 0.059767 -0.417463
H21   H     H_    0.242130 0.683264 0.054156 0.145412
H22   H     H_    0.097512 0.833928 0.084447 0.148350
H23   H     H_    0.184844 0.835084 0.008077 0.154348
H24   H     H_    0.242523 0.933288 0.106073 0.168796
H25   H     H_    0.385635 0.785833 0.075624 0.192609
H26   H     H_    0.352398 0.658087 0.171135 0.162301
H27   H     H_    0.207443 0.809475 0.198481 0.139501
C54   C     C_3   0.314183 0.727161 0.327366 -0.251215
C55   C     C_3   0.171980 0.821425 0.351883 -0.317739
C56   C     C_3   0.108107 0.751245 0.387810 -0.465022
H28   H     H_    0.101977 0.680007 0.352258 0.135080
H29   H     H_    0.165488 0.700443 0.434184 0.148668
H30   H     H_    0.005431 0.825008 0.404590 0.173442
H31   H     H_    0.175880 0.889731 0.390371 0.189358
H32   H     H_    0.108865 0.873472 0.307287 0.156985
H33   H     H_    0.312323 0.657489 0.289733 0.142563
H34   H     H_    0.368966 0.672709 0.373390 0.183632

loop_
_geom_bond_atom_site_label_1
_geom_bond_atom_site_label_2
_ccdc_geom_bond_type
C52   H25   S    
C21   C26   S    
C49   H20   S    
C34   C37   S    
C14   C18   S    
C12   O22   A    
C35   C36   S    
Cr3   O5    S    
Cr4   O6    S    
C2    C12   S    
C38   O8    A    
C50   H16   S    
C38   O7    A    
C15   C19   A    
C53   H22   S    
C26   C27   S    
C30   C35   S    
C44   O2    A    
Cr5   O15   S    
C12   O21   A    
Cr6   O10   S    
Cr2   O5    S    
C52   H24   S    
Cr2   O26   S    
C20   C25   A    
C1    O12   A    
C15   C16   A    
C41   O14   A    
C29   C33   A    
C11   C42   S    
C45   O4    A    
Cr1   O12   S    
C24   H13   S    
Cr3   O22   S    
Cr2   O21   S    
C54   H34   S    
C3    C38   S    
C8    C9    S    
C56   H29   S    
C7    C40   S    
C40   O11   A    
C42   O17   A    
Cr1   O25   S    
C36   H9    S    
C24   C28   A    
C31   C36   S    
C55   H31   S    
C45   O24   A    
C33   H5    S    
C22   C28   A    
C13   C14   A    
C29   C43   S    
C23   O1    A    
C25   H14   S    
C36   H8    S    
C18   C54   S    
C52   C53   S    
C50   H17   S    
C20   C41   S    
Cr6   O11   S    
C53   H23   S    
C46   C48   T    
C28   C45   S    
C39   O9    A    
C34   O25   A    
Cr4   O19   S    
C49   H19   S    
C24   C25   A    
C4    C6    T    
C27   H3    S    
Cr6   O17   S    
Cr4   O7    S    
C41   O15   A    
C31   C37   A    
C51   H27   S    
C15   H1    S    
Cr4   O14   S    
Cr5   O8    S    
Cr2   O2    S    
C29   C30   A    
Cr3   O23   S    
C11   C16   A    
Cr2   O20   S    
C47   C48   S    
C30   C31   A    
C56   H30   S    
C49   C50   S    
C17   C18   S    
C35   H7    S    
C42   O16   A    
C32   C37   A    
C34   O26   A    
Cr4   O13   S    
C39   C46   S    
C32   C49   S    
Cr1   O1    S    
Cr3   O3    S    
C50   H18   S    
C19   C44   S    
C54   C55   S    
C7    C9    T    
C1    O20   A    
Cr1   O5    S    
C14   C19   A    
C1    C10   S    
Cr3   O4    S    
C4    C5    S    
C3    C5    T    
C27   H4    S    
C26   H2    S    
C55   C56   S    
C51   H26   S    
C2    C47   T    
C18   H12   S    
C53   H21   S    
C17   H11   S    
C40   O6    A    
C13   C17   S    
C22   C27   S    
C43   O18   A    
C32   C33   A    
Cr5   O9    S    
C17   C51   S    
Cr6   O19   S    
C11   C13   A    
C56   H28   S    
Cr6   O18   S    
C6    C23   S    
C44   O3    A    
Cr5   O19   S    
C54   H33   S    
C20   C21   A    
C8    C10   T    
C51   C52   S    
C26   H15   S    
C23   O23   A    
C35   H6    S    
Cr5   O16   S    
C16   H10   S    
Cr1   O24   S    
C21   C22   A    
C55   H32   S    
C43   O13   A    
C39   O10   A    
