data_mof_unit_42816.cif
_audit_creation_date              2013-03-05T15:45:14-0500
_audit_creation_method            fapswitch 2.2
_symmetry_space_group_name_H-M    P1
_symmetry_Int_Tables_number       1
_space_group_crystal_system       triclinic
_cell_length_a                    8.447231
_cell_length_b                    13.025722
_cell_length_c                    19.094849
_cell_angle_alpha                 95.352042
_cell_angle_beta                  94.505622
_cell_angle_gamma                 97.978108
_cell_volume                      2062.68429183

loop_
_atom_site_label
_atom_site_type_symbol
_atom_site_description
_atom_site_fract_x
_atom_site_fract_y
_atom_site_fract_z
_atom_type_partial_charge
P1    P     P_3+3 0.986780 0.745970 0.554690 0.476366
O1    O     O_2   0.160820 0.763040 0.533820 -0.369981
O2    O     O_3   0.890970 0.628600 0.535400 -0.389116
O3    O     O_3   0.385950 0.698560 0.408070 -0.318195
O4    O     O_2   0.330879 0.887723 0.448064 -0.393118
O5    O     O_3   0.013426 0.775607 0.646636 -0.591851
O6    O     O_3   0.386928 0.865569 0.316209 -0.601187
C1    C     C_3   0.468051 0.907783 0.201321 0.023491
H1    H     H_    0.404400 0.971769 0.218237 0.199674
P2    P     P_3+3 0.341450 0.417130 0.341310 0.506315
P3    P     P_3+3 0.917028 0.621393 0.281162 0.465079
O7    O     O_2   0.172860 0.449730 0.330520 -0.349141
O8    O     O_3   0.962080 0.644700 0.373110 -0.387881
O9    O     O_2   0.062258 0.585525 0.246604 -0.396470
O10   O     O_3   0.281887 0.282618 0.334935 -0.583306
O11   O     O_3   0.892869 0.741192 0.250185 -0.535930
C2    C     C_3   0.030697 0.815208 0.266135 0.769542
H2    H     H_    0.140126 0.778680 0.262047 0.169429
C3    C     C_3   0.027623 0.892846 0.211179 -1.027613
H3    H     H_    0.927792 0.937755 0.217943 0.278899
H4    H     H_    0.139485 0.949016 0.217279 0.237677
C4    C     C_3   0.919327 0.224877 0.318974 0.292081
H5    H     H_    0.015834 0.285084 0.343907 0.160698
C5    C     C_3   0.970762 0.117491 0.323428 -1.006012
H6    H     H_    0.863549 0.057241 0.320750 0.253682
H7    H     H_    0.044421 0.098816 0.279889 0.257840
H8    H     H_    0.048917 0.116514 0.372463 0.241531
Ba1   Ba    Ba6+2 0.160910 0.552960 0.466220 1.607474
C6    C     C_3   0.045557 0.687783 0.679104 0.301127
H9    H     H_    0.161766 0.666474 0.664288 0.103569
H10   H     H_    0.948630 0.621001 0.663025 0.129990
C7    C     C_3   0.050296 0.711530 0.759487 -0.921095
H11   H     H_    0.036705 0.637005 0.783732 0.180202
H12   H     H_    0.947375 0.751359 0.773104 0.210942
C8    C     C_3   0.411039 0.231804 0.353838 0.433243
H13   H     H_    0.386965 0.196682 0.403365 0.112144
H14   H     H_    0.526660 0.284411 0.360850 0.137654
C9    C     C_3   0.422112 0.144854 0.296832 -0.470504
H15   H     H_    0.311595 0.087245 0.292988 0.199367
H16   H     H_    0.525765 0.104798 0.311386 0.209882
P4    P     P_3+3 0.823520 0.254020 0.445250 0.460472
O12   O     O_2   0.649470 0.236890 0.466160 -0.391009
O13   O     O_3   0.919320 0.371390 0.464540 -0.371550
O14   O     O_3   0.424350 0.301430 0.591880 -0.400584
O15   O     O_3   0.780070 0.234528 0.352982 -0.620122
P5    P     P_3+3 0.872052 0.357478 0.718044 0.495420
O16   O     O_3   0.382770 0.553920 0.582990 -0.364795
O17   O     O_3   0.848220 0.355290 0.626830 -0.378967
O18   O     O_2   0.723992 0.398281 0.746396 -0.407284
O19   O     O_3   0.851690 0.225651 0.732912 -0.542622
Ba2   Ba    Ba6+2 0.649260 0.447030 0.533730 1.597584
P6    P     P_3+3 0.443539 0.833351 0.401500 0.438021
C10   C     C_3   0.503888 0.850620 0.268358 0.305551
H17   H     H_    0.625679 0.882811 0.294070 -0.002223
O20   O     O_3   0.427530 0.446070 0.416950 -0.391722
C11   C     C_3   0.601644 0.768933 0.694323 0.490404
H18   H     H_    0.705741 0.729064 0.683124 0.080231
C12   C     C_3   0.655409 0.846897 0.759779 -0.954206
H19   H     H_    0.777886 0.887834 0.755886 0.208607
H20   H     H_    0.569824 0.903443 0.767608 0.299404
H21   H     H_    0.661760 0.805546 0.807809 0.301170
P7    P     P_3+3 0.458926 0.572898 0.673642 0.507572
O21   O     O_2   0.637430 0.550200 0.669460 -0.371627
O22   O     O_3   0.465850 0.702966 0.708545 -0.566537
H22   H     H_    0.010984 0.851578 0.156966 0.265830
C13   C     C_3   0.829144 0.165189 0.666690 0.520677
H23   H     H_    0.719227 0.179765 0.636141 0.166087
H24   H     H_    0.932947 0.183114 0.636337 0.115583
C14   C     C_3   0.811731 0.050232 0.674500 -1.040132
H25   H     H_    0.773093 0.005863 0.622258 0.255041
H26   H     H_    0.926609 0.026676 0.693975 0.260833
H27   H     H_    0.719221 0.031715 0.710582 0.306133
P8    P     P_3+3 0.380141 0.161756 0.587904 0.482575
C15   C     C_3   0.422778 0.182599 0.726657 0.427510
O23   O     O_2   0.491145 0.116999 0.536249 -0.375633
O24   O     O_3   0.440460 0.113161 0.667677 -0.518116
H28   H     H_    0.474868 0.263499 0.719165 0.109396
H29   H     H_    0.511095 0.214520 0.837654 0.227804
C16   C     C_3   0.512136 0.153403 0.793286 -0.908317
H30   H     H_    0.638197 0.148148 0.786720 0.286219
H31   H     H_    0.458077 0.076525 0.807837 0.294611
C17   C     C_R   0.073624 0.175720 0.522678 -0.460822
C18   C     C_R   0.746225 0.815684 0.467113 -0.377958
C19   C     C_R   0.709417 0.992469 0.445195 -0.201376
C20   C     C_R   0.651961 0.885029 0.439169 0.174751
C21   C     C_R   0.892205 0.850132 0.507639 0.242399
C22   C     C_R   0.954282 0.960813 0.513019 -0.081912
C23   C     C_R   0.860596 0.033388 0.481068 -0.007798
C24   C     C_R   0.921171 0.144374 0.487281 0.131640
C25   C     C_R   0.169163 0.107420 0.550751 0.173901
C26   C     C_R   0.107828 0.001061 0.547752 -0.162300
H32   H     H_    0.634425 0.043448 0.422005 0.172553
H33   H     H_    0.182347 0.950688 0.571844 0.213005
H34   H     H_    0.699773 0.733313 0.460825 0.185114
C27   C     C_R   0.624628 0.506525 0.296432 -0.455112
C28   C     C_R   0.470343 0.457290 0.273676 0.317460
C29   C     C_R   0.421738 0.434050 0.201125 -0.359303
C30   C     C_R   0.526696 0.465951 0.150870 0.034799
C31   C     C_R   0.683230 0.515611 0.174876 -0.052820
C32   C     C_R   0.730476 0.536391 0.247896 0.309836
C33   C     C_R   0.454969 0.549324 0.043026 -0.215710
C34   C     C_R   0.389730 0.546507 0.973316 -0.199031
C35   C     C_R   0.330147 0.451587 0.932676 0.109908
C36   C     C_R   0.333375 0.357251 0.964649 0.249198
C37   C     C_R   0.410178 0.360246 0.034225 0.266083
C38   C     C_R   0.466322 0.457382 0.074499 0.082551
C39   C     C_R   0.118078 0.423348 0.829697 -0.277280
C40   C     C_R   0.067506 0.428352 0.758755 0.352877
C41   C     C_R   0.339351 0.499923 0.736444 0.225962
C42   C     C_R   0.393448 0.492726 0.808448 -0.219252
C43   C     C_R   0.280420 0.454452 0.855526 -0.015899
C44   C     C_R   0.176230 0.471763 0.714658 -0.346439
H35   H     H_    0.387316 0.619356 0.950387 0.175104
H36   H     H_    0.497651 0.624198 0.072636 0.180419
H37   H     H_    0.300316 0.396805 0.184089 0.177045
H38   H     H_    0.032276 0.391673 0.864242 0.171081
H39   H     H_    0.764247 0.543679 0.137313 0.139769
H40   H     H_    0.132038 0.485549 0.662442 0.157038
H41   H     H_    0.661461 0.524781 0.352332 0.161869
C45   C     C_2   0.498351 0.737901 0.244854 0.957244
O25   O     O_2   0.589979 0.711620 0.202783 -0.671072
O26   O     O_R   0.371452 0.666989 0.260581 -0.741404
H42   H     H_    0.339947 0.610494 0.220191 0.327176
C46   C     C_2   0.203809 0.778272 0.791134 1.256622
O27   O     O_2   0.294019 0.743139 0.832727 -0.616453
O28   O     O_R   0.244129 0.880526 0.775086 -0.742734
H43   H     H_    0.158618 0.903747 0.742624 0.343292
C47   C     C_3   0.357932 0.842806 0.139490 -0.889751
H44   H     H_    0.426719 0.794376 0.105913 0.272455
H45   H     H_    0.302896 0.895528 0.105441 0.256976
H46   H     H_    0.260786 0.789760 0.158602 0.236647
C48   C     C_3   0.442197 0.188295 0.226234 -0.840639
H47   H     H_    0.331686 0.219008 0.208088 0.272215
H48   H     H_    0.547032 0.250941 0.231722 0.258551
H49   H     H_    0.462674 0.127855 0.184978 0.259883
C49   C     C_3   0.621944 0.955785 0.172612 -0.858249
H50   H     H_    0.690302 0.893691 0.153391 0.286641
H51   H     H_    0.593840 0.000477 0.127587 0.272811
H52   H     H_    0.695051 0.010050 0.214696 0.256435
C50   C     C_2   0.550184 0.817555 0.630758 0.896114
O29   O     O_2   0.501971 0.901964 0.635094 -0.589099
O30   O     O_R   0.529906 0.754668 0.567234 -0.793688
H53   H     H_    0.454651 0.781105 0.532528 0.373057
C51   C     C_2   0.249780 0.178174 0.738816 0.906336
O31   O     O_2   0.175866 0.242662 0.715328 -0.679485
O32   O     O_R   0.175004 0.103086 0.778016 -0.792174
H54   H     H_    0.065249 0.117275 0.790541 0.345751
C52   C     C_2   0.136019 0.284360 0.532664 1.122127
O33   O     O_2   0.121675 0.335146 0.587644 -0.640544
O34   O     O_R   0.225776 0.327272 0.482678 -0.759354
H55   H     H_    0.285301 0.396338 0.504454 0.386416
C53   C     C_2   0.564873 0.524433 0.835689 1.109824
O35   O     O_2   0.629673 0.471284 0.875601 -0.645118
O36   O     O_R   0.652516 0.614900 0.817031 -0.783291
H56   H     H_    0.766904 0.627705 0.839871 0.306826
C54   C     C_3   0.253985 0.253433 0.926998 -0.946333
H57   H     H_    0.340191 0.197016 0.923077 0.266992
H58   H     H_    0.154261 0.221064 0.956777 0.261409
H59   H     H_    0.203575 0.259101 0.872988 0.260995
C55   C     C_3   0.030424 0.872689 0.339761 -0.814404
H60   H     H_    0.910321 0.894517 0.347021 0.203637
H61   H     H_    0.060613 0.823520 0.381297 0.281235
H62   H     H_    0.121654 0.943675 0.347462 0.241671
C56   C     C_3   0.440360 0.259845 0.063022 -0.975206
H63   H     H_    0.325562 0.215194 0.074818 0.258942
H64   H     H_    0.498427 0.211909 0.024424 0.265153
H65   H     H_    0.526150 0.274020 0.110764 0.272002
C57   C     C_2   0.888934 0.245589 0.242581 1.000292
O37   O     O_2   0.869604 0.174981 0.194543 -0.617419
O38   O     O_R   0.884147 0.346545 0.225855 -0.792147
H66   H     H_    0.902418 0.397133 0.269952 0.287703

loop_
_geom_bond_atom_site_label_1
_geom_bond_atom_site_label_2
_geom_bond_distance
_ccdc_geom_bond_type
C13   H24   1.098896 S    
C22   C23   1.459995 A    
H29   C16   1.108544 S    
Ba1   O16   2.795668 S    
C33   C34   1.395322 A    
C22   C26   1.417129 A    
C1    C49   1.526973 S    
P8    O23   1.543311 D    
P4    O12   1.545509 D    
C7    C46   1.506154 S    
P4    C24   1.949672 S    
C3    H3    1.099982 S    
C5    H8    1.104599 S    
C47   H44   1.109727 S    
O16   P7    1.781115 S    
C29   C30   1.409036 A    
C10   C45   1.487970 S    
C10   H17   1.112552 S    
P5    O18   1.541765 D    
C6    H9    1.106944 S    
C17   C24   1.395640 A    
C15   O24   1.408067 S    
O3    P6    1.774440 S    
C56   H63   1.109756 S    
C3    H4    1.103023 S    
C5    H7    1.105918 S    
O6    P6    1.765782 S    
C6    C7    1.533474 S    
C42   C53   1.487822 S    
P2    O10   1.744639 S    
C48   H49   1.101730 S    
C9    H15   1.106584 S    
C11   C50   1.483327 S    
P3    O9    1.545163 D    
C13   C14   1.506661 S    
C26   H33   1.078812 S    
O38   H66   1.007416 S    
C12   H20   1.109854 S    
P1    C21   1.924005 S    
C11   H18   1.106446 S    
C35   C43   1.505143 S    
P1    O1    1.545135 D    
C14   H26   1.105153 S    
C2    C55   1.530268 S    
C42   C43   1.433371 A    
P7    O22   1.753200 S    
C2    C3    1.524973 S    
C19   C20   1.407131 A    
C1    C47   1.548555 S    
O17   Ba2   2.810213 S    
C27   C28   1.387684 A    
C1    H1    1.090672 S    
C15   H28   1.110773 S    
P5    C40   1.850370 S    
P1    Ba1   3.458715 S    
C39   C40   1.398220 A    
C11   O22   1.395266 S    
O4    P6    1.549323 D    
C29   H37   1.083150 S    
C48   H47   1.109169 S    
C9    C48   1.522442 S    
O12   Ba2   2.915476 S    
C4    C57   1.516703 S    
C12   H21   1.107499 S    
C57   O38   1.387088 S    
C13   H23   1.105863 S    
C33   H36   1.080896 S    
P4    O13   1.622513 S    
O14   P8    1.799007 S    
C49   H52   1.105278 S    
O10   C8    1.393474 S    
C36   C37   1.426647 A    
O3    Ba1   2.857824 S    
Ba1   O20   2.975749 S    
C45   O26   1.385613 S    
C56   H65   1.103626 S    
P5    O17   1.734642 S    
P1    O5    1.751999 S    
C55   H62   1.108832 S    
C8    C9    1.513861 S    
Ba2   O21   2.821579 S    
C50   O29   1.222375 D    
P6    C20   1.857933 S    
C51   O32   1.398315 S    
C4    O15   1.402524 S    
C41   C44   1.395508 A    
C16   H31   1.110604 S    
O2    Ba2   2.898054 S    
C27   C32   1.382253 A    
O11   C2    1.398464 S    
O16   Ba2   2.974754 S    
C27   H41   1.082876 S    
C12   H19   1.107510 S    
C18   H34   1.082261 S    
C36   C54   1.512112 S    
C40   C44   1.392268 A    
P3    C32   1.827537 S    
P1    O2    1.622543 S    
C8    H13   1.109110 S    
C7    H12   1.108231 S    
C14   H27   1.098539 S    
P7    O21   1.582948 D    
C31   H39   1.083092 S    
P3    O11   1.751633 S    
C31   C32   1.410255 A    
P2    C28   1.820947 S    
C28   C29   1.406165 A    
C18   C21   1.397300 A    
C2    H2    1.101561 S    
C37   C56   1.510757 S    
O8    Ba1   2.809667 S    
C17   C25   1.396578 A    
C5    H6    1.107556 S    
P2    O20   1.553792 S    
O19   C13   1.410758 S    
O36   H56   1.013495 S    
P2    O7    1.545630 D    
O14   Ba2   2.857162 S    
C49   H51   1.110901 S    
C57   O37   1.221211 D    
C18   C20   1.399090 A    
O7    Ba1   2.821563 S    
C15   C16   1.533665 S    
P8    O24   1.768626 S    
C4    C5    1.528937 S    
O2    Ba1   2.961310 S    
O6    C10   1.418080 S    
C47   H46   1.104856 S    
C45   O25   1.217198 D    
C46   O28   1.396622 S    
O32   H54   1.012460 S    
C53   O36   1.393279 S    
P2    Ba1   3.417359 S    
C33   C38   1.400628 A    
C15   C51   1.491704 S    
C54   H57   1.105792 S    
P4    O15   1.758514 S    
C8    H14   1.103605 S    
C21   C22   1.455372 A    
C39   C43   1.410743 A    
C54   H59   1.097430 S    
C4    H5    1.094615 S    
C19   C23   1.410547 A    
C52   O34   1.376195 S    
C51   O31   1.211800 D    
C47   H45   1.111254 S    
C1    C10   1.569744 S    
P8    C25   1.880944 S    
C17   C52   1.429527 S    
C50   O30   1.383737 S    
C37   C38   1.418389 A    
P5    O19   1.753683 S    
Ba1   O13   2.897433 S    
C30   C38   1.495368 S    
C55   H60   1.106419 S    
C54   H58   1.110008 S    
C6    H10   1.110994 S    
C34   H35   1.083511 S    
C41   C42   1.430111 A    
C7    H11   1.109550 S    
C9    H16   1.109840 S    
P3    O8    1.755875 S    
O13   Ba2   2.962264 S    
C25   C26   1.404404 A    
P7    C41   1.870366 S    
O28   H43   1.011320 S    
C56   H64   1.108889 S    
Ba1   Ba2   4.653959 S    
C11   C12   1.531592 S    
C3    H22   1.110266 S    
Ba2   O20   2.795146 S    
C52   O33   1.211240 D    
C34   C35   1.403957 A    
C14   H25   1.106624 S    
C39   H38   1.083310 S    
C16   H30   1.092677 S    
O5    C6    1.399549 S    
C23   C24   1.455672 A    
C48   H48   1.109039 S    
C30   C31   1.410320 A    
C35   C36   1.424798 A    
O30   H53   0.999510 S    
C44   H40   1.076683 S    
O34   H55   1.003429 S    
C49   H50   1.109011 S    
O1    Ba1   2.914811 S    
C53   O35   1.223845 D    
C19   H32   1.079748 S    
O26   H42   1.007316 S    
P4    Ba2   3.459422 S    
C55   H61   1.101186 S    
C46   O27   1.220826 D    
