data_mof_unit_42954.cif
_audit_creation_date              2012-12-11T17:41:22-0500
_audit_creation_method            fapswitch 2.2
_symmetry_space_group_name_H-M    P1
_symmetry_Int_Tables_number       1
_space_group_crystal_system       triclinic
_cell_length_a                    15.527858
_cell_length_b                    14.82279
_cell_length_c                    15.12444
_cell_angle_alpha                 109.735272
_cell_angle_beta                  121.750088
_cell_angle_gamma                 59.0632
_cell_volume                      2528.27238899

loop_
_atom_site_label
_atom_site_type_symbol
_atom_type_description
_atom_site_fract_x
_atom_site_fract_y
_atom_site_fract_z
_atom_type_partial_charge
C1    C     C_R   0.801718 0.939587 0.775083 -0.082391
C2    C     C_R   0.239176 0.011345 0.209043 -0.001769
C3    C     C_R   0.135438 0.274136 0.478441 0.191086
C4    C     C_R   0.789552 0.698488 0.436228 0.174750
C5    C     C_R   0.503494 0.325101 0.556126 0.061381
C6    C     C_R   0.497699 0.697643 0.563963 0.066214
C7    C     C_R   0.502163 0.028394 0.824749 0.222376
C8    C     C_R   0.502225 0.060767 0.201155 0.135962
C9    C     C_R   0.641898 0.667698 0.875465 -0.104283
C10   C     C_R   0.343877 0.395615 0.226622 -0.118559
C11   C     C_R   0.581783 0.775011 0.896870 -0.099984
C12   C     C_R   0.413102 0.301988 0.190315 -0.138026
C13   C     C_R   0.634644 0.843578 0.945373 0.254303
C14   C     C_R   0.367754 0.252810 0.090221 0.234091
C15   C     C_R   0.749247 0.802795 0.974473 -0.124087
C16   C     C_R   0.252217 0.299501 0.026904 -0.092487
C17   C     C_R   0.808462 0.695899 0.950138 -0.120075
C18   C     C_R   0.183342 0.393310 0.063418 -0.118572
C19   C     C_R   0.754858 0.628289 0.900886 -0.095102
C20   C     C_R   0.229103 0.441226 0.163231 -0.085966
C21   C     C_R   0.575263 0.964814 0.076864 0.735307
C22   C     C_R   0.440938 0.138728 0.958873 0.720952
C23   C     C_R   0.198095 0.274522 0.439181 -0.089415
C24   C     C_R   0.758048 0.708769 0.511086 -0.044008
C25   C     C_R   0.507974 0.061754 0.111156 -0.244322
C26   C     C_R   0.507096 0.040583 0.924192 -0.256232
C27   C     C_R   0.440116 0.150300 0.053542 -0.246776
C28   C     C_R   0.574712 0.952784 0.983119 -0.266191
C29   C     C_2   0.020422 0.348532 0.460367 -0.386414
C30   C     C_2   0.851820 0.599539 0.389722 -0.353171
C31   C     C_2   0.951284 0.410603 0.381487 0.614811
C32   C     C_2   0.857328 0.506639 0.390965 0.619596
C33   C     C_2   0.983317 0.955633 0.850364 -0.278390
C34   C     C_2   0.140883 0.890961 0.098432 -0.280634
C35   C     C_R   0.193653 0.888250 0.632199 -0.313228
C36   C     C_R   0.915829 0.280977 0.813274 -0.322301
C37   C     C_R   0.293521 0.799423 0.641648 -0.184084
C38   C     C_R   0.815075 0.340007 0.735171 -0.205917
C39   C     C_R   0.293311 0.710485 0.568711 0.133508
C40   C     C_R   0.712608 0.366242 0.731977 0.103446
C41   C     C_R   0.191061 0.711824 0.486264 -0.282588
C42   C     C_R   0.713135 0.328484 0.805994 -0.252949
C43   C     C_R   0.091099 0.800584 0.477005 -0.145527
C44   C     C_R   0.813988 0.269188 0.883898 -0.118361
C45   C     C_R   0.594703 0.230558 0.557917 -0.125413
C46   C     C_R   0.406477 0.780942 0.507045 -0.138931
C47   C     C_R   0.091354 0.889188 0.549701 0.609919
C48   C     C_R   0.915884 0.246785 0.889542 0.589437
C49   C     C_R   0.404000 0.518355 0.581214 -0.238051
C50   C     C_R   0.600886 0.532899 0.647683 -0.237804
C51   C     C_R   0.505411 0.428284 0.606327 0.056146
C52   C     C_R   0.498063 0.616866 0.600345 0.045520
C53   C     C_R   0.605653 0.440841 0.658471 0.048760
C54   C     C_R   0.399421 0.615002 0.581941 0.039886
C55   C     C_2   0.050761 0.873597 0.909541 0.374184
C56   C     C_2   0.144993 0.883405 0.009247 0.412484
C57   C     C_R   0.407376 0.042857 0.731163 -0.089078
C58   C     C_R   0.593581 0.012805 0.287001 -0.011740
C59   C     C_R   0.409153 0.306019 0.485343 -0.126153
C60   C     C_R   0.590885 0.709136 0.586895 -0.080124
C61   C     C_R   0.594259 0.973922 0.805500 -0.161100
C62   C     C_R   0.408314 0.083077 0.207705 -0.109457
C63   C     C_R   0.198051 0.184489 0.530892 -0.117486
C64   C     C_R   0.758357 0.799530 0.418744 -0.109179
C65   C     C_R   0.804801 0.029323 0.685892 -0.170893
C66   C     C_R   0.238215 0.918173 0.298292 -0.166722
C67   C     C_R   0.866938 0.976465 0.774938 0.194950
C68   C     C_R   0.205831 0.936159 0.198178 0.198004
H1    H     H_    0.827302 0.885574 0.826169 0.149895
H2    H     H_    0.222729 0.048143 0.147996 0.157210
H3    H     H_    0.079798 0.873513 0.096311 0.106201
H4    H     H_    0.010221 0.016169 0.865818 0.143190
H5    H     H_    0.801310 0.545100 0.884202 0.126509
H6    H     H_    0.175606 0.513582 0.191535 0.112585
H7    H     H_    0.601260 0.614860 0.841050 0.135150
H8    H     H_    0.379177 0.432614 0.304057 0.129202
H9    H     H_    0.495520 0.804017 0.880462 0.107408
H10   H     H_    0.501846 0.267378 0.240444 0.126391
H11   H     H_    0.792697 0.853550 0.016852 0.106950
H12   H     H_    0.215233 0.262254 0.950170 0.119524
H13   H     H_    0.896450 0.665003 0.971654 0.120299
H14   H     H_    0.094341 0.428460 0.014571 0.120711
H15   H     H_    0.903947 0.601801 0.363710 0.148872
H16   H     H_    0.995652 0.359769 0.519869 0.152504
H17   H     H_    0.170889 0.326244 0.385035 0.168407
H18   H     H_    0.773043 0.647014 0.546695 0.158737
H19   H     H_    0.196136 0.955937 0.689251 0.119819
H20   H     H_    0.993625 0.263562 0.815298 0.126847
H21   H     H_    0.371202 0.800102 0.705351 0.128586
H22   H     H_    0.817283 0.366529 0.678190 0.151872
H23   H     H_    0.188683 0.644362 0.428844 0.140737
H24   H     H_    0.635486 0.347875 0.805552 0.156551
H25   H     H_    0.012985 0.800382 0.413162 0.140622
H26   H     H_    0.812944 0.242446 0.941540 0.151791
H27   H     H_    0.327732 0.512909 0.557576 0.133396
H28   H     H_    0.678222 0.538725 0.677873 0.126943
H29   H     H_    0.681671 0.214732 0.599659 0.122877
H30   H     H_    0.319542 0.804297 0.481884 0.116990
H31   H     H_    0.321634 0.077731 0.718602 0.112287
H32   H     H_    0.679817 0.993196 0.310661 0.118153
H33   H     H_    0.323185 0.362239 0.461580 0.093640
H34   H     H_    0.676047 0.667883 0.641483 0.087602
H35   H     H_    0.680576 0.949104 0.861380 0.101852
H36   H     H_    0.322496 0.128604 0.156981 0.106982
H37   H     H_    0.168125 0.152931 0.558548 0.102248
H38   H     H_    0.771729 0.819965 0.366198 0.144625
H39   H     H_    0.836906 0.055174 0.655233 0.129892
H40   H     H_    0.222766 0.865762 0.317661 0.112927
N1    N     N_R   0.705410 0.966550 0.689210 -0.057610
N2    N     N_R   0.294590 0.033450 0.310790 -0.066489
N3    N     N_R   0.294590 0.188320 0.465660 -0.060091
N4    N     N_R   0.705410 0.811680 0.534340 -0.063944
N5    N     N_R   0.556610 0.157790 0.497330 -0.049276
N6    N     N_R   0.443390 0.842210 0.502670 -0.039727
N7    N     N_R   0.443390 0.997080 0.657540 -0.056949
N8    N     N_R   0.556610 0.002920 0.342460 -0.054894
N9    N     N_R   0.443390 0.203250 0.451380 -0.046551
N10   N     N_R   0.556610 0.796750 0.548620 -0.044673
N11   N     N_R   0.556610 0.951620 0.703500 -0.053006
N12   N     N_R   0.443390 0.048380 0.296500 -0.051902
N13   N     N_R   0.294590 0.131500 0.522480 -0.046792
N14   N     N_R   0.705410 0.868500 0.477520 -0.052068
N15   N     N_R   0.705410 0.023370 0.632390 -0.044789
N16   N     N_R   0.294590 0.976630 0.367610 -0.047673
Ni1   Ni    Ni4+2 0.629830 0.882720 0.617850 0.225449
Ni2   Ni    Ni4+2 0.370170 0.117280 0.382150 0.234980
Ni3   Ni    Ni4+2 0.629830 0.013030 0.487540 0.235807
Ni4   Ni    Ni4+2 0.370170 0.986970 0.512460 0.222721
F1    F     F_    0.634124 0.877896 0.130244 -0.704901
F2    F     F_    0.378455 0.222305 0.900769 -0.703961
F3    F     F_    0.791263 0.500360 0.419949 -0.722948
F4    F     F_    0.976557 0.397199 0.303077 -0.718217
O1    O     O_3   0.990931 0.974839 0.538218 -0.783807
H41   H     H_    0.005327 0.030129 0.595967 0.302733
O2    O     O_3   0.013469 0.192905 0.970781 -0.776636
H42   H     H_    0.077613 0.183814 0.963822 0.301043
O3    O     O_3   0.226853 0.898186 0.010970 -0.752317
H43   H     H_    0.215338 0.888792 0.937999 0.310866
O4    O     O_3   0.024517 0.789454 0.884953 -0.768908
H44   H     H_    0.084831 0.737998 0.937585 0.314415

loop_
_geom_bond_atom_site_label_1
_geom_bond_atom_site_label_2
_ccdc_geom_bond_type
C33   C55   D    
C66   C68   A    
C55   C56   S    
C34   C56   D    
C61   N11   A    
N13   Ni4   S    
C48   O2    S    
C3    C23   A    
C24   N4    A    
C35   C47   A    
O2    H42   S    
C57   N7    A    
C36   H20   S    
C7    C26   S    
C35   C37   A    
C2    C68   A    
C4    C24   A    
N12   Ni2   S    
C39   C54   S    
N3    N13   A    
C35   H19   S    
C49   C54   A    
C57   H31   S    
C30   H15   S    
C55   O4    S    
C18   C20   A    
N14   Ni3   S    
C3    C29   S    
C7    C61   A    
C11   H9    S    
C33   H4    S    
C17   C19   A    
C10   H8    S    
C9    C19   A    
C15   H11   S    
C10   C20   A    
C49   C51   A    
N8    Ni3   S    
C12   H10   S    
C50   C52   A    
C13   C28   S    
C60   N10   A    
N10   Ni1   S    
C14   C27   S    
C63   H37   S    
N9    Ni2   S    
C42   H24   S    
N16   Ni4   S    
N2    N16   A    
C40   C42   A    
C46   H30   S    
C59   N9    A    
C38   C40   A    
C47   O1    S    
C58   N8    A    
C8    C25   S    
C41   C43   A    
C42   C44   A    
C60   H34   S    
C18   H14   S    
C63   N13   A    
C52   C54   A    
C62   H36   S    
C50   C53   A    
C46   N6    A    
C59   H33   S    
C6    C60   A    
C19   H5    S    
C58   H32   S    
C29   H16   S    
C39   C41   A    
C34   C68   S    
C5    C59   A    
N1    N15   A    
C1    N1    A    
C65   C67   A    
C5    C45   A    
C1    H1    S    
N7    Ni4   S    
N8    N12   A    
C16   H12   S    
N4    N14   A    
C31   F4    S    
N6    Ni4   S    
C38   H22   S    
N15   Ni3   S    
C31   C32   S    
N3    Ni2   S    
C20   H6    S    
C16   C18   A    
C49   H27   S    
C9    C11   A    
C21   F1    S    
N4    Ni1   S    
N6    N10   A    
C10   C12   A    
N2    Ni2   S    
N5    N9    A    
N11   Ni1   S    
N1    Ni1   S    
C41   H23   S    
C21   C28   A    
C12   C14   A    
N7    N11   A    
C22   C27   A    
C13   C15   A    
C23   H17   S    
O1    H41   S    
C66   N16   A    
C33   C67   S    
C15   C17   A    
C21   C25   A    
C2    N2    A    
C8    C58   A    
C6    C46   A    
C61   H35   S    
C14   C16   A    
C62   N12   A    
C66   H40   S    
O4    H44   S    
C64   H38   S    
N5    Ni3   S    
C3    C63   A    
C25   C27   A    
C23   N3    A    
O3    H43   S    
C4    C64   A    
C26   C28   A    
C37   H21   S    
C43   H25   S    
C6    C52   S    
C36   C38   A    
C29   C31   D    
C45   H29   S    
C30   C32   D    
C56   O3    S    
C11   C13   A    
C50   H28   S    
C24   H18   S    
C64   N14   A    
C1    C67   A    
C65   H39   S    
C36   C48   A    
C17   H13   S    
C65   N15   A    
C4    C30   S    
C44   H26   S    
C45   N5    A    
C37   C39   A    
C40   C53   S    
C22   C26   A    
C5    C51   S    
C9    H7    S    
C51   C53   A    
C2    H2    S    
C43   C47   A    
C34   H3    S    
C7    C57   A    
C32   F3    S    
C22   F2    S    
C44   C48   A    
C8    C62   A    
