data_mof_unit_34637.cif
_audit_creation_date              2012-12-10T17:21:19-0500
_audit_creation_method            fapswitch 2.2
_symmetry_space_group_name_H-M    P1
_symmetry_Int_Tables_number       1
_space_group_crystal_system       triclinic
_cell_length_a                    9.713636
_cell_length_b                    10.761144
_cell_length_c                    13.868065
_cell_angle_alpha                 95.113917
_cell_angle_beta                  84.010048
_cell_angle_gamma                 91.785916
_cell_volume                      1435.62328516

loop_
_atom_site_label
_atom_site_type_symbol
_atom_type_description
_atom_site_fract_x
_atom_site_fract_y
_atom_site_fract_z
_atom_type_partial_charge
C1    C     C_R   0.501984 0.738164 0.496339 0.830074
C2    C     C_1   0.462204 0.506536 0.786106 -0.045937
C3    C     C_R   0.260661 0.881345 0.455203 -0.113584
C4    C     C_R   0.129518 0.924192 0.490096 0.048827
C5    C     C_R   0.117570 0.025994 0.560037 -0.086063
C6    C     C_R   0.234690 0.099241 0.580257 0.030344
C7    C     C_R   0.366297 0.061930 0.535424 0.044607
C8    C     C_R   0.378466 0.939073 0.492674 0.079315
C9    C     C_R   0.502347 0.875568 0.499719 -0.154025
C10   C     C_R   0.614566 0.943396 0.536282 -0.241820
C11   C     C_R   0.608682 0.072815 0.557031 0.332556
C12   C     C_R   0.476717 0.501394 0.682618 0.831926
C13   C     C_R   0.488555 0.134464 0.541361 -0.230911
C14   C     C_R   0.875176 0.377008 0.344428 -0.103902
C15   C     C_R   0.949258 0.374859 0.252967 -0.193298
C16   C     C_R   0.090762 0.400881 0.246690 -0.196931
C17   C     C_R   0.156504 0.392447 0.330845 0.451225
C18   C     C_R   0.083115 0.440284 0.421417 0.027488
C19   C     C_R   0.934332 0.436559 0.424832 0.196827
C20   C     C_R   0.915488 0.569675 0.568290 -0.048374
C21   C     C_R   0.063242 0.567838 0.572420 0.425692
C22   C     C_R   0.495972 0.265679 0.515536 0.867164
C23   C     C_R   0.523492 0.500811 0.317489 0.840031
C24   C     C_1   0.538242 0.496734 0.213979 -0.118130
C25   C     C_2   0.554576 0.485442 0.022371 -0.072579
C26   C     C_2   0.446155 0.519388 0.977681 -0.060812
C27   C     C_1   0.452943 0.512238 0.873320 0.021206
C28   C     C_1   0.547586 0.491829 0.126756 -0.016937
Cu1   Cu    Cu3+1 0.359340 0.500010 0.500010 1.064056
Cu2   Cu    Cu3+1 0.640660 0.499990 0.499990 1.020264
H1    H     H_    0.772502 0.336810 0.350023 0.197215
H2    H     H_    0.899508 0.345364 0.188165 0.187779
H3    H     H_    0.148837 0.384996 0.175810 0.202751
H4    H     H_    0.703926 0.895358 0.553241 0.208261
H5    H     H_    0.269372 0.800267 0.402920 0.138039
H6    H     H_    0.017819 0.051220 0.595379 0.216812
N1    N     N_R   0.852210 0.498790 0.499090 -0.215527
N2    N     N_R   0.148080 0.498710 0.499060 -0.254760
O1    O     O_R   0.381190 0.680360 0.500010 -0.546708
O2    O     O_R   0.618760 0.680340 0.500000 -0.589931
O3    O     O_R   0.364420 0.499990 0.637850 -0.505629
O4    O     O_R   0.601990 0.499960 0.637840 -0.564969
O5    O     O_R   0.381240 0.319660 0.500000 -0.520970
O6    O     O_R   0.618810 0.319640 0.499990 -0.548139
O7    O     O_R   0.398010 0.500040 0.362160 -0.584112
O8    O     O_R   0.635580 0.500010 0.362150 -0.602174
C29   C     C_1   0.320253 0.566323 0.031919 0.311912
N3    N     N_1   0.219647 0.604165 0.075156 -0.262396
S1    S     S_3+6 0.234877 0.244511 0.320247 0.007391
O9    O     O_2   0.390004 0.253406 0.312476 -0.314360
O10   O     O_2   0.180318 0.178671 0.406775 -0.323449
O11   O     O_3   0.190248 0.158014 0.220479 -0.526666
H7    H     H_    0.221905 0.072865 0.227185 0.379919
S2    S     S_3+6 0.125662 0.648364 0.681490 0.033169
O12   O     O_2   0.029637 0.748015 0.728360 -0.296133
O13   O     O_2   0.131774 0.553058 0.753724 -0.260257
O14   O     O_3   0.279628 0.722520 0.667394 -0.519948
H8    H     H_    0.301570 0.750611 0.734172 0.361853
C30   C     C_1   0.681158 0.440245 0.967908 0.322893
N4    N     N_1   0.782309 0.404164 0.924313 -0.172040
C31   C     C_1   0.008689 0.860557 0.456549 0.207957
N5    N     N_1   0.912510 0.808957 0.428435 -0.287508
C32   C     C_1   0.218172 0.202632 0.653866 0.318968
N6    N     N_1   0.204065 0.284556 0.713669 -0.182739
S3    S     S_3+6 0.735802 0.150047 0.624370 0.022671
O15   O     O_2   0.671620 0.255561 0.690438 -0.252118
O16   O     O_2   0.793635 0.060209 0.685859 -0.276925
O17   O     O_3   0.863170 0.208055 0.548369 -0.512362
H9    H     H_    0.867078 0.150774 0.488177 0.332278
C33   C     C_1   0.827897 0.651777 0.634089 0.473212
N7    N     N_1   0.757307 0.718145 0.686510 -0.231561

loop_
_geom_bond_atom_site_label_1
_geom_bond_atom_site_label_2
_ccdc_geom_bond_type
C6    C32   S    
Cu1   N2    S    
C23   C24   S    
Cu1   Cu2   S    
C23   O7    A    
C16   H3    S    
C25   C30   S    
C9    C10   A    
C29   N3    T    
C14   C15   A    
C3    H5    S    
C14   H1    S    
S1    O11   S    
C2    C12   S    
S2    O14   S    
Cu1   O1    S    
S1    O10   D    
C17   C18   A    
C18   N2    A    
Cu2   O2    S    
C30   N4    T    
C10   H4    S    
C23   O8    A    
C2    C27   T    
Cu1   O5    S    
C25   C28   S    
C20   N1    A    
C11   C13   A    
Cu2   O6    S    
O14   H8    S    
C31   N5    T    
C26   C29   S    
C5    C6    A    
C14   C19   A    
C25   C26   D    
Cu2   O8    S    
C13   C22   S    
S3    O15   D    
C6    C7    A    
C26   C27   S    
C21   S2    S    
C16   C17   A    
S2    O13   D    
C3    C8    A    
C7    C8    A    
C10   C11   A    
S3    O17   S    
C15   C16   A    
C5    H6    S    
C24   C28   T    
C7    C13   A    
C33   N7    T    
C1    C9    S    
O11   H7    S    
C20   C33   S    
C12   O3    A    
C18   C19   A    
C17   S1    S    
S1    O9    D    
C1    O1    A    
S2    O12   D    
Cu2   O4    S    
C12   O4    A    
C19   N1    A    
C1    O2    A    
Cu1   O3    S    
C20   C21   A    
C32   N6    T    
C4    C5    A    
C11   S3    S    
C4    C31   S    
O17   H9    S    
C22   O6    A    
C21   N2    A    
C22   O5    A    
Cu2   N1    S    
Cu1   O7    S    
C8    C9    A    
S3    O16   D    
C3    C4    A    
C15   H2    S    
