data_mof_unit_11815.cif
_audit_creation_date              2013-03-05T15:56:03-0500
_audit_creation_method            fapswitch 2.2
_symmetry_space_group_name_H-M    P1
_symmetry_Int_Tables_number       1
_space_group_crystal_system       triclinic
_cell_length_a                    8.512534
_cell_length_b                    16.441649
_cell_length_c                    27.221689
_cell_angle_alpha                 97.120195
_cell_angle_beta                  91.652592
_cell_angle_gamma                 87.003167
_cell_volume                      3774.43767416

loop_
_atom_site_label
_atom_site_type_symbol
_atom_site_description
_atom_site_fract_x
_atom_site_fract_y
_atom_site_fract_z
_atom_type_partial_charge
P1    P     P_3+3 0.086060 0.566890 0.610430 0.410715
O1    O     O_2   0.915540 0.542930 0.617950 -0.390986
O2    O     O_3   0.147530 0.542870 0.557780 -0.396226
O3    O     O_3   0.664390 0.396160 0.588360 -0.378854
O4    O     O_2   0.731816 0.478349 0.675457 -0.419100
O5    O     O_3   0.101278 0.672214 0.633758 -0.684553
O6    O     O_3   0.732484 0.318545 0.671957 -0.496802
H1    H     H_    0.724686 0.239273 0.606636 0.128016
C1    C     C_3   0.705447 0.173402 0.669677 -1.010270
H2    H     H_    0.649993 0.119890 0.648393 0.226377
H3    H     H_    0.833959 0.159600 0.672149 0.283069
P2    P     P_3+3 0.625290 0.314770 0.461990 0.487279
P3    P     P_3+3 0.101294 0.248996 0.563743 0.490757
O7    O     O_2   0.802410 0.302720 0.476520 -0.392378
O8    O     O_3   0.070880 0.354870 0.564040 -0.362317
O9    O     O_2   0.972041 0.209841 0.529040 -0.389805
O10   O     O_3   0.641540 0.260072 0.400698 -0.613473
O11   O     O_3   0.053414 0.224825 0.622115 -0.487040
C2    C     C_3   0.182028 0.241862 0.654503 0.396700
H4    H     H_    0.207209 0.307684 0.657152 0.051749
H5    H     H_    0.287708 0.203414 0.641753 0.042587
C3    C     C_3   0.145565 0.221404 0.705978 -0.566777
H6    H     H_    0.113032 0.156364 0.703389 0.195683
C4    C     C_3   0.111671 0.274953 0.410163 1.060618
H7    H     H_    0.049871 0.309985 0.441593 0.066440
C5    C     C_3   0.007787 0.202218 0.389878 -0.739704
H8    H     H_    0.907807 0.225649 0.369750 0.225402
H9    H     H_    0.063769 0.157060 0.361160 0.176144
Ba1   Ba    Ba6+2 0.851940 0.461560 0.523510 1.555202
C6    C     C_3   0.012681 0.731675 0.610380 0.317563
C7    C     C_3   0.019075 0.814443 0.643665 0.210402
H10   H     H_    0.968749 0.808311 0.680299 0.095242
H11   H     H_    0.144502 0.830087 0.649665 0.033789
C8    C     C_3   0.612450 0.287092 0.353116 1.041407
C9    C     C_3   0.600561 0.206960 0.314992 -0.683980
H12   H     H_    0.645596 0.218098 0.278528 0.180813
H13   H     H_    0.477360 0.190207 0.307273 0.187844
P4    P     P_3+3 0.103630 0.433040 0.389570 0.516854
O12   O     O_2   0.274150 0.457040 0.382020 -0.295730
O13   O     O_3   0.042160 0.457070 0.442220 -0.394797
O14   O     O_3   0.525310 0.603770 0.411640 -0.386765
O15   O     O_3   0.130368 0.324976 0.372178 -0.615965
P5    P     P_3+3 0.096958 0.752812 0.439316 0.494287
O16   O     O_3   0.637620 0.597020 0.524620 -0.446296
O17   O     O_3   0.118810 0.645070 0.435950 -0.348371
O18   O     O_2   0.230749 0.788966 0.473416 -0.382663
O19   O     O_3   0.144265 0.781655 0.382154 -0.515838
Ba2   Ba    Ba6+2 0.337880 0.538370 0.476480 1.552148
P6    P     P_3+3 0.637303 0.405549 0.651735 0.440561
C10   C     C_3   0.670387 0.249236 0.643691 0.572779
H14   H     H_    0.540331 0.255620 0.638688 -0.057330
H15   H     H_    0.657106 0.183273 0.707530 0.258919
O20   O     O_3   0.552080 0.402920 0.475380 -0.440026
C11   C     C_3   0.459282 0.680271 0.626601 0.263424
H16   H     H_    0.344741 0.681955 0.607743 0.107284
C12   C     C_3   0.438196 0.716704 0.680664 0.216156
H17   H     H_    0.345519 0.683799 0.697384 0.064606
H18   H     H_    0.393003 0.781405 0.681538 0.094763
P7    P     P_3+3 0.564529 0.699979 0.539685 0.421908
O21   O     O_2   0.387280 0.697260 0.523450 -0.384578
O22   O     O_3   0.559652 0.728826 0.603984 -0.566398
H19   H     H_    0.252801 0.228451 0.730101 0.206334
C13   C     C_3   0.060861 0.734668 0.344573 0.362787
H20   H     H_    0.108140 0.669925 0.340207 0.113379
H21   H     H_    0.933546 0.736118 0.352687 -0.083338
C14   C     C_3   0.078422 0.771220 0.296268 0.084877
H22   H     H_    0.990670 0.745876 0.268342 0.105841
H23   H     H_    0.048145 0.838144 0.302839 0.097808
P8    P     P_3+3 0.537046 0.598422 0.346709 0.473288
C15   C     C_3   0.558067 0.754513 0.370986 0.466093
H24   H     H_    0.681422 0.744042 0.383903 0.000749
O23   O     O_2   0.380165 0.562995 0.326245 -0.417691
O24   O     O_3   0.523693 0.697811 0.329611 -0.505430
H25   H     H_    0.477069 0.749664 0.401705 0.134806
C16   C     C_3   0.534994 0.842055 0.357280 -0.611842
H26   H     H_    0.577628 0.885785 0.388569 0.153379
H27   H     H_    0.407519 0.857173 0.351558 0.265746
C17   C     C_R   0.013440 0.440532 0.178073 0.519852
O25   O     O_2   0.027235 0.378290 0.198457 -0.605118
N1    N     N_R   0.959797 0.513700 0.204578 -0.158344
C18   C     C_R   0.942495 0.583839 0.180924 0.476686
C19   C     C_2   0.765157 0.541944 0.269778 -0.252761
C20   C     C_3   0.711970 0.531687 0.320836 0.022044
C21   C     C_1   0.985002 0.487424 0.342568 0.162335
C22   C     C_2   0.026761 0.486398 0.295344 -0.322614
C23   C     C_2   0.913550 0.515788 0.256244 0.158019
C24   C     C_R   0.033780 0.507981 0.103190 -0.075652
C25   C     C_R   0.048706 0.436594 0.127107 -0.058071
C26   C     C_R   0.097133 0.362479 0.099436 -0.091640
C27   C     C_R   0.984970 0.582490 0.130888 -0.033859
C28   C     C_2   0.850344 0.526586 0.357284 0.253795
H28   H     H_    0.144755 0.465614 0.284542 0.174647
H29   H     H_    0.109218 0.306277 0.116509 0.162797
C29   C     C_2   0.315076 0.459765 0.638113 -0.444254
C30   C     C_R   0.153565 0.427112 0.972836 0.105606
C31   C     C_R   0.070620 0.573562 0.975468 -0.224175
C32   C     C_R   0.131353 0.499368 0.948832 0.033718
C33   C     C_R   0.211200 0.354444 0.944360 -0.221749
C34   C     C_R   0.243726 0.352349 0.894460 -0.112198
C35   C     C_R   0.223641 0.422868 0.870457 0.030304
C36   C     C_R   0.168382 0.496826 0.897511 -0.134253
C37   C     C_R   0.151283 0.567962 0.873260 -0.325255
C38   C     C_R   0.202456 0.564708 0.823432 0.608055
N2    N     N_R   0.246618 0.490475 0.796158 -0.163128
C39   C     C_R   0.256358 0.419907 0.819638 0.479009
C40   C     C_2   0.411275 0.442124 0.725408 -0.204237
C41   C     C_3   0.427311 0.415166 0.670946 0.117894
C42   C     C_1   0.197954 0.509614 0.656846 0.325185
C43   C     C_2   0.168769 0.520681 0.706161 -0.087011
C44   C     C_2   0.281776 0.485436 0.743049 0.085584
O26   O     O_2   0.293188 0.353774 0.796231 -0.643341
C45   C     C_R   0.116903 0.429406 0.024058 0.038280
C46   C     C_R   0.066862 0.504905 0.051521 0.081428
C47   C     C_R   0.050200 0.577551 0.027982 0.098089
C48   C     C_R   0.129924 0.358756 0.049264 -0.215184
H30   H     H_    0.496733 0.417247 0.750661 0.173550
H31   H     H_    0.286744 0.294566 0.874691 0.163700
H32   H     H_    0.233688 0.297384 0.959418 0.126226
H33   H     H_    0.164149 0.298706 0.031315 0.126661
O27   O     O_2   0.889091 0.647700 0.203321 -0.637424
C49   C     C_R   0.982386 0.654593 0.108249 -0.158553
H34   H     H_    0.679242 0.560549 0.242571 0.170252
H35   H     H_    0.954342 0.713680 0.129274 0.168950
C50   C     C_R   0.027251 0.640040 0.947750 0.440413
C51   C     C_R   0.076850 0.639298 0.898708 0.537401
O28   O     O_2   0.209553 0.628055 0.804639 -0.572730
C52   C     C_R   0.019584 0.652470 0.058541 -0.178706
H36   H     H_    0.027064 0.711115 0.045213 0.197276
H37   H     H_    0.319706 0.440165 0.598634 0.166006
C53   C     C_R   0.394383 0.270404 0.524514 -0.438990
C54   C     C_R   0.537859 0.246031 0.502209 0.429082
C55   C     C_R   0.595671 0.164143 0.501929 -0.430316
C56   C     C_R   0.507653 0.105766 0.521924 0.016858
C57   C     C_R   0.358194 0.130866 0.541725 0.424037
C58   C     C_R   0.301215 0.213239 0.542343 0.056173
C59   C     C_R   0.626349 0.855852 0.512286 -0.301619
C60   C     C_R   0.669336 0.771917 0.507222 0.317539
C61   C     C_R   0.721321 0.912016 0.492708 0.016889
N3    N     N_2   0.558498 0.020790 0.520335 -0.042934
N4    N     N_2   0.679789 0.998515 0.496287 -0.052388
C62   C     C_R   0.805967 0.742767 0.482462 -0.542688
H38   H     H_    0.520703 0.876870 0.532225 0.180926
C63   C     C_R   0.905054 0.796372 0.464211 0.113505
C64   C     C_R   0.861300 0.881170 0.468149 0.480041
H39   H     H_    0.705308 0.145314 0.484198 0.204458
H40   H     H_    0.347832 0.332715 0.523654 0.185042
H41   H     H_    0.840716 0.678183 0.480074 0.214097
N5    N     N_3   0.950524 0.160591 0.429528 -0.138241
H42   H     H_    0.038859 0.120539 0.441044 0.150338
H43   H     H_    0.860177 0.123899 0.414752 0.149711
N6    N     N_3   0.851680 0.710683 0.605446 -0.141993
H44   H     H_    0.818696 0.693045 0.639165 0.179444
H45   H     H_    0.844881 0.660801 0.578108 0.152247
N7    N     N_3   0.073650 0.741486 0.561945 -0.190985
H46   H     H_    0.095162 0.684514 0.541282 0.179767
H47   H     H_    0.178426 0.772012 0.566791 0.143356
O29   O     O_3   0.932219 0.875647 0.620685 -0.593032
C65   C     C_3   0.952479 0.953057 0.648082 -0.170008
H48   H     H_    0.077223 0.970185 0.648042 0.139630
H49   H     H_    0.911634 0.954779 0.686676 0.132264
H50   H     H_    0.880304 0.999759 0.630181 0.181268
N8    N     N_3   0.747633 0.328933 0.337840 -0.230783
H51   H     H_    0.818586 0.349368 0.367653 0.015459
H52   H     H_    0.714191 0.377516 0.318227 0.044163
O30   O     O_3   0.472639 0.337903 0.352692 -0.590201
C66   C     C_3   0.419324 0.350853 0.303879 -0.195197
H53   H     H_    0.309667 0.318172 0.294458 0.188005
H54   H     H_    0.504165 0.332827 0.273824 0.069878
H55   H     H_    0.394290 0.416680 0.302366 0.192619
N9    N     N_3   0.692408 0.136575 0.330636 -0.194212
H56   H     H_    0.625990 0.109175 0.355154 0.135330
H57   H     H_    0.707908 0.092674 0.299685 0.139566
N10   N     N_3   0.519975 0.595327 0.624796 -0.209331
H58   H     H_    0.481753 0.562183 0.591800 0.145168
H59   H     H_    0.642111 0.593515 0.624964 0.202058
O31   O     O_3   0.585153 0.716618 0.706465 -0.585569
C67   C     C_3   0.587218 0.662818 0.743000 -0.199603
H60   H     H_    0.555754 0.600049 0.727122 0.157539
H61   H     H_    0.506663 0.687088 0.773391 0.173891
H62   H     H_    0.708130 0.658047 0.758856 0.139012
O32   O     O_3   0.235939 0.760481 0.280496 -0.564223
C68   C     C_3   0.251954 0.693990 0.242644 -0.022573
H63   H     H_    0.378645 0.682183 0.234549 0.155601
H64   H     H_    0.190779 0.709229 0.208082 0.112849
H65   H     H_    0.207467 0.636884 0.254072 0.120741
N11   N     N_3   0.618781 0.852923 0.312556 -0.191492
H66   H     H_    0.563023 0.820590 0.281997 0.214871
H67   H     H_    0.733487 0.827617 0.314875 0.110757
O33   O     O_3   0.927917 0.705246 0.966280 -0.602993
C69   C     C_3   0.772772 0.678358 0.966184 -0.232909
H68   H     H_    0.758147 0.638792 0.995803 0.154071
H69   H     H_    0.737159 0.644935 0.929784 0.106798
H70   H     H_    0.690793 0.732895 0.973683 0.178591
O34   O     O_3   0.051232 0.709871 0.875986 -0.556250
C70   C     C_3   0.907995 0.706009 0.848427 -0.049439
H71   H     H_    0.809669 0.733090 0.871926 0.131192
H72   H     H_    0.881001 0.642761 0.831631 0.058994
H73   H     H_    0.915606 0.743738 0.817577 0.159973
N12   N     N_3   0.025443 0.560259 0.725683 -0.189153
H74   H     H_    0.945490 0.515385 0.728404 0.154600
H75   H     H_    0.978633 0.605226 0.704890 0.172574
O35   O     O_3   0.823634 0.545907 0.406793 -0.649138
C71   C     C_3   0.727359 0.486202 0.420872 0.143394
H76   H     H_    0.793180 0.431764 0.429858 0.104605
H77   H     H_    0.632267 0.465062 0.394303 0.082487
H78   H     H_    0.670878 0.513283 0.454355 0.237795
O36   O     O_3   0.275123 0.076853 0.564879 -0.637815
C72   C     C_3   0.189323 0.026668 0.529057 -0.068695
H79   H     H_    0.262771 0.997623 0.497856 0.129186
H80   H     H_    0.087431 0.061988 0.514691 0.168959
H81   H     H_    0.142084 0.976396 0.547060 0.176672
O37   O     O_3   0.960414 0.934457 0.450758 -0.620415
C73   C     C_3   0.908677 0.948121 0.402702 -0.264381
H82   H     H_    0.898610 0.889746 0.377889 0.138040
H83   H     H_    0.996701 0.983990 0.386631 0.166084
H84   H     H_    0.794113 0.983848 0.403508 0.126378
N13   N     N_3   0.016580 0.274974 0.727451 -0.122623
H85   H     H_    0.051645 0.335521 0.731993 0.181190
H86   H     H_    0.998100 0.259535 0.762888 0.153824
O38   O     O_3   0.261580 0.249665 0.428996 -0.641928
C74   C     C_3   0.326589 0.175842 0.403430 -0.209464
H87   H     H_    0.315728 0.175306 0.362923 0.143928
H88   H     H_    0.274643 0.121375 0.415212 0.103329
H89   H     H_    0.451306 0.167812 0.413452 0.183984

loop_
_geom_bond_atom_site_label_1
_geom_bond_atom_site_label_2
_geom_bond_distance
_ccdc_geom_bond_type
C65   H49   1.112706 S    
C71   H76   1.081133 S    
C13   H21   1.110729 S    
C36   C37   1.411743 A    
P2    C54   1.863224 S    
P2    Ba1   3.413266 S    
C53   H40   1.081718 S    
C4    O15   1.415981 S    
O12   Ba2   2.799522 S    
P5    C63   1.860650 S    
C2    H4    1.107419 S    
C24   C25   1.409504 A    
C37   C51   1.415342 A    
O4    P6    1.541471 D    
C26   C48   1.395162 A    
C56   C57   1.417409 A    
C6    N6    1.429294 S    
C30   C33   1.414247 A    
P6    C41   1.870233 S    
N10   H58   1.044007 S    
C12   H17   1.117428 S    
C71   H77   1.110168 S    
C18   O27   1.219927 D    
C29   C42   1.328929 D    
C35   C39   1.413434 A    
O30   C66   1.429038 S    
N9    H57   1.045921 S    
P3    O11   1.749200 S    
C12   O31   1.416909 S    
O1    Ba1   2.799086 S    
C55   H39   1.076365 S    
C11   N10   1.459073 S    
P8    O24   1.750997 S    
C9    H13   1.105916 S    
N5    H43   1.042938 S    
O11   C2    1.403436 S    
C74   H89   1.093861 S    
C30   C45   1.433137 A    
C62   C63   1.394824 A    
C22   C23   1.521446 S    
C6    C7    1.541104 S    
C8    C9    1.578617 S    
C17   N1    1.386617 Am   
O17   Ba2   2.791348 S    
C34   H31   1.083775 S    
N9    H56   1.044516 S    
P7    C60   1.841396 S    
O16   P7    1.775793 S    
C63   C64   1.415990 A    
O2    Ba2   2.771760 S    
C42   C43   1.360490 D    
P1    O1    1.549526 D    
O2    Ba1   2.982621 S    
C38   O28   1.220905 D    
C68   H63   1.109302 S    
C50   O33   1.383697 S    
N1    C23   1.467228 S    
C38   N2    1.387685 Am   
C69   H70   1.109092 S    
O29   C65   1.409278 S    
C53   C58   1.400414 A    
C55   C56   1.416723 A    
C67   H61   1.111808 S    
P2    O10   1.800023 S    
C15   H25   1.112005 S    
C59   H38   1.082560 S    
N6    H44   1.046325 S    
C7    H11   1.114034 S    
O8    Ba1   2.790550 S    
C15   H24   1.109375 S    
C21   C28   1.332067 D    
C8    O30   1.418497 S    
C1    H2    1.110798 S    
N7    H47   1.043269 S    
O3    Ba1   2.762994 S    
C65   H50   1.109360 S    
C70   H73   1.109383 S    
P4    C21   1.889718 S    
C73   H83   1.108922 S    
O34   C70   1.413184 S    
C39   O26   1.220953 D    
C13   C14   1.526156 S    
N12   H74   1.040206 S    
O37   C73   1.408918 S    
P4    O13   1.537951 S    
C66   H54   1.109228 S    
P3    C58   1.857116 S    
C31   C47   1.438043 A    
C66   H53   1.109199 S    
C37   C38   1.430411 A    
C1    H15   1.110600 S    
O38   C74   1.416475 S    
C22   H28   1.080897 S    
Ba2   O21   2.809299 S    
N8    H52   1.037941 S    
N10   H59   1.038449 S    
Ba2   O20   2.801300 S    
C71   H78   1.078184 S    
C11   C12   1.530467 S    
C29   C41   1.513036 S    
P7    O22   1.756875 S    
C29   H37   1.084268 S    
C49   H35   1.083580 S    
C14   H23   1.110579 S    
C31   C50   1.430539 A    
Ba1   Ba2   4.647329 S    
O36   C72   1.409843 S    
C2    C3    1.525069 S    
C4    H7    1.101194 S    
O6    P6    1.747590 S    
C59   C61   1.419598 A    
O35   C71   1.406289 S    
C17   O25   1.222072 D    
C72   H79   1.113209 S    
N13   H85   1.045853 S    
O32   C68   1.410224 S    
C19   C20   1.505850 S    
P1    O5    1.779021 S    
C40   H30   1.085737 S    
P1    O2    1.537933 S    
C68   H65   1.112712 S    
P8    O23   1.546300 D    
C16   H26   1.109850 S    
C69   H68   1.110442 S    
C74   H87   1.102861 S    
P8    C20   1.901398 S    
C3    H19   1.111543 S    
P5    O17   1.762765 S    
C34   C35   1.400404 A    
C73   H82   1.108739 S    
C67   H62   1.107324 S    
C31   C32   1.420395 A    
C15   O24   1.404470 S    
P1    Ba1   3.412118 S    
C10   H14   1.112623 S    
C5    H8    1.078950 S    
C21   C22   1.341452 D    
C5    N5    1.455816 S    
C16   H27   1.111401 S    
N7    H46   1.041501 S    
C7    O29   1.414988 S    
C61   N4    1.439503 S    
C67   H60   1.111438 S    
C18   C27   1.416513 A    
C4    O38   1.422592 S    
O31   C67   1.409732 S    
O5    C6    1.406775 S    
C3    N13   1.459895 S    
P2    O7    1.556526 D    
C56   N3    1.436698 S    
C6    N7    1.461076 S    
C48   H33   1.075626 S    
C1    H3    1.107413 S    
Ba1   O16   2.802029 S    
C65   H48   1.112797 S    
C27   C49   1.401161 A    
C43   N12   1.436340 S    
C16   N11   1.462951 S    
N13   H86   1.045659 S    
O10   C8    1.431423 S    
O7    Ba1   2.808963 S    
N11   H67   1.044511 S    
C52   H36   1.076981 S    
H1    C10   1.111725 S    
C64   O37   1.380837 S    
N2    C44   1.476222 S    
O14   P8    1.764250 S    
C46   C47   1.422706 A    
C40   C44   1.347817 D    
C73   H84   1.111184 S    
C17   C25   1.420866 A    
O13   Ba2   2.983435 S    
C60   C62   1.394128 A    
C11   H16   1.089415 S    
C69   H69   1.113923 S    
C2    H5    1.110637 S    
P4    Ba2   3.412608 S    
C14   O32   1.415307 S    
C7    H10   1.114589 S    
C1    C10   1.520413 S    
P2    O20   1.552254 S    
O6    C10   1.411467 S    
C4    C5    1.560698 S    
N1    C18   1.388190 Am   
C8    N8    1.466865 S    
N2    C39   1.390078 Am   
N3    N4    1.252491 D    
C30   C32   1.426856 A    
C49   C52   1.394380 A    
C57   C58   1.412774 A    
C11   O22   1.403535 S    
N8    H51   1.030371 S    
C20   C28   1.523758 S    
C5    H9    1.109094 S    
O3    P6    1.733896 S    
P3    O8    1.745509 S    
C53   C54   1.397218 A    
P3    O9    1.542988 D    
C74   H88   1.105055 S    
C19   C23   1.359081 D    
C43   C44   1.516503 S    
O19   C13   1.402500 S    
C47   C52   1.414983 A    
C57   O36   1.384247 S    
P4    O12   1.549895 D    
Ba1   O20   2.985471 S    
C51   O34   1.385716 S    
C72   H81   1.109770 S    
Ba1   O13   2.770889 S    
C13   H20   1.111679 S    
C35   C36   1.407266 A    
O14   Ba2   2.762174 S    
C12   H18   1.109814 S    
C14   H22   1.109407 S    
C45   C46   1.419255 A    
N5    H42   1.040739 S    
N6    H45   1.039684 S    
C26   H29   1.083607 S    
O33   C69   1.414286 S    
P5    O18   1.544377 D    
C68   H64   1.111605 S    
C24   C46   1.436599 A    
C28   O35   1.368546 S    
C62   H41   1.081872 S    
P1    C42   1.876784 S    
C70   H71   1.108752 S    
P4    O15   1.785545 S    
O16   Ba2   2.984743 S    
P7    O21   1.561280 D    
C25   C26   1.400019 A    
C66   H55   1.097690 S    
C72   H80   1.107492 S    
C33   C34   1.389995 A    
C40   C41   1.501809 S    
C24   C27   1.406326 A    
C15   C16   1.532591 S    
N12   H75   1.041962 S    
C9    N9    1.462951 S    
C3    H6    1.111903 S    
C59   C60   1.400123 A    
C61   C64   1.422212 A    
C9    H12   1.113613 S    
N11   H66   1.045885 S    
P5    O19   1.745688 S    
C19   H34   1.085574 S    
C45   C48   1.418501 A    
C32   C36   1.436109 A    
C54   C55   1.408310 A    
C33   H32   1.075575 S    
C50   C51   1.410174 A    
C70   H72   1.115470 S    
