data_mof_unit_68283.cif
_audit_creation_date              2012-12-11T14:37:38-0500
_audit_creation_method            fapswitch 2.2
_symmetry_space_group_name_H-M    P1
_symmetry_Int_Tables_number       1
_space_group_crystal_system       triclinic
_cell_length_a                    14.465149
_cell_length_b                    15.9095
_cell_length_c                    6.985579
_cell_angle_alpha                 90.896401
_cell_angle_beta                  80.720426
_cell_angle_gamma                 90.153684
_cell_volume                      1586.38165268

loop_
_atom_site_label
_atom_site_type_symbol
_atom_type_description
_atom_site_fract_x
_atom_site_fract_y
_atom_site_fract_z
_atom_type_partial_charge
O1    O     O_R   0.337080 0.165770 0.524980 -0.531832
O2    O     O_R   0.662920 0.834230 0.475020 -0.531794
O3    O     O_R   0.662920 0.665770 0.475020 -0.530302
O4    O     O_R   0.337080 0.334230 0.524980 -0.532609
O5    O     O_R   0.348340 0.341430 0.191390 -0.548371
O6    O     O_R   0.651660 0.658570 0.808610 -0.549172
O7    O     O_R   0.651660 0.841430 0.808610 -0.551234
O8    O     O_R   0.348340 0.158570 0.191390 -0.547405
O9    O     O_R   0.165780 0.339950 0.082750 -0.546033
O10   O     O_R   0.834220 0.660050 0.917250 -0.542358
O11   O     O_R   0.834220 0.839950 0.917250 -0.542581
O12   O     O_R   0.165780 0.160050 0.082750 -0.543471
C1    C     C_R   0.369773 0.364484 0.356843 0.633896
C2    C     C_R   0.630349 0.635544 0.643184 0.654133
C3    C     C_R   0.630220 0.864513 0.644979 0.648635
C4    C     C_R   0.369920 0.135479 0.355026 0.643374
H1    H     H_    0.395707 0.585684 0.718197 0.104510
H2    H     H_    0.608193 0.418753 0.297909 0.101168
H3    H     H_    0.628856 0.066611 0.252787 0.105833
H4    H     H_    0.405086 0.914325 0.666339 0.102363
O13   O     O_3   0.191540 0.250000 0.407620 -0.365611
O14   O     O_3   0.808460 0.750000 0.592380 -0.366559
V1    V     V_3+5 0.262540 0.250000 0.108780 1.403482
V2    V     V_3+5 0.737460 0.750000 0.891220 1.405029
O15   O     O_R   0.154530 0.164290 0.756910 -0.524766
O16   O     O_R   0.845470 0.835710 0.243090 -0.535457
O17   O     O_R   0.845470 0.664290 0.243090 -0.531594
O18   O     O_R   0.154530 0.335710 0.756910 -0.533757
C5    C     C_R   0.132119 0.133827 0.930606 0.718513
C6    C     C_R   0.867011 0.866856 0.069301 0.715863
C7    C     C_R   0.868225 0.634192 0.067162 0.701886
C8    C     C_R   0.132271 0.366237 0.932776 0.716278
V3    V     V_3+5 0.240320 0.250000 0.616280 1.425977
V4    V     V_3+5 0.759680 0.750000 0.383720 1.425824
O19   O     O_3   0.311330 0.250000 0.867310 -0.372460
O20   O     O_3   0.688670 0.750000 0.132690 -0.372269
C9    C     C_3   0.021177 0.473264 0.172417 -0.235291
C10   C     C_3   0.981056 0.529079 0.827429 -0.220160
C11   C     C_3   0.944462 0.996305 0.858673 -0.284217
C12   C     C_3   0.056477 0.002477 0.135547 -0.289886
C13   C     C_3   0.037794 0.563178 0.091627 0.279821
C14   C     C_3   0.964557 0.439099 0.907426 0.274394
C15   C     C_3   0.954987 0.071835 0.995447 0.282845
C16   C     C_3   0.045231 0.927176 0.996257 0.265682
H5    H     H_    0.036371 0.450898 0.313828 0.152525
H6    H     H_    0.963718 0.551267 0.687554 0.151780
H7    H     H_    0.898301 0.990262 0.747382 0.170910
H8    H     H_    0.103475 0.004596 0.245962 0.159072
C17   C     C_3   0.939370 0.564555 0.033114 -0.216349
C18   C     C_3   0.062666 0.437150 0.966962 -0.210938
C19   C     C_3   0.062416 0.062906 0.959524 -0.165936
C20   C     C_3   0.937841 0.936755 0.036164 -0.190825
C21   C     C_3   0.923404 0.474387 0.108739 0.283943
C22   C     C_3   0.079076 0.527179 0.890689 0.286660
C23   C     C_3   0.052393 0.987086 0.824917 0.322478
C24   C     C_3   0.948318 0.013391 0.169432 0.289633
C25   C     C_2   0.584805 0.414243 0.452655 -0.230001
C26   C     C_2   0.417640 0.589646 0.562885 -0.228469
C27   C     C_2   0.424873 0.910305 0.510417 -0.244251
C28   C     C_2   0.603842 0.075586 0.406395 -0.243767
C29   C     C_2   0.521602 0.466139 0.555930 0.218766
C30   C     C_2   0.478536 0.536267 0.457927 0.207917
C31   C     C_2   0.486806 0.962026 0.406953 0.224029
C32   C     C_2   0.534411 0.030125 0.506986 0.218185
N1    N     N_2   0.505320 0.548399 0.253257 -0.524390
H9    H     H_    0.576566 0.547880 0.205513 0.254055
C33   C     C_3   0.455667 0.610150 0.158225 -0.476003
H10   H     H_    0.469561 0.674392 0.211362 0.193693
H11   H     H_    0.379328 0.597021 0.185394 0.182403
H12   H     H_    0.479950 0.606724 0.999475 0.192841
N2    N     N_2   0.493695 0.453554 0.760106 -0.523341
H13   H     H_    0.422279 0.452889 0.805886 0.254490
C34   C     C_3   0.544524 0.393452 0.857170 -0.477538
H14   H     H_    0.532371 0.328671 0.805176 0.188126
H15   H     H_    0.519832 0.397283 0.015725 0.193284
H16   H     H_    0.620531 0.408093 0.830619 0.185787
N3    N     N_2   0.504763 0.047241 0.710022 -0.529853
H17   H     H_    0.433198 0.048860 0.753417 0.252659
C35   C     C_3   0.555493 0.108757 0.807883 -0.482880
H18   H     H_    0.546799 0.172352 0.749949 0.188012
H19   H     H_    0.630983 0.092103 0.788568 0.187954
H20   H     H_    0.527704 0.109432 0.965599 0.196800
N4    N     N_2   0.509725 0.950305 0.200884 -0.520881
H21   H     H_    0.580117 0.941650 0.150774 0.259372
C36   C     C_3   0.449299 0.897724 0.103247 -0.471663
H22   H     H_    0.453155 0.831373 0.148468 0.186623
H23   H     H_    0.472517 0.900524 0.944673 0.185259
H24   H     H_    0.375846 0.920614 0.135987 0.188727
N5    N     N_2   0.074554 0.631217 0.197672 -0.516828
H25   H     H_    0.038836 0.687172 0.201284 0.259245
C37   C     C_3   0.175230 0.639524 0.175188 -0.595897
H26   H     H_    0.193863 0.678516 0.296503 0.208175
H27   H     H_    0.202941 0.671113 0.037784 0.215138
H28   H     H_    0.208719 0.576878 0.176229 0.192200
N6    N     N_2   0.927312 0.371160 0.803126 -0.505892
H29   H     H_    0.937182 0.312810 0.857456 0.260356
C38   C     C_3   0.834507 0.384572 0.758215 -0.559345
H30   H     H_    0.783512 0.397136 0.891443 0.183541
H31   H     H_    0.811273 0.327033 0.687993 0.193468
H32   H     H_    0.834883 0.438454 0.659030 0.234545
N7    N     N_2   0.907361 0.150994 0.985257 -0.521418
H33   H     H_    0.934798 0.199677 0.057018 0.232056
C39   C     C_3   0.806140 0.147668 0.017544 -0.606203
H34   H     H_    0.778998 0.146237 0.175194 0.206808
H35   H     H_    0.780571 0.091623 0.944996 0.195946
H36   H     H_    0.778307 0.204464 0.956375 0.200531
N8    N     N_2   0.096093 0.848758 0.990890 -0.534855
H37   H     H_    0.100269 0.825958 0.126438 0.252368
C40   C     C_3   0.071787 0.785528 0.855809 -0.513646
H38   H     H_    0.128903 0.738786 0.823764 0.220446
H39   H     H_    0.061972 0.813283 0.716247 0.199649
H40   H     H_    0.006299 0.753035 0.917973 0.176190
N9    N     N_2   0.838040 0.447590 0.229894 -0.510714
H41   H     H_    0.777974 0.469768 0.186433 0.238784
C41   C     C_3   0.833903 0.359545 0.278214 -0.592023
H42   H     H_    0.770139 0.347479 0.385123 0.205595
H43   H     H_    0.896610 0.340990 0.340728 0.220842
H44   H     H_    0.829202 0.320276 0.148484 0.205953
N10   N     N_2   0.165676 0.554763 0.775502 -0.523781
H45   H     H_    0.223764 0.541060 0.837339 0.241935
C42   C     C_3   0.177481 0.530930 0.573118 -0.559169
H46   H     H_    0.241977 0.560280 0.495761 0.199601
H47   H     H_    0.117129 0.553022 0.508603 0.239206
H48   H     H_    0.183987 0.461917 0.553805 0.205934
N11   N     N_2   0.105627 0.975320 0.632566 -0.522231
H49   H     H_    0.074384 0.934920 0.545620 0.250538
C43   C     C_3   0.204958 0.961531 0.621553 -0.516239
H50   H     H_    0.218312 0.897572 0.671886 0.217233
H51   H     H_    0.236247 0.008795 0.710487 0.187916
H52   H     H_    0.239540 0.967307 0.468502 0.182050
N12   N     N_2   0.890864 0.029246 0.356044 -0.523136
H53   H     H_    0.820203 0.023258 0.352440 0.248518
C44   C     C_3   0.914452 0.104535 0.457003 -0.523188
H54   H     H_    0.865484 0.112110 0.595484 0.207527
H55   H     H_    0.907480 0.161320 0.371207 0.188489
H56   H     H_    0.987128 0.100413 0.488412 0.234563

loop_
_geom_bond_atom_site_label_1
_geom_bond_atom_site_label_2
_ccdc_geom_bond_type
C26   C30   D    
C13   N5    S    
N7    H33   S    
O12   C5    A    
C34   H15   S    
C32   N3    S    
N6    H29   S    
C43   H51   S    
C38   H30   S    
O1    V3    S    
C10   C17   S    
N3    H17   S    
O12   V1    S    
V2    O20   S    
C10   C14   S    
C40   H39   S    
C14   C21   S    
C36   H24   S    
C37   H27   S    
O7    V2    S    
O11   V2    S    
O8    V1    S    
C34   H14   S    
O4    C1    A    
C42   H48   S    
C6    C20   S    
O9    C8    A    
O10   C7    A    
O16   V4    S    
C11   C23   S    
C23   N11   S    
O11   C6    A    
N1    C33   S    
C10   C22   S    
C44   H56   S    
N8    H37   S    
N5    C37   S    
O5    C1    A    
H1    C26   S    
C9    C21   S    
O2    V4    S    
O7    C3    A    
C11   C20   S    
N7    C39   S    
C12   C24   S    
C22   N10   S    
N8    C40   S    
C29   N2    S    
C7    C17   S    
C13   C17   S    
C38   H31   S    
C21   N9    S    
N3    C35   S    
O17   V4    S    
O15   C5    A    
O14   V4    S    
C42   H47   S    
C36   H23   S    
O17   C7    A    
C14   N6    S    
O18   C8    A    
C40   H40   S    
C37   H26   S    
N2    C34   S    
O9    V1    S    
C11   C15   S    
O3    V4    S    
O10   V2    S    
C36   H22   S    
C33   H10   S    
C31   N4    S    
C33   H11   S    
C15   N7    S    
O6    C2    A    
H2    C25   S    
N4    H21   S    
O5    V1    S    
C41   H44   S    
O6    V2    S    
N10   C42   S    
C39   H35   S    
O1    C4    A    
C18   C22   S    
H4    C27   S    
N11   C43   S    
O2    C3    A    
C8    C18   S    
C42   H46   S    
O3    C2    A    
C14   C18   S    
N4    C36   S    
O18   V3    S    
O16   C6    A    
V1    O19   S    
O13   V1    S    
N11   H49   S    
C34   H16   S    
O14   V2    S    
C9    H5    S    
N12   H53   S    
C38   H32   S    
C11   H7    S    
N9    H41   S    
C5    C19   S    
C16   N8    S    
C12   H8    S    
C41   H43   S    
O4    V3    S    
C30   N1    S    
C27   C31   D    
C31   C32   S    
N12   C44   S    
C16   C20   S    
C35   H20   S    
N10   H45   S    
N6    C38   S    
C25   C29   D    
H3    C28   S    
C12   C19   S    
C35   H19   S    
C28   C32   D    
C33   H12   S    
C43   H52   S    
N2    H13   S    
C40   H38   S    
C37   H28   S    
C9    C18   S    
C16   C23   S    
C15   C19   S    
C41   H42   S    
C44   H54   S    
C17   C21   S    
V3    O19   S    
V4    O20   S    
C39   H36   S    
C19   C23   S    
C9    C13   S    
C29   C30   S    
C13   C22   S    
C10   H6    S    
C24   N12   S    
C35   H18   S    
C20   C24   S    
C15   C24   S    
C12   C16   S    
O13   V3    S    
O8    C4    A    
N1    H9    S    
C39   H34   S    
C44   H55   S    
N5    H25   S    
C43   H50   S    
O15   V3    S    
N9    C41   S    
