data_mof_unit_61142.cif
_audit_creation_date              2012-12-10T20:04:56-0500
_audit_creation_method            fapswitch 2.2
_symmetry_space_group_name_H-M    P1
_symmetry_Int_Tables_number       1
_space_group_crystal_system       triclinic
_cell_length_a                    38.477633
_cell_length_b                    32.103676
_cell_length_c                    21.337641
_cell_angle_alpha                 89.984072
_cell_angle_beta                  123.502743
_cell_angle_gamma                 90.032989
_cell_volume                      21978.7136466

loop_
_atom_site_label
_atom_site_type_symbol
_atom_type_description
_atom_site_fract_x
_atom_site_fract_y
_atom_site_fract_z
_atom_type_partial_charge
C1    C     C_R   0.919312 0.999992 0.419358 0.917600
C2    C     C_R   0.080685 0.000015 0.580719 0.891640
C3    C     C_R   0.419313 0.499994 0.419334 0.915765
C4    C     C_R   0.580686 0.500015 0.580702 0.909740
C5    C     C_3   0.000650 0.999973 0.689710 -0.133989
C6    C     C_3   0.000257 0.000011 0.311050 -0.129332
C7    C     C_3   0.500577 0.500127 0.689647 -0.129953
C8    C     C_3   0.499614 0.500293 0.310485 -0.128571
C9    C     C_R   0.728018 0.963071 0.212382 -0.278016
C10   C     C_R   0.271910 0.975935 0.817293 -0.273018
C11   C     C_R   0.228096 0.474163 0.185258 -0.273039
C12   C     C_R   0.771918 0.481199 0.822590 -0.271499
C13   C     C_R   0.706532 0.999440 0.206888 0.087577
C14   C     C_R   0.293447 0.000362 0.795173 0.086610
C15   C     C_R   0.206541 0.499385 0.206239 0.089281
C16   C     C_R   0.793447 0.500514 0.794993 0.088818
C17   C     C_R   0.728234 0.035581 0.244900 -0.159784
C18   C     C_R   0.271783 0.024822 0.730326 -0.160354
C19   C     C_R   0.228181 0.524416 0.270359 -0.164318
C20   C     C_R   0.771777 0.519856 0.724632 -0.164873
C21   C     C_R   0.771629 0.035487 0.288258 -0.257814
C22   C     C_R   0.228389 0.024675 0.687041 -0.257484
C23   C     C_R   0.271576 0.524427 0.313560 -0.256042
C24   C     C_R   0.728383 0.519675 0.681375 -0.256224
C25   C     C_R   0.793285 0.999193 0.293907 0.035475
C26   C     C_R   0.206688 0.000226 0.708816 0.037362
C27   C     C_R   0.293297 0.499253 0.292823 0.038165
C28   C     C_R   0.706689 0.500340 0.708657 0.038260
C29   C     C_R   0.771651 0.962520 0.257072 0.546101
C30   C     C_R   0.228293 0.976220 0.774782 0.552018
C31   C     C_R   0.271724 0.473426 0.229230 0.543125
C32   C     C_R   0.728289 0.481581 0.780006 0.550404
C33   C     C_1   0.662108 0.999683 0.162034 -0.018173
C34   C     C_1   0.337878 0.000169 0.838891 -0.017420
C35   C     C_1   0.162114 0.499658 0.161755 -0.018886
C36   C     C_1   0.837879 0.500283 0.838793 -0.018099
C37   C     C_1   0.837761 0.999690 0.338158 0.015915
C38   C     C_1   0.162222 0.000110 0.663391 0.011811
C39   C     C_1   0.337769 0.499729 0.337548 0.012129
C40   C     C_1   0.662222 0.500143 0.663305 0.014118
C41   C     C_1   0.875066 0.999917 0.375289 -0.146892
C42   C     C_1   0.124923 0.000042 0.625472 -0.161501
C43   C     C_1   0.375072 0.499930 0.374996 -0.153431
C44   C     C_1   0.624924 0.500045 0.625422 -0.155098
C45   C     C_R   0.000086 0.999997 0.621862 0.944447
C46   C     C_R   0.000279 0.999993 0.378454 0.918605
C47   C     C_R   0.500066 0.500019 0.621846 0.943846
C48   C     C_R   0.499966 0.500048 0.378167 0.939194
C49   C     C_1   0.624797 0.999849 0.124556 -0.160858
C50   C     C_1   0.375193 0.000055 0.875681 -0.161119
C51   C     C_1   0.124801 0.499842 0.124488 -0.161977
C52   C     C_1   0.875194 0.500122 0.875651 -0.162024
C53   C     C_R   0.999991 0.919355 0.000037 0.889732
C54   C     C_R   0.499991 0.419355 0.000000 0.889973
C55   C     C_R   0.000118 0.000050 0.878214 0.919355
C56   C     C_R   0.999983 0.000083 0.121840 0.942395
C57   C     C_R   0.500109 0.500219 0.878210 0.914684
C58   C     C_R   0.499933 0.500417 0.121814 0.920611
C59   C     C_R   0.000007 0.080726 0.000056 0.917722
C60   C     C_R   0.500010 0.580731 0.000014 0.895344
C61   C     C_R   0.500003 0.919545 0.000011 0.885901
C62   C     C_R   0.999997 0.419540 0.000010 0.881968
C63   C     C_R   0.580540 0.999991 0.080409 0.902132
C64   C     C_R   0.419457 0.999984 0.919610 0.902902
C65   C     C_R   0.080541 0.499995 0.080404 0.900320
C66   C     C_R   0.919457 0.499997 0.919607 0.900923
C67   C     C_R   0.500001 0.080585 0.999994 0.900911
C68   C     C_R   0.000001 0.580586 0.999995 0.899493
C69   C     C_R   0.462822 0.228405 0.974973 0.251379
C70   C     C_R   0.537148 0.228460 0.024988 0.251588
C71   C     C_R   0.966208 0.728400 0.992649 0.252158
C72   C     C_R   0.033834 0.728475 0.007752 0.250900
C73   C     C_R   0.499988 0.206625 0.999975 -0.006400
C74   C     C_R   0.000017 0.706628 0.000154 -0.007996
C75   C     C_R   0.033649 0.771900 0.007757 -0.199990
C76   C     C_R   0.966390 0.771826 0.992754 -0.203766
C77   C     C_R   0.536941 0.271887 0.024858 -0.200066
C78   C     C_R   0.463017 0.271832 0.975118 -0.200958
C79   C     C_3   0.961711 0.001149 0.691747 0.634038
C80   C     C_3   0.015728 0.964279 0.285473 0.627606
C81   C     C_3   0.462196 0.493510 0.692274 0.637505
C82   C     C_3   0.534320 0.482670 0.304191 0.633960
C83   C     C_R   0.000015 0.793426 0.000266 0.048043
C84   C     C_R   0.499976 0.293422 0.999991 0.048057
C85   C     C_1   0.499994 0.162106 0.999972 0.092311
C86   C     C_1   0.000009 0.662110 0.000059 0.091806
C87   C     C_1   0.999989 0.837833 0.000205 -0.012936
C88   C     C_1   0.499970 0.337832 0.999990 -0.011016
C89   C     C_1   0.999979 0.875124 0.000124 -0.174609
C90   C     C_1   0.499973 0.375124 0.999991 -0.172352
C91   C     C_1   0.499998 0.124810 0.999976 -0.106876
C92   C     C_1   0.000004 0.624813 0.000003 -0.105998
C93   C     C_R   0.462582 0.771940 0.973233 0.425407
C94   C     C_R   0.537522 0.771990 0.027092 0.427938
C95   C     C_R   0.000643 0.271931 0.943551 0.427426
C96   C     C_R   0.999238 0.271927 0.056707 0.426776
C97   C     C_R   0.500048 0.793571 0.000147 -0.205719
C98   C     C_R   0.999945 0.293540 0.000121 -0.207890
C99   C     C_R   0.997940 0.228315 0.055290 0.173237
C100  C     C_R   0.001960 0.228326 0.945022 0.168135
C101  C     C_R   0.537218 0.728383 0.024878 0.169533
C102  C     C_R   0.462897 0.728334 0.975480 0.170000
C103  C     C_R   0.999965 0.206676 0.000177 -0.164764
C104  C     C_R   0.500058 0.706706 0.000174 -0.170629
C105  C     C_1   0.500035 0.838090 0.000096 0.117148
C106  C     C_1   0.999963 0.338069 0.000095 0.115263
C107  C     C_3   0.979624 0.965908 0.750342 -0.308688
C108  C     C_3   0.976240 0.967824 0.205669 -0.309831
C109  C     C_3   0.486814 0.462633 0.757595 -0.305347
C110  C     C_3   0.501630 0.460455 0.230831 -0.302813
C111  C     C_1   0.999995 0.162177 0.000200 0.163905
C112  C     C_1   0.500051 0.662198 0.000129 0.160049
C113  C     C_1   0.000014 0.124905 0.000159 -0.114601
C114  C     C_1   0.500034 0.624920 0.000075 -0.118891
C115  C     C_1   0.500020 0.875356 0.000052 -0.165976
C116  C     C_1   0.999981 0.375341 0.000043 -0.166128
C117  C     C_3   0.000409 0.000024 0.811096 -0.134413
C118  C     C_3   0.000125 0.999764 0.189304 -0.125041
C119  C     C_3   0.500360 0.500251 0.811060 -0.129822
C120  C     C_3   0.499869 0.500405 0.189121 -0.125305
C121  C     C_3   0.981717 0.035284 0.752348 -0.294006
C122  C     C_3   0.039929 0.995561 0.268926 -0.316288
C123  C     C_3   0.474969 0.531014 0.745591 -0.307231
C124  C     C_3   0.533248 0.522277 0.262560 -0.312986
C125  C     C_3   0.021425 0.034096 0.750394 -0.303868
C126  C     C_3   0.024171 0.031956 0.294631 -0.311313
C127  C     C_3   0.514081 0.537765 0.743052 -0.313556
C128  C     C_3   0.497873 0.540263 0.268732 -0.314929
C129  C     C_3   0.039402 0.998854 0.808871 0.631302
C130  C     C_3   0.984681 0.035484 0.214745 0.626452
C131  C     C_3   0.538789 0.506868 0.808255 0.632970
C132  C     C_3   0.465145 0.518065 0.195508 0.625128
C133  C     C_3   0.019325 0.964705 0.748390 -0.315590
C134  C     C_3   0.960472 0.004261 0.231499 -0.303198
C135  C     C_3   0.525974 0.469378 0.755040 -0.315180
C136  C     C_3   0.466229 0.478448 0.237130 -0.312676
H1    H     H_    0.962379 0.938641 0.751956 0.164105
H2    H     H_    0.957240 0.941738 0.168033 0.166655
H3    H     H_    0.475395 0.432487 0.765091 0.160866
H4    H     H_    0.503606 0.428306 0.213892 0.158232
H5    H     H_    0.788299 0.063684 0.317188 0.174367
H6    H     H_    0.211754 0.043457 0.636500 0.170440
H7    H     H_    0.288197 0.544088 0.362970 0.172541
H8    H     H_    0.711743 0.534448 0.626608 0.171338
H9    H     H_    0.940367 0.788680 0.986960 0.181859
H10   H     H_    0.059666 0.788811 0.013571 0.183420
H11   H     H_    0.434416 0.288697 0.955886 0.182581
H12   H     H_    0.565537 0.288793 0.044096 0.182912
H13   H     H_    0.966164 0.063543 0.755592 0.174640
H14   H     H_    0.072028 0.991578 0.282409 0.177305
H15   H     H_    0.454059 0.555605 0.743420 0.168328
H16   H     H_    0.560529 0.539634 0.271190 0.172932
H17   H     H_    0.038671 0.061393 0.748875 0.179822
H18   H     H_    0.043199 0.058074 0.332132 0.172819
H19   H     H_    0.525524 0.567975 0.735840 0.177960
H20   H     H_    0.495891 0.572533 0.285198 0.179958
H21   H     H_    0.034894 0.936416 0.745295 0.176925
H22   H     H_    0.928490 0.008258 0.218576 0.161434
H23   H     H_    0.546862 0.444775 0.757168 0.173739
H24   H     H_    0.438997 0.461121 0.228775 0.168334
H25   H     H_    0.711045 0.935268 0.182078 0.163497
H26   H     H_    0.288819 0.956685 0.867211 0.166926
H27   H     H_    0.211182 0.455165 0.135007 0.164572
H28   H     H_    0.788850 0.465820 0.876817 0.165638
H29   H     H_    0.711626 0.063798 0.240695 0.167345
H30   H     H_    0.288421 0.043761 0.713085 0.162600
H31   H     H_    0.211524 0.544001 0.286677 0.161763
H32   H     H_    0.788408 0.534819 0.703134 0.160759
O1    O     O_R   0.939010 0.034440 0.439030 -0.617641
O2    O     O_R   0.060990 0.034440 0.560970 -0.624991
O3    O     O_R   0.439010 0.534440 0.439030 -0.618782
O4    O     O_R   0.560990 0.534440 0.560970 -0.624645
O5    O     O_R   0.561000 0.000050 0.113470 -0.615865
O6    O     O_R   0.439000 0.000050 0.886530 -0.614722
O7    O     O_R   0.061000 0.500050 0.113470 -0.616496
O8    O     O_R   0.939000 0.500050 0.886530 -0.615607
O9    O     O_R   0.561000 0.999980 0.008430 -0.606402
O10   O     O_R   0.439000 0.999980 0.991570 -0.608933
O11   O     O_R   0.061000 0.499980 0.008430 -0.606123
O12   O     O_R   0.939000 0.499980 0.991570 -0.607884
O13   O     O_R   0.500000 0.061040 0.052440 -0.608439
O14   O     O_R   0.500000 0.061040 0.947560 -0.607948
O15   O     O_R   1.000000 0.561040 0.052440 -0.607046
O16   O     O_R   1.000000 0.561040 0.947560 -0.606344
O17   O     O_R   0.939030 0.965580 0.439000 -0.608367
O18   O     O_R   0.060970 0.965580 0.561000 -0.603462
O19   O     O_R   0.439030 0.465580 0.439000 -0.613247
O20   O     O_R   0.560970 0.465580 0.561000 -0.602829
O21   O     O_R   0.000010 0.034440 0.593030 -0.618423
O22   O     O_R   0.999990 0.034440 0.406970 -0.643682
O23   O     O_R   0.500010 0.534440 0.593030 -0.628661
O24   O     O_R   0.499990 0.534440 0.406970 -0.636888
O25   O     O_R   0.000020 0.965580 0.593000 -0.624254
O26   O     O_R   0.999980 0.965580 0.407000 -0.575336
O27   O     O_R   0.500020 0.465580 0.593000 -0.615630
O28   O     O_R   0.499980 0.465580 0.407000 -0.602340
O29   O     O_R   0.034440 0.939060 0.034360 -0.616444
O30   O     O_R   0.965560 0.939060 0.965640 -0.621738
O31   O     O_R   0.534440 0.439060 0.034360 -0.618079
O32   O     O_R   0.465560 0.439060 0.965640 -0.619631
O33   O     O_R   0.034440 0.000050 0.941370 -0.570273
O34   O     O_R   0.965560 0.000050 0.058630 -0.603740
O35   O     O_R   0.534440 0.500050 0.941370 -0.570631
O36   O     O_R   0.465560 0.500050 0.058630 -0.575879
O37   O     O_R   0.965570 0.000070 0.872530 -0.644420
O38   O     O_R   0.034430 0.000070 0.127470 -0.636683
O39   O     O_R   0.465570 0.500070 0.872530 -0.644367
O40   O     O_R   0.534430 0.500070 0.127470 -0.644813
O41   O     O_R   0.034450 0.061050 0.034440 -0.610610
O42   O     O_R   0.965550 0.061050 0.965560 -0.608239
O43   O     O_R   0.534450 0.561050 0.034440 -0.604159
O44   O     O_R   0.465550 0.561050 0.965560 -0.600887
O45   O     O_R   0.500030 0.939050 0.052570 -0.612986
O46   O     O_R   0.499970 0.939050 0.947430 -0.611857
O47   O     O_R   0.000030 0.439050 0.052570 -0.610413
O48   O     O_R   0.999970 0.439050 0.947430 -0.610133
Zn1   Zn    Zn3+2 1.000000 0.045990 0.500000 0.980796
Zn2   Zn    Zn3+2 0.500000 0.545990 0.500000 0.977085
Zn3   Zn    Zn3+2 0.000000 0.954030 0.500000 1.027523
Zn4   Zn    Zn3+2 0.500000 0.454030 0.500000 1.012720
Zn5   Zn    Zn3+2 0.045990 0.000050 0.045940 1.016923
Zn6   Zn    Zn3+2 0.954010 0.000050 0.954060 0.990327
Zn7   Zn    Zn3+2 0.545990 0.500050 0.045940 1.015093
Zn8   Zn    Zn3+2 0.454010 0.500050 0.954060 1.013286
Zn9   Zn    Zn3+2 0.500020 0.000060 0.070120 1.000924
Zn10  Zn    Zn3+2 0.499980 0.000060 0.929880 1.004871
Zn11  Zn    Zn3+2 0.000020 0.500060 0.070120 1.004290
Zn12  Zn    Zn3+2 0.999980 0.500060 0.929880 1.007092
Br1   Br    Br    0.411284 0.200082 0.940296 -0.496791
Br2   Br    Br    0.588695 0.200213 0.059663 -0.496130
Br3   Br    Br    0.919301 0.700071 0.982115 -0.491383
Br4   Br    Br    0.080743 0.700251 0.018219 -0.486182
Br5   Br    Br    0.006413 0.198914 0.871035 -0.468032
Br6   Br    Br    0.993468 0.198871 0.129269 -0.473288
Br7   Br    Br    0.412172 0.698902 0.944421 -0.440066
Br8   Br    Br    0.587953 0.699020 0.055983 -0.446345
O49   O     O_3   0.426135 0.793421 0.949367 -0.555487
C137  C     C_3   0.405789 0.801508 0.871780 -0.213788
H33   H     H_    0.397734 0.772152 0.838789 0.180363
H34   H     H_    0.424907 0.821934 0.859992 0.140079
H35   H     H_    0.376225 0.818142 0.852312 0.194917
O50   O     O_3   0.573959 0.793520 0.050905 -0.554353
C138  C     C_3   0.594304 0.801669 0.128471 -0.223765
H36   H     H_    0.602373 0.772338 0.161535 0.180740
H37   H     H_    0.575177 0.822083 0.140210 0.140744
H38   H     H_    0.623860 0.818341 0.147894 0.189839
O51   O     O_3   0.002852 0.293437 0.889650 -0.554528
C139  C     C_3   0.961915 0.301485 0.828053 -0.206209
H39   H     H_    0.944800 0.321888 0.844382 0.139606
H40   H     H_    0.944226 0.272113 0.802589 0.178239
H41   H     H_    0.963635 0.318128 0.784269 0.194255
O52   O     O_3   0.997013 0.293431 0.110571 -0.554295
C140  C     C_3   0.037945 0.301502 0.172197 -0.212600
H42   H     H_    0.055084 0.321912 0.155889 0.139156
H43   H     H_    0.055617 0.272139 0.197691 0.177962
H44   H     H_    0.036213 0.318146 0.215951 0.193921
O53   O     O_3   0.921577 0.002326 0.624894 -0.613819
C141  C     C_3   0.891539 0.003228 0.643080 -0.286647
H45   H     H_    0.894817 0.031618 0.675794 0.166657
H46   H     H_    0.893109 0.974716 0.674165 0.162268
H47   H     H_    0.860149 0.004144 0.590095 0.194150
O54   O     O_3   0.032036 0.927320 0.327729 -0.585656
C142  C     C_3   0.043296 0.899948 0.290236 -0.280400
H48   H     H_    0.067863 0.913687 0.284258 0.154767
H49   H     H_    0.015743 0.890750 0.234377 0.155013
H50   H     H_    0.056315 0.871174 0.324273 0.204196
O55   O     O_3   0.422626 0.486599 0.626030 -0.614002
C143  C     C_3   0.393000 0.481669 0.644662 -0.286547
H51   H     H_    0.390506 0.510266 0.671343 0.164861
H52   H     H_    0.400250 0.454185 0.681684 0.163801
H53   H     H_    0.362063 0.476185 0.592171 0.194681
O56   O     O_3   0.570099 0.464374 0.366558 -0.606459
C144  C     C_3   0.596882 0.450955 0.345010 -0.281379
H54   H     H_    0.607708 0.477556 0.326611 0.160490
H55   H     H_    0.581778 0.426859 0.300193 0.161396
H56   H     H_    0.624835 0.436574 0.394441 0.199070
O57   O     O_3   0.079918 0.997671 0.874856 -0.574663
C145  C     C_3   0.109363 0.996693 0.855220 -0.309556
H57   H     H_    0.107434 0.025120 0.823652 0.156214
H58   H     H_    0.105775 0.968237 0.822432 0.158594
H59   H     H_    0.141022 0.995862 0.907573 0.195338
O58   O     O_3   0.968552 0.072250 0.171846 -0.600234
C146  C     C_3   0.957487 0.100140 0.208943 -0.210478
H60   H     H_    0.985230 0.109838 0.264179 0.162282
H61   H     H_    0.933254 0.086638 0.216099 0.142452
H62   H     H_    0.944119 0.128564 0.173989 0.224933
O59   O     O_3   0.578716 0.513894 0.873638 -0.574628
C147  C     C_3   0.607740 0.518826 0.853545 -0.302667
H63   H     H_    0.600277 0.546467 0.816778 0.159052
H64   H     H_    0.609682 0.490355 0.825950 0.153658
H65   H     H_    0.639003 0.524032 0.905437 0.197756
O60   O     O_3   0.429284 0.536614 0.133673 -0.584892
C148  C     C_3   0.402541 0.549475 0.155675 -0.253148
H66   H     H_    0.417732 0.573054 0.201403 0.154352
H67   H     H_    0.391557 0.522510 0.173006 0.156939
H68   H     H_    0.374676 0.564313 0.106784 0.208716
O61   O     O_3   0.793202 0.927156 0.260749 -0.596521
C149  C     C_3   0.792537 0.898588 0.310269 -0.287832
H69   H     H_    0.760352 0.887357 0.287834 0.156848
H70   H     H_    0.806494 0.912295 0.367289 0.158638
H71   H     H_    0.811601 0.871117 0.316166 0.207733
O62   O     O_3   0.206868 0.950885 0.794775 -0.592172
C150  C     C_3   0.204530 0.971320 0.850795 -0.323072
H72   H     H_    0.187529 0.001442 0.829865 0.152707
H73   H     H_    0.236042 0.976378 0.902608 0.169110
H74   H     H_    0.186840 0.951281 0.866155 0.198883
O63   O     O_3   0.293301 0.449683 0.207490 -0.603939
C151  C     C_3   0.293423 0.407958 0.228227 -0.299912
H75   H     H_    0.261403 0.394630 0.196675 0.162271
H76   H     H_    0.307974 0.405000 0.289903 0.161492
H77   H     H_    0.312347 0.389234 0.213930 0.205168
O64   O     O_3   0.706814 0.461120 0.805631 -0.595468
C152  C     C_3   0.705662 0.487062 0.857747 -0.324959
H78   H     H_    0.689392 0.516926 0.831259 0.154535
H79   H     H_    0.737507 0.493168 0.907995 0.171072
H80   H     H_    0.687856 0.470930 0.877400 0.198848

loop_
_geom_bond_atom_site_label_1
_geom_bond_atom_site_label_2
_ccdc_geom_bond_type
C99   C103  A    
O17   Zn3   S    
O1    Zn1   S    
C18   H30   S    
C150  H73   S    
O40   Zn7   S    
C79   C121  S    
O58   C146  S    
C47   O27   A    
C28   C40   S    
O38   Zn5   S    
C96   C99   A    
C144  H56   S    
O11   Zn12  S    
C9    C13   A    
C29   O61   S    
O9    Zn10  S    
C11   C15   A    
C30   O62   S    
C12   C16   A    
C31   O63   S    
O56   C144  S    
C61   C115  S    
C59   O42   A    
C97   C105  S    
C58   O36   A    
C10   H26   S    
C65   O7    A    
C23   H7    S    
C130  C134  S    
C19   H31   S    
C76   C83   A    
C82   C124  S    
O21   Zn1   S    
C63   O5    A    
C25   C29   A    
C137  H34   S    
C135  H23   S    
C27   C31   A    
C147  H65   S    
C28   C32   A    
O15   Zn11  S    
C26   C38   S    
C94   C97   A    
O13   Zn9   S    
C17   C21   A    
C19   C23   A    
C13   C33   S    
C67   O14   A    
C10   C30   A    
C6    C80   S    
C150  H72   S    
C16   C20   A    
O43   Zn7   S    
C111  C113  T    
C60   O44   A    
C129  C133  S    
C126  H18   S    
C1    C41   S    
C143  H52   S    
C119  C123  S    
C87   C89   T    
C53   C89   S    
C149  H69   S    
O16   Zn12  S    
C64   O6    A    
O22   Zn1   S    
O4    Zn2   S    
C55   C117  S    
C142  H49   S    
C68   O16   A    
C84   C88   S    
C3    O19   A    
O26   Zn3   S    
C1    O17   A    
O12   Zn11  S    
C98   C106  S    
C53   O29   A    
C4    O20   A    
O5    Zn9   S    
C68   C92   S    
C121  H13   S    
C127  C131  S    
O3    Zn2   S    
C128  H20   S    
C125  C129  S    
C71   Br3   S    
O52   C140  S    
O42   Zn6   S    
C109  C135  S    
C110  C136  S    
O33   Zn5   S    
C112  C114  T    
C5    C133  S    
O48   Zn12  S    
C81   C123  S    
C54   C90   S    
O29   Zn5   S    
C140  H42   S    
C152  H79   S    
C55   O33   A    
O64   C152  S    
O53   C141  S    
C118  C122  S    
C95   O51   S    
C8    C128  S    
C93   O49   S    
C96   C98   A    
C119  C131  S    
C5    C79   S    
C117  C129  S    
C36   C52   T    
O57   C145  S    
C70   C77   A    
C61   O45   A    
C72   C75   A    
C151  H76   S    
C46   O26   A    
O19   Zn4   S    
C75   H10   S    
O8    Zn12  S    
C79   O53   S    
C80   O54   S    
C10   C14   A    
C104  C112  S    
C77   C84   A    
C32   O64   S    
C54   O31   A    
C147  H64   S    
C121  C125  S    
C148  H66   S    
C69   Br1   S    
C123  C127  S    
C58   O40   A    
C132  C136  S    
C138  H38   S    
C22   H6    S    
C101  Br8   S    
C11   H27   S    
C9    H25   S    
C73   C85   S    
C134  H22   S    
C26   C30   A    
C93   C97   A    
O44   Zn8   S    
O25   Zn3   S    
C21   C25   A    
C4    O4    A    
C7    C81   S    
C18   C22   A    
C105  C115  T    
C24   C28   A    
C14   C34   S    
C140  H44   S    
O55   C143  S    
C151  H77   S    
O54   C142  S    
C80   C108  S    
C13   C17   A    
C141  H45   S    
C16   C36   S    
C2    C42   S    
C144  H55   S    
O47   Zn11  S    
C37   C41   T    
O45   Zn9   S    
C7    C135  S    
C136  H24   S    
C40   C44   T    
C56   O38   A    
C5    C125  S    
C146  H60   S    
C81   O55   S    
C145  H57   S    
C7    C127  S    
C59   O41   A    
C83   C87   S    
C8    C136  S    
O41   Zn5   S    
C62   O47   A    
C66   O8    A    
C142  H48   S    
C80   C122  S    
C15   C19   A    
C137  H35   S    
C8    C82   S    
C122  H14   S    
C148  H68   S    
C71   C76   A    
C126  C130  S    
C33   C49   T    
C138  H36   S    
O37   Zn6   S    
O7    Zn11  S    
C103  C111  S    
C51   C65   S    
C14   C18   A    
O10   Zn9   S    
C67   O13   A    
C60   C114  S    
C139  H40   S    
C145  H59   S    
C69   C73   A    
C72   Br4   S    
C124  C128  S    
O2    Zn1   S    
C102  Br7   S    
C100  Br5   S    
C149  H70   S    
O23   Zn2   S    
C150  H74   S    
O20   Zn4   S    
C45   O25   A    
C55   O37   A    
C123  H15   S    
O63   C151  S    
C6    C126  S    
C72   C74   A    
C127  H19   S    
C99   Br6   S    
C95   C100  A    
O14   Zn10  S    
C65   O11   A    
C5    C45   S    
C100  C103  A    
C106  C116  T    
C149  H71   S    
C7    C47   S    
C107  H1    S    
C8    C48   S    
C108  C134  S    
C118  C130  S    
C12   H28   S    
C64   O10   A    
O59   C147  S    
C57   O35   A    
C70   C73   A    
C67   C91   S    
O50   C138  S    
O35   Zn7   S    
C77   H12   S    
C78   H11   S    
C2    O2    A    
C88   C90   T    
C76   H9    S    
C101  C104  A    
O31   Zn7   S    
C96   O52   S    
C52   C66   S    
C139  H39   S    
C109  C119  S    
C137  H33   S    
C56   C118  S    
C93   C102  A    
C71   C74   A    
C4    C44   S    
O18   Zn3   S    
O6    Zn10  S    
C21   H5    S    
C107  C133  S    
C17   H29   S    
C108  H2    S    
C75   C83   A    
C152  H78   S    
C66   O12   A    
C24   H8    S    
C47   O23   A    
C60   O43   A    
C48   O24   A    
C70   Br2   S    
C143  H51   S    
C148  H67   S    
C22   C26   A    
C107  C117  S    
C142  H50   S    
C131  O59   S    
C68   O15   A    
C49   C63   S    
C146  H61   S    
C50   C64   S    
O61   C149  S    
O34   Zn6   S    
O24   Zn2   S    
C85   C91   T    
C95   C98   A    
C3    C43   S    
C53   O30   A    
C82   C110  S    
O60   C148  S    
O30   Zn6   S    
C38   C42   T    
C131  C135  S    
C56   O34   A    
C54   O32   A    
C82   O56   S    
C117  C121  S    
C25   C37   S    
C20   C24   A    
C94   C101  A    
C27   C39   S    
C138  H37   S    
C132  O60   S    
C129  O57   S    
C23   C27   A    
C133  H21   S    
C139  H41   S    
C59   C113  S    
C57   C119  S    
C124  H16   S    
C11   C31   A    
O39   Zn8   S    
O36   Zn8   S    
C69   C78   A    
C46   O22   A    
C128  C132  S    
C15   C35   S    
O27   Zn4   S    
O28   Zn4   S    
C125  H17   S    
C20   H32   S    
C34   C50   T    
C79   C107  S    
O32   Zn8   S    
C108  C118  S    
C110  C120  S    
C140  H43   S    
C152  H80   S    
C39   C43   T    
C122  C126  S    
C141  H46   S    
C2    O18   A    
C62   C116  S    
C143  H53   S    
C144  H54   S    
C74   C86   S    
C102  C104  A    
C45   O21   A    
C145  H58   S    
C141  H47   S    
C61   O46   A    
C151  H75   S    
O62   C150  S    
C6    C46   S    
C120  C132  S    
C62   O48   A    
C81   C109  S    
C58   C120  S    
O51   C139  S    
C9    C29   A    
C57   O39   A    
C63   O9    A    
C109  H3    S    
C147  H63   S    
C110  H4    S    
C94   O50   S    
C130  O58   S    
C86   C92   T    
C35   C51   T    
C3    O3    A    
C1    O1    A    
C48   O28   A    
O46   Zn10  S    
C78   C84   A    
C6    C134  S    
O49   C137  S    
C12   C32   A    
C120  C124  S    
C146  H62   S    
