data_mof_unit_55714.cif
_audit_creation_date              2012-12-10T19:47:50-0500
_audit_creation_method            fapswitch 2.2
_symmetry_space_group_name_H-M    P1
_symmetry_Int_Tables_number       1
_space_group_crystal_system       triclinic
_cell_length_a                    18.236911
_cell_length_b                    18.201396
_cell_length_c                    21.706056
_cell_angle_alpha                 90.264295
_cell_angle_beta                  90.528226
_cell_angle_gamma                 90.019848
_cell_volume                      7204.66490521

loop_
_atom_site_label
_atom_site_type_symbol
_atom_type_description
_atom_site_fract_x
_atom_site_fract_y
_atom_site_fract_z
_atom_type_partial_charge
C1    C     C_R   0.999975 0.358737 0.999815 0.943970
C2    C     C_1   0.282212 0.999952 0.000273 -0.151342
C3    C     C_3   0.514751 0.395693 0.790397 -0.809010
C4    C     C_3   0.268553 0.524369 0.860158 0.112179
C5    C     C_3   0.348592 0.517243 0.879330 -0.843514
C6    C     C_3   0.409773 0.694695 0.766678 0.218898
C7    C     C_3   0.434889 0.615665 0.757312 -0.775525
C8    C     C_3   0.946557 0.802890 0.227534 0.104766
C9    C     C_3   0.925218 0.872717 0.193581 -0.740068
C10   C     C_3   0.497441 0.718658 0.145787 0.134677
C11   C     C_3   0.488667 0.643590 0.115571 -0.814230
C12   C     C_3   0.122322 0.202650 0.183241 0.154731
C13   C     C_1   0.999856 0.717753 0.000149 -0.142436
C14   C     C_3   0.120673 0.119769 0.191896 -0.752990
C15   C     C_3   0.340009 0.268125 0.246912 0.135206
C16   C     C_3   0.295289 0.331956 0.221625 -0.821135
C17   C     C_3   0.378178 0.702402 0.314391 0.152109
C18   C     C_3   0.380211 0.619301 0.306802 -0.753079
C19   C     C_3   0.161642 0.767043 0.255056 0.134534
C20   C     C_3   0.206572 0.830863 0.280646 -0.820098
C21   C     C_3   0.555806 0.302582 0.274582 0.103675
C22   C     C_3   0.577801 0.372383 0.308842 -0.736875
C23   C     C_3   0.999824 0.217556 0.350353 0.133605
C24   C     C_1   0.717781 0.000033 0.999444 -0.185871
C25   C     C_3   0.007425 0.141925 0.379170 -0.817130
C26   C     C_3   0.355826 0.270066 0.739615 0.132721
C27   C     C_3   0.311697 0.332810 0.711669 -0.832669
C28   C     C_3   0.761961 0.332838 0.747963 0.134966
C29   C     C_3   0.726937 0.270910 0.710633 -0.849418
C30   C     C_3   0.612208 0.713136 0.709930 0.094644
C31   C     C_3   0.640751 0.654616 0.665931 -0.792687
C32   C     C_3   0.279550 0.587741 0.640329 0.095551
C33   C     C_3   0.312836 0.649142 0.601974 -0.737759
C34   C     C_1   0.123470 0.625947 0.862117 0.249788
C35   C     C_1   0.499914 0.782241 0.500427 -0.158324
C36   C     C_1   0.402798 0.864153 0.844399 0.268801
C37   C     C_1   0.850279 0.592266 0.848712 0.258323
C38   C     C_1   0.592289 0.141951 0.846600 0.266781
C39   C     C_1   0.098934 0.365136 0.135503 0.217453
C40   C     C_1   0.376416 0.126992 0.148024 0.253127
C41   C     C_1   0.927366 0.638749 0.150654 0.251104
C42   C     C_1   0.385350 0.863241 0.137434 0.248058
C43   C     C_1   0.573725 0.138512 0.350269 0.253485
C44   C     C_1   0.112894 0.361791 0.361757 0.250129
C45   C     C_1   0.401814 0.864827 0.363692 0.213329
C46   C     C_1   0.782215 0.499952 0.500684 -0.188939
C47   C     C_1   0.124592 0.625897 0.352842 0.255129
C48   C     C_1   0.593542 0.867954 0.642745 0.261585
C49   C     C_1   0.115600 0.625421 0.637971 0.307277
C50   C     C_1   0.399761 0.130816 0.643682 0.278618
C51   C     C_1   0.881755 0.392883 0.650247 0.295961
C52   C     C_1   0.499995 0.217746 0.499810 -0.159687
C53   C     C_1   0.217771 0.499294 0.498727 -0.176717
C54   C     C_R   0.999584 0.511971 0.880405 0.875177
C55   C     C_R   0.499930 0.999982 0.879175 0.874210
C56   C     C_R   0.000814 0.497563 0.120744 0.883604
C57   C     C_R   0.358681 0.999985 0.999730 0.928785
C58   C     C_R   0.486639 0.999763 0.119328 0.881119
C59   C     C_R   0.499194 0.997669 0.379226 0.882297
C60   C     C_R   0.013288 0.499520 0.380652 0.884638
C61   C     C_R   0.500185 0.001812 0.619865 0.880804
C62   C     C_R   0.002120 0.500678 0.620701 0.870003
C63   C     C_R   0.128193 0.572084 0.813223 -0.179156
C64   C     C_R   0.462805 0.865861 0.801223 -0.119470
C65   C     C_R   0.862387 0.533372 0.804786 -0.120812
C66   C     C_R   0.530079 0.136808 0.804890 -0.101659
C67   C     C_R   0.047163 0.363330 0.185206 -0.193096
C68   C     C_R   0.999971 0.641263 0.000326 0.930705
C69   C     C_R   0.430527 0.129292 0.197146 -0.133613
C70   C     C_R   0.986121 0.632378 0.195346 -0.185381
C71   C     C_R   0.438250 0.863677 0.187478 -0.173679
C72   C     C_R   0.514748 0.132533 0.305698 -0.186059
C73   C     C_R   0.060501 0.362829 0.311353 -0.174584
C74   C     C_R   0.452926 0.863427 0.313507 -0.192276
C75   C     C_R   0.070376 0.628546 0.303835 -0.134487
C76   C     C_R   0.538105 0.868305 0.689779 -0.197825
C77   C     C_R   0.126312 0.573389 0.687360 -0.260396
C78   C     C_R   0.452633 0.132583 0.693538 -0.201547
C79   C     C_R   0.641307 0.000011 0.999813 0.949846
C80   C     C_R   0.876900 0.447048 0.698851 -0.212662
C81   C     C_R   0.195488 0.569852 0.782739 0.400323
C82   C     C_R   0.480632 0.799496 0.771685 0.350181
C83   C     C_R   0.802014 0.493779 0.782622 0.353348
C84   C     C_R   0.502750 0.202370 0.779853 0.336116
C85   C     C_R   0.046410 0.295982 0.216418 0.405292
C86   C     C_R   0.438962 0.195377 0.230060 0.343806
C87   C     C_R   0.013714 0.697905 0.221033 0.356714
C88   C     C_R   0.449594 0.796365 0.217221 0.337867
C89   C     C_R   0.487626 0.198249 0.280518 0.356740
C90   C     C_R   0.499988 0.858730 0.500277 0.933030
C91   C     C_R   0.049222 0.295741 0.280704 0.338148
C92   C     C_R   0.453245 0.796246 0.281490 0.404545
C93   C     C_R   0.062351 0.694710 0.271472 0.343675
C94   C     C_R   0.523454 0.800857 0.718277 0.367821
C95   C     C_R   0.194346 0.579996 0.719223 0.392433
C96   C     C_R   0.457095 0.198665 0.727292 0.350156
C97   C     C_R   0.811045 0.446192 0.732490 0.368940
C98   C     C_R   0.140913 0.000006 0.000236 0.927647
C99   C     C_R   0.999928 0.859099 0.999917 0.928214
C100  C     C_R   0.859091 0.999991 0.999765 0.925792
C101  C     C_R   0.858691 0.499987 0.500280 0.948904
C102  C     C_R   0.000099 0.140900 0.000137 0.928184
C103  C     C_R   0.640908 0.499991 0.500253 0.928734
C104  C     C_R   0.500010 0.359098 0.499879 0.933210
C105  C     C_R   0.359108 0.498649 0.499629 0.921045
C106  C     C_R   0.499856 0.640898 0.500132 0.923252
C107  C     C_R   0.064650 0.540962 0.717816 -0.034719
C108  C     C_R   0.512474 0.934773 0.716864 -0.057101
C109  C     C_R   0.938305 0.489321 0.720882 -0.059771
C110  C     C_R   0.485437 0.067498 0.717911 -0.067238
C111  C     C_R   0.039589 0.429731 0.282333 -0.026576
C112  C     C_R   0.500000 0.141265 0.500067 0.929672
C113  C     C_R   0.493522 0.063743 0.279538 -0.054727
C114  C     C_R   0.036314 0.563569 0.281087 -0.036317
C115  C     C_R   0.469986 0.929844 0.281815 -0.044208
C116  C     C_R   0.464098 0.064106 0.219399 -0.036872
C117  C     C_R   0.029809 0.429524 0.217553 -0.044676
C118  C     C_R   0.459848 0.930319 0.217087 -0.025932
C119  C     C_R   0.006847 0.563451 0.220972 -0.054578
C120  C     C_R   0.490503 0.933501 0.778184 -0.045997
C121  C     C_R   0.064042 0.546413 0.782683 -0.027696
C122  C     C_R   0.507465 0.068116 0.779481 -0.046869
C123  C     C_R   0.141316 0.499903 0.499743 0.915929
C124  C     C_R   0.932813 0.520131 0.780095 -0.038647
C125  C     C_R   0.003634 0.505249 0.687513 -0.089118
C126  C     C_R   0.500296 0.001645 0.685240 -0.069966
C127  C     C_R   0.033813 0.497503 0.314687 -0.135209
C128  C     C_R   0.494250 0.995856 0.312033 -0.086441
C129  C     C_R   0.466070 0.998074 0.185285 -0.134341
C130  C     C_R   0.005783 0.495634 0.187909 -0.086257
C131  C     C_R   0.499680 0.000408 0.812157 -0.122907
C132  C     C_R   0.998272 0.530929 0.814213 -0.129995
C133  C     C_1   0.000074 0.217393 0.000378 -0.160606
C134  C     C_1   0.000000 0.282253 0.000222 -0.178856
C135  C     C_1   0.217400 0.999966 0.000584 -0.171936
C136  C     C_1   0.999850 0.782609 0.999887 -0.151135
C137  C     C_1   0.782602 0.000020 0.999349 -0.178052
C138  C     C_1   0.499845 0.717383 0.500403 -0.149209
C139  C     C_1   0.717394 0.499958 0.500738 -0.173458
C140  C     C_1   0.500001 0.282606 0.499685 -0.146647
C141  C     C_1   0.282595 0.498587 0.498703 -0.202383
C142  C     C_3   0.687748 0.542292 0.793890 0.109920
C143  C     C_3   0.630284 0.556521 0.842868 -0.828542
C144  C     C_3   0.548896 0.320675 0.778993 0.172610
H1    H     H_    0.660454 0.519555 0.751926 0.169750
H2    H     H_    0.457377 0.396447 0.773120 0.256166
H3    H     H_    0.249872 0.469350 0.843268 0.126592
H4    H     H_    0.236567 0.539853 0.901589 0.159967
H5    H     H_    0.370682 0.571586 0.893793 0.272228
H6    H     H_    0.353638 0.478490 0.918503 0.216558
H7    H     H_    0.380994 0.495403 0.840291 0.245890
H8    H     H_    0.395105 0.718725 0.721024 0.135415
H9    H     H_    0.359077 0.694344 0.794631 0.204941
H10   H     H_    0.456355 0.593164 0.801281 0.244069
H11   H     H_    0.388351 0.581090 0.741581 0.246266
H12   H     H_    0.713714 0.596047 0.782809 0.118810
H13   H     H_    0.478727 0.612964 0.722329 0.253013
H14   H     H_    0.969345 0.818718 0.273458 0.177742
H15   H     H_    0.896039 0.769339 0.233890 0.127224
H16   H     H_    0.900626 0.858663 0.148024 0.262327
H17   H     H_    0.884453 0.904001 0.220868 0.187607
H18   H     H_    0.974366 0.907694 0.186670 0.252803
H19   H     H_    0.550946 0.719623 0.171065 0.143417
H20   H     H_    0.497987 0.760826 0.108781 0.144446
H21   H     H_    0.436158 0.641149 0.089298 0.259348
H22   H     H_    0.534681 0.633557 0.083455 0.207988
H23   H     H_    0.655814 0.585096 0.882981 0.261553
H24   H     H_    0.488824 0.600063 0.151276 0.255142
H25   H     H_    0.159235 0.226542 0.219438 0.130530
H26   H     H_    0.146930 0.214413 0.137713 0.149152
H27   H     H_    0.086198 0.093707 0.155514 0.271037
H28   H     H_    0.177181 0.097342 0.189015 0.195574
H29   H     H_    0.097769 0.106271 0.237694 0.263142
H30   H     H_    0.355593 0.281103 0.295477 0.182249
H31   H     H_    0.304504 0.218204 0.245960 0.118411
H32   H     H_    0.277893 0.320018 0.173438 0.257277
H33   H     H_    0.245654 0.340349 0.250105 0.200696
H34   H     H_    0.585772 0.591378 0.823957 0.216729
H35   H     H_    0.328600 0.383050 0.222606 0.264126
H36   H     H_    0.341224 0.724991 0.277848 0.133529
H37   H     H_    0.353509 0.715345 0.359762 0.148357
H38   H     H_    0.414610 0.594463 0.343635 0.270782
H39   H     H_    0.323780 0.596690 0.309779 0.196024
H40   H     H_    0.403397 0.604620 0.261250 0.261672
H41   H     H_    0.145984 0.779943 0.206595 0.182989
H42   H     H_    0.196998 0.717050 0.255642 0.117737
H43   H     H_    0.224095 0.818978 0.328712 0.258153
H44   H     H_    0.256118 0.839164 0.252097 0.199663
H45   H     H_    0.606480 0.503900 0.858708 0.263702
H46   H     H_    0.173355 0.881992 0.280084 0.264535
H47   H     H_    0.533172 0.318396 0.228727 0.177793
H48   H     H_    0.606011 0.268572 0.268071 0.127361
H49   H     H_    0.602180 0.358343 0.354369 0.261763
H50   H     H_    0.618929 0.403129 0.281729 0.187428
H51   H     H_    0.529002 0.407867 0.315823 0.253469
H52   H     H_    0.946798 0.219304 0.324394 0.143644
H53   H     H_    0.998911 0.259126 0.388145 0.143825
H54   H     H_    0.059437 0.138629 0.406044 0.259160
H55   H     H_    0.960738 0.131701 0.410480 0.207643
H56   H     H_    0.549586 0.310843 0.728284 0.154246
H57   H     H_    0.007552 0.099020 0.342610 0.255252
H58   H     H_    0.368151 0.283940 0.788621 0.176573
H59   H     H_    0.321298 0.219515 0.737666 0.130263
H60   H     H_    0.297143 0.319696 0.663047 0.266180
H61   H     H_    0.260493 0.341120 0.738107 0.201981
H62   H     H_    0.344040 0.384494 0.713011 0.246934
H63   H     H_    0.733905 0.337887 0.792982 0.170523
H64   H     H_    0.820251 0.316943 0.756990 0.124569
H65   H     H_    0.759798 0.259902 0.668775 0.264722
H66   H     H_    0.724702 0.220159 0.738767 0.211739
H67   H     H_    0.606419 0.322089 0.795811 0.155035
H68   H     H_    0.670567 0.286102 0.696088 0.248688
H69   H     H_    0.608148 0.689676 0.756875 0.165376
H70   H     H_    0.652776 0.758947 0.711172 0.132551
H71   H     H_    0.641373 0.676342 0.618193 0.269533
H72   H     H_    0.697482 0.638721 0.679088 0.186651
H73   H     H_    0.604951 0.605286 0.667176 0.249799
H74   H     H_    0.236881 0.559552 0.612245 0.126226
H75   H     H_    0.322501 0.546607 0.651534 0.166004
H76   H     H_    0.363934 0.669608 0.624183 0.245456
H77   H     H_    0.326215 0.629601 0.555100 0.204748
H78   H     H_    0.514938 0.408305 0.840489 0.250421
H79   H     H_    0.273305 0.695247 0.597514 0.254422
H80   H     H_    0.546266 0.438526 0.765818 0.208736
N1    N     N_1   0.121358 0.671042 0.899727 -0.192128
N2    N     N_1   0.156188 0.359531 0.400960 -0.190780
N3    N     N_1   0.357700 0.864660 0.401663 -0.185418
N4    N     N_1   0.168897 0.624531 0.391297 -0.207519
N5    N     N_1   0.639719 0.866329 0.606543 -0.179216
N6    N     N_1   0.108138 0.668489 0.599317 -0.176525
N7    N     N_1   0.355678 0.130735 0.604984 -0.171827
N8    N     N_1   0.883900 0.348071 0.612266 -0.180784
N9    N     N_1   0.354450 0.862425 0.878528 -0.188843
N10   N     N_1   0.840410 0.639447 0.883584 -0.205794
N11   N     N_1   0.642294 0.146346 0.879632 -0.205201
N12   N     N_1   0.143494 0.365336 0.097897 -0.188383
N13   N     N_1   0.332226 0.125865 0.109460 -0.212904
N14   N     N_1   0.879191 0.645060 0.116014 -0.177369
N15   N     N_1   0.341620 0.861467 0.098539 -0.188524
N16   N     N_1   0.622099 0.144505 0.384805 -0.179780
O1    O     O_R   0.939380 0.392670 0.000020 -0.615792
O2    O     O_R   0.892670 0.560620 0.500020 -0.616707
O3    O     O_R   0.560620 0.107330 0.500020 -0.613393
O4    O     O_R   0.107330 0.439380 0.500020 -0.616234
O5    O     O_R   0.439380 0.107330 0.499980 -0.612264
O6    O     O_R   0.892670 0.439380 0.499980 -0.610638
O7    O     O_R   0.560620 0.892670 0.499980 -0.612056
O8    O     O_R   0.107330 0.560620 0.499980 -0.612131
O9    O     O_R   0.939380 0.500000 0.908420 -0.612789
O10   O     O_R   0.500000 0.060620 0.908420 -0.618907
O11   O     O_R   0.060620 0.500000 0.908420 -0.635374
O12   O     O_R   0.392670 0.060620 0.000020 -0.618178
O13   O     O_R   0.500000 0.939380 0.908420 -0.619230
O14   O     O_R   0.939380 0.500000 0.091580 -0.615858
O15   O     O_R   0.500000 0.939380 0.091580 -0.631677
O16   O     O_R   0.060620 0.500000 0.091580 -0.615816
O17   O     O_R   0.500000 0.060620 0.091580 -0.614837
O18   O     O_R   0.439380 0.000000 0.408420 -0.615003
O19   O     O_R   1.000000 0.560620 0.408420 -0.613763
O20   O     O_R   0.560620 0.000000 0.408420 -0.616310
O21   O     O_R   0.000000 0.439380 0.408420 -0.630111
O22   O     O_R   0.439380 0.000000 0.591580 -0.623378
O23   O     O_R   0.060620 0.607330 0.000020 -0.619708
O24   O     O_R   0.000000 0.439380 0.591580 -0.621047
O25   O     O_R   0.560620 0.000000 0.591580 -0.623348
O26   O     O_R   0.000000 0.560620 0.591580 -0.620461
O27   O     O_R   0.107300 0.999970 0.948290 -0.616157
O28   O     O_R   0.999970 0.892700 0.948290 -0.618025
O29   O     O_R   0.892700 0.000030 0.948290 -0.617598
O30   O     O_R   0.000030 0.107300 0.948290 -0.625099
O31   O     O_R   0.107300 0.000030 0.051710 -0.630376
O32   O     O_R   0.999970 0.107300 0.051710 -0.606866
O33   O     O_R   0.892700 0.999970 0.051710 -0.622840
O34   O     O_R   0.607330 0.939380 0.000020 -0.623085
O35   O     O_R   0.000030 0.892700 0.051710 -0.610300
O36   O     O_R   0.607300 0.499970 0.448290 -0.623522
O37   O     O_R   0.499970 0.392700 0.448290 -0.610871
O38   O     O_R   0.392700 0.500030 0.448290 -0.621115
O39   O     O_R   0.500030 0.607300 0.448290 -0.609525
O40   O     O_R   0.607300 0.500030 0.551710 -0.617010
O41   O     O_R   0.499970 0.607300 0.551710 -0.614735
O42   O     O_R   0.392700 0.499970 0.551710 -0.639128
O43   O     O_R   0.500030 0.392700 0.551710 -0.607896
O44   O     O_3   0.738740 0.491086 0.817101 -0.597192
O45   O     O_R   0.939380 0.607330 0.999980 -0.607626
O46   O     O_3   0.510585 0.267200 0.813112 -0.618381
O47   O     O_3   0.261396 0.579169 0.814351 -0.601440
O48   O     O_3   0.464444 0.733530 0.800036 -0.634974
O49   O     O_3   0.999040 0.764311 0.192616 -0.598402
O50   O     O_3   0.438644 0.730406 0.186482 -0.602084
O51   O     O_3   0.049607 0.230299 0.183797 -0.588935
O52   O     O_3   0.403112 0.258233 0.210495 -0.603212
O53   O     O_3   0.450766 0.730367 0.313383 -0.589335
O54   O     O_3   0.098626 0.757340 0.291546 -0.603151
O55   O     O_3   0.502966 0.264598 0.309320 -0.598042
O56   O     O_R   0.392670 0.939380 0.999980 -0.607103
O57   O     O_3   0.059526 0.229587 0.310746 -0.602172
O58   O     O_3   0.421209 0.260839 0.706084 -0.601513
O59   O     O_3   0.754529 0.399497 0.715178 -0.602042
O60   O     O_3   0.542340 0.735904 0.689146 -0.603184
O61   O     O_3   0.253044 0.618987 0.695384 -0.609842
O62   O     O_R   0.060620 0.392670 0.999980 -0.610121
O63   O     O_R   0.607330 0.060620 0.999980 -0.605135
O64   O     O_R   0.439380 0.892670 0.500020 -0.610918
Zn1   Zn    Zn3+2 0.919060 0.500000 0.000000 1.008603
Zn2   Zn    Zn3+2 1.000000 0.000000 0.069040 0.952781
Zn3   Zn    Zn3+2 0.500000 0.500000 0.430960 0.951472
Zn4   Zn    Zn3+2 0.500000 0.500000 0.569040 0.945675
Zn5   Zn    Zn3+2 0.500000 0.080940 0.000000 1.005938
Zn6   Zn    Zn3+2 0.080940 0.500000 0.000000 0.967345
Zn7   Zn    Zn3+2 0.500000 0.919060 0.000000 0.978049
Zn8   Zn    Zn3+2 0.419060 0.000000 0.500000 0.999769
Zn9   Zn    Zn3+2 0.000000 0.580940 0.500000 0.994936
Zn10  Zn    Zn3+2 0.580940 0.000000 0.500000 0.994108
Zn11  Zn    Zn3+2 1.000000 0.419060 0.500000 0.971131
Zn12  Zn    Zn3+2 0.000000 0.000000 0.930960 0.975681

loop_
_geom_bond_atom_site_label_1
_geom_bond_atom_site_label_2
_ccdc_geom_bond_type
O40   Zn4   S    
O1    Zn1   S    
C69   C116  A    
C3    H80   S    
C82   C94   A    
C19   O54   S    
O13   Zn7   S    
C108  C120  A    
C19   C20   S    
C29   H66   S    
C12   O51   S    
C88   O50   S    
O32   Zn2   S    
C103  O36   A    
C81   C95   A    
C4    H4    S    
C15   O52   S    
C119  C130  A    
C5    H5    S    
O14   Zn1   S    
O25   Zn10  S    
O31   Zn2   S    
C74   C92   A    
C51   C80   S    
C142  O44   S    
C47   N4    T    
C78   C96   A    
C23   H52   S    
C54   O11   A    
C66   C122  A    
C28   O59   S    
C16   H35   S    
C21   C22   S    
C101  O6    A    
C41   N14   T    
C67   C85   A    
O21   Zn11  S    
C34   N1    T    
C38   N11   T    
C21   H48   S    
C72   C113  A    
C104  C140  S    
C27   H61   S    
C25   H55   S    
O39   Zn3   S    
C144  H56   S    
O6    Zn11  S    
C115  C118  A    
C90   O7    A    
C3    H78   S    
C28   H64   S    
C59   O20   A    
C75   C93   A    
C29   H68   S    
O64   Zn8   S    
O22   Zn8   S    
C4    C5    S    
C64   C120  A    
C6    C7    S    
C7    H13   S    
C98   O31   A    
C54   C132  S    
C5    H7    S    
C26   H59   S    
C59   C128  S    
C118  C129  A    
C30   H69   S    
O35   Zn2   S    
C30   O60   S    
C39   N12   T    
C18   H39   S    
C54   O9    A    
C99   C136  S    
O4    Zn11  S    
C6    H9    S    
C100  C137  S    
C71   C88   A    
O28   Zn12  S    
O16   Zn6   S    
C11   H21   S    
C68   O45   A    
C142  H12   S    
C36   C64   S    
C8    H15   S    
C144  H67   S    
C19   H41   S    
O38   Zn3   S    
C56   O14   A    
C80   C97   A    
C48   C76   S    
C17   H37   S    
C2    C57   S    
C10   O50   S    
O29   Zn12  S    
C17   O53   S    
O2    Zn9   S    
C14   H29   S    
C25   H57   S    
C19   H42   S    
C143  H34   S    
C31   H71   S    
C52   C112  S    
C58   C129  S    
C124  C132  A    
C45   N3    T    
C65   C124  A    
C49   N6    T    
C83   O44   S    
C52   C140  T    
C37   C65   S    
C59   O18   A    
C70   C119  A    
C114  C119  A    
O63   Zn5   S    
C76   C94   A    
C105  O38   A    
C103  O40   A    
C70   C87   A    
C8    O49   S    
C143  H45   S    
C112  O5    A    
C46   C101  S    
C99   O28   A    
C4    O47   S    
C144  O46   S    
C108  C126  A    
O26   Zn9   S    
C107  C125  A    
O9    Zn1   S    
C9    H16   S    
C98   C135  S    
C115  C128  A    
C55   O13   A    
C45   C74   S    
O42   Zn4   S    
C20   H44   S    
O15   Zn7   S    
C24   C79   S    
O56   Zn7   S    
C61   O25   A    
C17   C18   S    
C95   O61   S    
C9    H17   S    
C101  O2    A    
C143  H23   S    
C110  C126  A    
C48   N5    T    
C56   O16   A    
C22   H51   S    
C121  C132  A    
C122  C131  A    
O43   Zn4   S    
C14   H27   S    
C104  O37   A    
C29   H65   S    
C12   H25   S    
C24   C137  T    
C2    C135  T    
C111  C117  A    
C94   O60   S    
C102  C133  S    
C47   C75   S    
C62   O26   A    
C30   C31   S    
C7    H10   S    
C74   C115  A    
C87   C93   A    
C49   C77   S    
C1    O62   A    
C32   H74   S    
C10   C11   S    
C90   O64   A    
O20   Zn10  S    
C46   C139  T    
C106  O39   A    
C44   N2    T    
C56   C130  S    
C13   C68   S    
C33   H77   S    
C10   H19   S    
C120  C131  A    
C21   O55   S    
C8    H14   S    
C113  C128  A    
O45   Zn1   S    
C26   C27   S    
C102  O32   A    
C28   C29   S    
C20   H46   S    
C123  O8    A    
C21   H47   S    
C25   H54   S    
O10   Zn5   S    
C80   C109  A    
C22   H49   S    
C61   C126  S    
C81   O47   S    
C82   O48   S    
C100  O29   A    
C6    H8    S    
C16   H32   S    
O12   Zn5   S    
C76   C108  A    
C142  H1    S    
C50   C78   S    
C62   O24   A    
C99   O35   A    
C4    H3    S    
C5    H6    S    
O33   Zn2   S    
C6    O48   S    
C30   H70   S    
C32   O61   S    
C18   H40   S    
C105  O42   A    
C55   O10   A    
C58   O15   A    
C96   O58   S    
C67   C117  A    
O19   Zn9   S    
O11   Zn6   S    
C55   C131  S    
C133  C134  T    
C104  O43   A    
C107  C121  A    
O27   Zn12  S    
C79   O63   A    
O37   Zn3   S    
C102  O30   A    
C15   H30   S    
C60   C127  S    
C3    C144  S    
C86   C89   A    
C62   C125  S    
C42   N15   T    
O30   Zn12  S    
C27   H62   S    
C32   C33   S    
O24   Zn11  S    
C57   O56   A    
C110  C122  A    
C114  C127  A    
C92   O53   S    
C42   C71   S    
C87   O49   S    
C53   C141  T    
C44   C73   S    
C106  C138  S    
C43   N16   T    
C35   C90   S    
C7    H11   S    
C83   C97   A    
C28   H63   S    
C18   H38   S    
C142  C143  S    
C41   C70   S    
C31   H73   S    
C43   C72   S    
C97   O59   S    
C85   C91   A    
O5    Zn8   S    
C37   N10   T    
C63   C81   A    
C60   O19   A    
C26   H58   S    
C61   O22   A    
O36   Zn3   S    
C35   C138  T    
C105  C141  S    
C65   C83   A    
C91   O57   S    
C15   C16   S    
C26   O58   S    
C84   C96   A    
O17   Zn5   S    
C112  O3    A    
C116  C129  A    
C38   C66   S    
C8    C9    S    
C11   H22   S    
C23   O57   S    
C113  C116  A    
O7    Zn10  S    
O8    Zn9   S    
C123  O4    A    
C63   C121  A    
C73   C111  A    
C85   O51   S    
C86   O52   S    
C40   C69   S    
C58   O17   A    
C27   H60   S    
C88   C92   A    
C77   C107  A    
C73   C91   A    
C14   H28   S    
C53   C123  S    
C89   O55   S    
C12   H26   S    
C31   H72   S    
C36   N9    T    
C77   C95   A    
C40   N13   T    
C103  C139  S    
C98   O27   A    
O62   Zn6   S    
C50   N7    T    
C78   C110  A    
C75   C114  A    
C57   O12   A    
C117  C130  A    
C64   C82   A    
C1    O1    A    
O34   Zn7   S    
C17   H36   S    
C109  C125  A    
C12   C14   S    
C111  C127  A    
C13   C136  T    
C1    C134  S    
C33   H79   S    
C16   H33   S    
C33   H76   S    
C84   O46   S    
C10   H20   S    
C71   C118  A    
C51   N8    T    
C39   C67   S    
C60   O21   A    
C109  C124  A    
C79   O34   A    
C23   H53   S    
C15   H31   S    
C100  O33   A    
C106  O41   A    
O41   Zn4   S    
O18   Zn8   S    
C20   H43   S    
C72   C89   A    
C11   H24   S    
C34   C63   S    
C93   O54   S    
C23   C25   S    
C9    H18   S    
C32   H75   S    
C66   C84   A    
C3    H2    S    
O3    Zn10  S    
C22   H50   S    
O23   Zn6   S    
C68   O23   A    
C69   C86   A    
