data_mof_unit_28241.cif
_audit_creation_date              2012-12-11T15:35:16-0500
_audit_creation_method            fapswitch 2.2
_symmetry_space_group_name_H-M    P1
_symmetry_Int_Tables_number       1
_space_group_crystal_system       triclinic
_cell_length_a                    17.413561
_cell_length_b                    24.353936
_cell_length_c                    15.02434
_cell_angle_alpha                 89.278175
_cell_angle_beta                  125.315204
_cell_angle_gamma                 91.080619
_cell_volume                      5198.23286801

loop_
_atom_site_label
_atom_site_type_symbol
_atom_type_description
_atom_site_fract_x
_atom_site_fract_y
_atom_site_fract_z
_atom_type_partial_charge
C1    C     C_R   0.314188 0.129821 0.906804 -0.145788
C2    C     C_R   0.308117 0.876348 0.908912 -0.156060
C3    C     C_R   0.814193 0.629824 0.906803 -0.145727
C4    C     C_R   0.808121 0.376344 0.908906 -0.156280
C5    C     C_R   0.648830 0.151552 0.092325 -0.198949
C6    C     C_R   0.649347 0.849514 0.093524 -0.255883
C7    C     C_R   0.148833 0.651551 0.092327 -0.198888
C8    C     C_R   0.149388 0.349527 0.093529 -0.255887
C9    C     C_R   0.555606 0.846689 0.913686 0.703504
C10   C     C_R   0.554211 0.154190 0.912386 0.699993
C11   C     C_R   0.055709 0.346715 0.913675 0.703612
C12   C     C_R   0.054210 0.654193 0.912390 0.699952
C13   C     C_R   0.540999 0.001385 0.716558 -0.112329
C14   C     C_R   0.041072 0.501371 0.716639 -0.112542
C15   C     C_R   0.824324 0.000730 0.274286 0.031114
C16   C     C_R   0.324324 0.500739 0.274241 0.031134
C17   C     C_R   0.617212 0.185363 0.003074 -0.071746
C18   C     C_R   0.617810 0.817391 0.004713 -0.096061
C19   C     C_R   0.117218 0.685363 0.003078 -0.071997
C20   C     C_R   0.117912 0.317422 0.004715 -0.096384
C21   C     C_3   0.036143 0.007739 0.571560 -0.510140
C22   C     C_3   0.086372 0.046446 0.454521 -0.499822
C23   C     C_3   0.536138 0.507629 0.571535 -0.510105
C24   C     C_3   0.586332 0.546540 0.454598 -0.500019
C25   C     C_3   0.932799 0.007276 0.473481 -0.227006
C26   C     C_3   0.980910 0.049790 0.358029 -0.239948
C27   C     C_3   0.432791 0.507117 0.473458 -0.227006
C28   C     C_3   0.480858 0.549900 0.358158 -0.239918
C29   C     C_3   0.074371 0.943663 0.470959 1.329520
C30   C     C_3   0.574443 0.443726 0.470768 1.329644
C31   C     C_3   0.101100 0.999186 0.533855 0.046787
C32   C     C_3   0.601112 0.499200 0.533817 0.046751
C33   C     C_3   0.925579 0.000278 0.364805 0.032348
C34   C     C_3   0.425586 0.500290 0.364756 0.032387
C35   C     C_R   0.401542 0.874581 0.091414 0.705489
C36   C     C_R   0.408453 0.132233 0.090862 0.763400
C37   C     C_R   0.901542 0.374573 0.091409 0.705478
C38   C     C_R   0.908474 0.632258 0.090859 0.762969
C39   C     C_3   0.973213 0.945898 0.367923 -0.524415
C40   C     C_3   0.473301 0.445986 0.367681 -0.524431
C41   C     C_R   0.146682 0.821904 0.906927 -0.127830
C42   C     C_R   0.269697 0.243344 0.954290 -0.106188
C43   C     C_R   0.646687 0.321888 0.906905 -0.127414
C44   C     C_R   0.769305 0.743289 0.953854 -0.106358
C45   C     C_R   0.603241 0.273425 0.907559 -0.172559
C46   C     C_R   0.714705 0.783337 0.953672 -0.176162
C47   C     C_R   0.103246 0.773434 0.907573 -0.172042
C48   C     C_R   0.215142 0.283421 0.954125 -0.176388
C49   C     C_R   0.640655 0.243803 0.004875 0.179133
C50   C     C_R   0.667957 0.773261 0.002673 0.159040
C51   C     C_R   0.140669 0.743803 0.004884 0.179020
C52   C     C_R   0.168075 0.273295 0.002723 0.159278
C53   C     C_R   0.709535 0.268989 0.103602 -0.149185
C54   C     C_R   0.673336 0.723495 0.051908 -0.130991
C55   C     C_R   0.209558 0.768983 0.103614 -0.149100
C56   C     C_R   0.173069 0.223455 0.051527 -0.130669
C57   C     C_R   0.254384 0.816377 0.103046 -0.102556
C58   C     C_R   0.224573 0.182086 0.048899 -0.095638
C59   C     C_R   0.754367 0.316381 0.103028 -0.102565
C60   C     C_R   0.724882 0.682146 0.049296 -0.095218
C61   C     C_R   0.233319 0.837564 0.003849 0.098791
C62   C     C_R   0.271362 0.191951 0.999610 0.113992
C63   C     C_R   0.733316 0.337556 0.003830 0.098717
C64   C     C_R   0.771342 0.691962 0.999599 0.113865
C65   C     C_R   0.634077 0.016808 0.644414 -0.038456
C66   C     C_R   0.469041 0.987699 0.525638 -0.174761
C67   C     C_R   0.134398 0.516193 0.644667 -0.038086
C68   C     C_R   0.968735 0.488290 0.525488 -0.175239
C69   C     C_R   0.639303 0.016374 0.556136 -0.169137
C70   C     C_R   0.475033 0.985677 0.439118 -0.099807
C71   C     C_R   0.139567 0.515760 0.556348 -0.169289
C72   C     C_R   0.974606 0.486323 0.438863 -0.099500
C73   C     C_R   0.559979 0.999742 0.455190 0.122134
C74   C     C_R   0.059837 0.499781 0.455126 0.122356
C75   C     C_R   0.545742 0.045565 0.301063 -0.043803
C76   C     C_R   0.547250 0.954752 0.302567 -0.023075
C77   C     C_R   0.045660 0.545571 0.301020 -0.044430
C78   C     C_R   0.047177 0.454756 0.302549 -0.022527
C79   C     C_R   0.549092 0.001868 0.627984 0.135464
C80   C     C_R   0.049111 0.501872 0.628031 0.136081
C81   C     C_R   0.245708 0.953976 0.696087 -0.008826
C82   C     C_R   0.244146 0.045688 0.696850 -0.105900
C83   C     C_R   0.745703 0.453980 0.696076 -0.008970
C84   C     C_R   0.744159 0.545691 0.696844 -0.105985
C85   C     C_R   0.323862 0.148649 0.999162 -0.170723
C86   C     C_R   0.309644 0.863837 0.001361 -0.124072
C87   C     C_R   0.823888 0.648679 0.999159 -0.170607
C88   C     C_R   0.809644 0.363828 0.001351 -0.124051
C89   C     C_R   0.560355 0.000154 0.362063 -0.038253
C90   C     C_R   0.060237 0.500165 0.362015 -0.038201
C91   C     C_R   0.197773 0.999595 0.634282 0.056577
C92   C     C_R   0.697787 0.499603 0.634257 0.056692
C93   C     C_R   0.511682 0.046631 0.743353 -0.119823
C94   C     C_R   0.512872 0.954933 0.745081 -0.119511
C95   C     C_R   0.011758 0.546621 0.743431 -0.119658
C96   C     C_R   0.012812 0.454923 0.745016 -0.120068
C97   C     C_R   0.766965 0.954385 0.244887 -0.090282
C98   C     C_R   0.768637 0.046685 0.248578 -0.091734
C99   C     C_R   0.266968 0.454391 0.244861 -0.090319
C100  C     C_R   0.268632 0.546688 0.248560 -0.091898
H1    H     H_    0.259173 0.139134 0.822672 0.139192
H2    H     H_    0.251423 0.870418 0.824483 0.162206
H3    H     H_    0.759164 0.639120 0.822668 0.139097
H4    H     H_    0.751440 0.370413 0.824475 0.162148
H5    H     H_    0.052978 0.047880 0.614359 0.188886
H6    H     H_    0.108180 0.086794 0.496540 0.186450
H7    H     H_    0.552895 0.547753 0.614374 0.188944
H8    H     H_    0.608127 0.586861 0.496714 0.186425
H9    H     H_    0.904495 0.048393 0.470954 0.139629
H10   H     H_    0.954199 0.088330 0.369443 0.138609
H11   H     H_    0.404367 0.548175 0.471041 0.139650
H12   H     H_    0.454133 0.588374 0.369770 0.138613
H13   H     H_    0.935388 0.909001 0.368202 0.206636
H14   H     H_    0.971975 0.941792 0.293692 0.216224
H15   H     H_    0.435491 0.409023 0.367734 0.206594
H16   H     H_    0.472136 0.442029 0.293475 0.216227
H17   H     H_    0.542670 0.258777 0.830996 0.234730
H18   H     H_    0.711662 0.823540 0.919759 0.162789
H19   H     H_    0.042667 0.758788 0.831013 0.234759
H20   H     H_    0.212344 0.323670 0.920511 0.162473
H21   H     H_    0.735145 0.250095 0.181372 0.135072
H22   H     H_    0.637390 0.716810 0.090725 0.141323
H23   H     H_    0.235178 0.750082 0.181382 0.135083
H24   H     H_    0.136853 0.216729 0.090014 0.141291
H25   H     H_    0.310574 0.832565 0.181013 0.205151
H26   H     H_    0.228285 0.142549 0.085092 0.138546
H27   H     H_    0.810551 0.332574 0.180993 0.205210
H28   H     H_    0.728888 0.642666 0.085826 0.138590
H29   H     H_    0.694919 0.028714 0.724282 0.137392
H30   H     H_    0.402674 0.977714 0.513570 0.155711
H31   H     H_    0.195526 0.527605 0.724725 0.136926
H32   H     H_    0.902216 0.478713 0.513358 0.155583
H33   H     H_    0.703938 0.028608 0.566076 0.169562
H34   H     H_    0.413352 0.974215 0.359349 0.144110
H35   H     H_    0.204466 0.527504 0.566478 0.169774
H36   H     H_    0.912671 0.475332 0.358920 0.143857
H37   H     H_    0.559986 0.087602 0.328883 0.188186
H38   H     H_    0.565411 0.913314 0.333716 0.185186
H39   H     H_    0.059896 0.587609 0.328835 0.188382
H40   H     H_    0.065324 0.413322 0.333716 0.185134
H41   H     H_    0.236324 0.911878 0.669809 0.199075
H42   H     H_    0.229943 0.088167 0.671738 0.130408
H43   H     H_    0.736297 0.411881 0.669802 0.199096
H44   H     H_    0.729977 0.588172 0.671747 0.130405
H45   H     H_    0.786654 0.911963 0.257690 0.120941
H46   H     H_    0.791324 0.089131 0.266010 0.114763
H47   H     H_    0.286680 0.411972 0.257707 0.120966
H48   H     H_    0.291308 0.589135 0.265985 0.114936
H49   H     H_    0.687149 0.164299 0.176450 0.141127
H50   H     H_    0.693092 0.836677 0.177961 0.166547
H51   H     H_    0.187153 0.664297 0.176452 0.141158
H52   H     H_    0.193123 0.336687 0.177963 0.166621
H53   H     H_    0.049554 0.975617 0.632291 0.238136
H54   H     H_    0.131752 0.039512 0.425884 0.231639
H55   H     H_    0.549616 0.475473 0.632238 0.238093
H56   H     H_    0.631684 0.539680 0.425899 0.231610
N1    N     N_R   0.392140 0.102630 0.941800 -0.064437
N2    N     N_R   0.392140 0.897370 0.941800 -0.080230
N3    N     N_R   0.892140 0.602630 0.941800 -0.064455
N4    N     N_R   0.892140 0.397370 0.941800 -0.080251
N5    N     N_R   0.450890 0.896450 0.057150 -0.109122
N6    N     N_R   0.450890 0.103550 0.057150 -0.116878
N7    N     N_R   0.950890 0.396450 0.057150 -0.109129
N8    N     N_R   0.950890 0.603550 0.057150 -0.116903
N9    N     N_R   0.525160 0.027960 0.206160 -0.071756
N10   N     N_R   0.525160 0.972040 0.206160 -0.063465
N11   N     N_R   0.025160 0.527960 0.206160 -0.071722
N12   N     N_R   0.025160 0.472040 0.206160 -0.063529
N13   N     N_R   0.317870 0.971120 0.792790 -0.066298
N14   N     N_R   0.317870 0.028880 0.792790 -0.050653
N15   N     N_R   0.817870 0.471120 0.792790 -0.066245
N16   N     N_R   0.817870 0.528880 0.792790 -0.050650
N17   N     N_R   0.473480 0.027920 0.793480 -0.065102
N18   N     N_R   0.473480 0.972080 0.793480 -0.066257
N19   N     N_R   0.973480 0.527920 0.793480 -0.065102
N20   N     N_R   0.973480 0.472080 0.793480 -0.066176
N21   N     N_R   0.681610 0.971120 0.207570 -0.043479
N22   N     N_R   0.681610 0.028880 0.207570 -0.042546
N23   N     N_R   0.181610 0.471120 0.207570 -0.043414
N24   N     N_R   0.181610 0.528880 0.207570 -0.042511
N25   N     N_R   0.605410 0.102620 0.056870 -0.081755
N26   N     N_R   0.605410 0.897380 0.056870 -0.079219
N27   N     N_R   0.105410 0.602620 0.056870 -0.081766
N28   N     N_R   0.105410 0.397380 0.056870 -0.079222
N29   N     N_R   0.549680 0.896430 0.944180 -0.123398
N30   N     N_R   0.549680 0.103570 0.944180 -0.115873
N31   N     N_R   0.049680 0.396430 0.944180 -0.123311
N32   N     N_R   0.049680 0.603570 0.944180 -0.115882
Ni1   Ni    Ni4+2 0.433410 0.064680 0.868830 0.293246
Ni2   Ni    Ni4+2 0.433410 0.935320 0.868830 0.284077
Ni3   Ni    Ni4+2 0.933410 0.564680 0.868830 0.293252
Ni4   Ni    Ni4+2 0.933410 0.435320 0.868830 0.284026
Ni5   Ni    Ni4+2 0.565650 0.934380 0.131170 0.238588
Ni6   Ni    Ni4+2 0.565650 0.065620 0.131170 0.240861
Ni7   Ni    Ni4+2 0.065650 0.434380 0.131170 0.238595
Ni8   Ni    Ni4+2 0.065650 0.565620 0.131170 0.240828
C101  C     C_2   0.875056 0.966245 0.489605 1.067356
O1    O     O_2   0.892495 0.917295 0.499955 -0.631024
O2    O     O_R   0.800776 0.984919 0.491748 -0.823486
H57   H     H_    0.766638 0.953930 0.501674 0.322126
C102  C     C_2   0.966848 0.055721 0.248927 1.053247
O3    O     O_2   0.001140 0.022935 0.220617 -0.617829
O4    O     O_R   0.914886 0.099779 0.180887 -0.806403
H58   H     H_    0.909878 0.099751 0.110221 0.332234
C103  C     C_2   0.375165 0.465934 0.489472 1.067356
O5    O     O_2   0.392768 0.417009 0.499726 -0.630830
O6    O     O_R   0.300773 0.484432 0.491569 -0.823631
H59   H     H_    0.266692 0.453348 0.501345 0.322019
C104  C     C_2   0.466753 0.556021 0.249057 1.053178
O7    O     O_2   0.501031 0.523337 0.220556 -0.617999
O8    O     O_R   0.414770 0.600138 0.181244 -0.806457
H60   H     H_    0.409733 0.600239 0.110558 0.332286
F1    F     F_    0.078622 0.900301 0.534387 -0.724094
F2    F     F_    0.135645 0.933339 0.442524 -0.689494
F3    F     F_    0.578676 0.400294 0.534050 -0.723948
F4    F     F_    0.635775 0.433495 0.442378 -0.689623
C105  C     C_2   0.099427 0.854507 0.805067 1.009362
O9    O     O_2   0.106440 0.904633 0.809014 -0.645442
O10   O     O_R   0.045111 0.827837 0.704356 -0.756075
H61   H     H_    0.017894 0.854216 0.640823 0.401294
C106  C     C_2   0.326731 0.257798 0.912119 1.037006
O11   O     O_2   0.404786 0.238354 0.953966 -0.621550
O12   O     O_R   0.292278 0.295681 0.826787 -0.764138
H62   H     H_    0.337605 0.302769 0.806017 0.345445
C107  C     C_2   0.599475 0.354456 0.805012 1.008927
O13   O     O_2   0.606379 0.404586 0.808899 -0.645542
O14   O     O_R   0.545356 0.327745 0.704333 -0.756122
H63   H     H_    0.518231 0.354099 0.640773 0.401286
C108  C     C_2   0.826039 0.757720 0.911288 1.036742
O15   O     O_2   0.904237 0.738475 0.953191 -0.621223
O16   O     O_R   0.791126 0.795357 0.825496 -0.763734
H64   H     H_    0.836283 0.802450 0.804484 0.345587
F5    F     F_    0.440195 0.860575 0.196258 -0.750614
F6    F     F_    0.449206 0.150652 0.193786 -0.713230
F7    F     F_    0.940199 0.360547 0.196245 -0.750520
F8    F     F_    0.949246 0.650693 0.193777 -0.713290
C109  C     C_2   0.489784 0.099981 0.687335 1.084062
O17   O     O_2   0.410742 0.118572 0.641896 -0.575744
O18   O     O_R   0.557761 0.127715 0.681565 -0.799246
H65   H     H_    0.533890 0.163551 0.639698 0.356018
C110  C     C_2   0.493634 0.901087 0.692425 1.074564
O19   O     O_2   0.554976 0.878239 0.691286 -0.611140
O20   O     O_R   0.403027 0.878204 0.637658 -0.731049
H66   H     H_    0.396955 0.842189 0.600822 0.362319
C111  C     C_2   0.989955 0.599979 0.687456 1.083699
O21   O     O_2   0.910939 0.618611 0.641994 -0.575725
O22   O     O_R   0.057981 0.627653 0.681693 -0.798936
H67   H     H_    0.034175 0.663496 0.639836 0.355923
C112  C     C_2   0.993201 0.401157 0.691974 1.075830
O23   O     O_2   0.054235 0.378322 0.690213 -0.611075
O24   O     O_R   0.902579 0.378332 0.637598 -0.731082
H68   H     H_    0.896225 0.342365 0.600475 0.362285
F9    F     F_    0.487424 0.822431 0.818891 -0.684202
F10   F     F_    0.480931 0.175483 0.817953 -0.695062
F11   F     F_    0.987655 0.322462 0.818806 -0.684313
F12   F     F_    0.980920 0.675492 0.817972 -0.694928

loop_
_geom_bond_atom_site_label_1
_geom_bond_atom_site_label_2
_ccdc_geom_bond_type
C68   C80   A    
C30   C32   S    
N15   N16   A    
C82   N14   A    
C111  O22   S    
C58   C62   A    
N9    N10   A    
C65   C79   A    
C23   H55   S    
C63   C88   S    
N13   N14   A    
C37   C88   A    
O12   H62   S    
N10   Ni5   S    
C41   C61   A    
O4    H58   S    
N9    Ni6   S    
C13   C79   S    
C53   C59   A    
C43   C63   A    
N29   Ni2   S    
C48   H20   S    
C54   C60   A    
C103  O5    D    
C44   C64   A    
C3    H3    S    
C83   C92   A    
C21   C31   S    
N14   Ni1   S    
C112  O23   D    
C35   N5    A    
N21   Ni5   S    
C6    N26   A    
N32   Ni3   S    
C12   F12   S    
C56   H24   S    
C76   H38   S    
C8    H52   S    
C94   C110  S    
C28   H12   S    
C9    N29   A    
N2    Ni2   S    
C71   H35   S    
C35   C86   A    
C49   C53   A    
N20   Ni4   S    
C40   H15   S    
C5    C17   A    
C84   H44   S    
C10   C17   A    
C36   F6    S    
O20   H66   S    
C12   N32   A    
C5    H49   S    
C46   H18   S    
C68   H32   S    
C110  O19   D    
N11   Ni8   S    
C14   C96   A    
C101  O2    S    
C95   N19   A    
C43   C107  S    
C99   H47   S    
N2    N5    A    
C107  O14   S    
C30   F3    S    
C97   N21   A    
C33   C39   S    
C61   C86   S    
O18   H65   S    
C93   C109  S    
C39   H13   S    
N12   Ni7   S    
C83   N15   A    
N17   Ni1   S    
C11   F11   S    
C76   N10   A    
C35   F5    S    
C14   C80   S    
C98   N22   A    
C42   C106  S    
C24   C28   S    
C26   H10   S    
C64   C87   S    
C51   C55   A    
N24   Ni8   S    
C2    N2    A    
C76   C89   A    
C37   N7    A    
C16   C34   S    
C8    N28   A    
C47   H19   S    
C54   H22   S    
C38   F8    S    
C27   H11   S    
O2    H57   S    
N16   Ni3   S    
C111  O21   D    
C36   N6    A    
C10   N30   A    
C102  O4    S    
C66   C79   A    
C37   F7    S    
C96   C112  S    
C15   C97   A    
C24   H56   S    
C5    N25   A    
C44   C46   A    
C60   C64   A    
C104  O7    D    
C23   C27   S    
C103  O6    S    
C27   C34   S    
C1    C85   A    
C6    C18   A    
C62   C85   S    
C55   H23   S    
C77   C90   A    
C112  O24   S    
N27   Ni8   S    
C22   C31   S    
C3    C87   A    
O6    H59   S    
N4    N7    A    
N3    Ni3   S    
O24   H68   S    
C26   C102  S    
C25   C101  S    
N4    Ni4   S    
C72   C74   A    
C75   H37   S    
C17   C49   S    
N11   N12   A    
C75   C89   A    
C16   C100  A    
C42   C48   A    
C98   H46   S    
C105  O9    D    
N17   N18   A    
C31   C91   S    
C11   C20   A    
C78   C90   A    
C82   C91   A    
N23   N24   A    
C13   C93   A    
C110  O20   S    
N26   N29   A    
C81   C91   A    
C44   C108  S    
C24   C32   S    
O8    H60   S    
C99   N23   A    
C108  O15   D    
N13   Ni2   S    
C65   H29   S    
C106  O11   D    
N22   Ni6   S    
C26   C33   S    
C29   F1    S    
O14   H63   S    
N7    Ni7   S    
C68   C72   A    
C39   H14   S    
C23   H7    S    
C81   H41   S    
C29   C39   S    
C70   C73   A    
C107  O13   D    
C41   C47   A    
C13   C94   A    
C30   C40   S    
C1    N1    A    
C3    N3    A    
N26   Ni5   S    
C50   C54   A    
C69   C73   A    
N25   Ni6   S    
C43   C45   A    
N31   Ni4   S    
C42   C62   A    
N28   N31   A    
C24   H8    S    
C8    C20   A    
C94   N18   A    
C58   H26   S    
C7    C19   A    
C109  O18   S    
C108  O16   S    
C11   N31   A    
C59   C63   A    
C105  O10   S    
C15   C98   A    
C100  N24   A    
C1    H1    S    
C14   C95   A    
N18   Ni2   S    
C18   C50   S    
C22   H54   S    
C45   H17   S    
O10   H61   S    
C21   C25   S    
C30   F4    S    
C69   H33   S    
C96   N20   A    
C10   F10   S    
C97   H45   S    
C67   H31   S    
C67   C80   A    
C77   H39   S    
C60   H28   S    
C84   N16   A    
N6    Ni6   S    
C78   H40   S    
C4    N4    A    
C71   C74   A    
C47   C51   A    
N25   N30   A    
N8    Ni8   S    
C16   C99   A    
C57   C61   A    
C4    C88   A    
C25   H9    S    
C36   C85   A    
C77   N11   A    
N28   Ni7   S    
C20   C52   S    
C46   C50   A    
C78   N12   A    
C81   N13   A    
C102  O3    D    
C7    N27   A    
C38   C87   A    
N23   Ni7   S    
C23   C32   S    
C74   C90   S    
N30   Ni1   S    
C55   C57   A    
C28   C104  S    
C73   C89   S    
C106  O12   S    
N19   N20   A    
C22   H6    S    
N27   N32   A    
C95   C111  S    
C57   H25   S    
C83   H43   S    
C9    F9    S    
C29   F2    S    
C40   H16   S    
N15   Ni4   S    
C100  H48   S    
C65   C69   A    
C4    H4    S    
C12   C19   A    
C93   N17   A    
C104  O8    S    
C56   C58   A    
C45   C49   A    
C2    C86   A    
C75   N9    A    
C67   C71   A    
C101  O1    D    
C38   N8    A    
N19   Ni3   S    
N1    Ni1   S    
C72   H36   S    
N5    Ni5   S    
C32   C92   S    
C28   C34   S    
C82   H42   S    
C6    H50   S    
C19   C51   S    
C9    C18   A    
C48   C52   A    
C7    H51   S    
C66   C70   A    
C29   C31   S    
N21   N22   A    
C22   C26   S    
O16   H64   S    
C70   H34   S    
C2    H2    S    
N3    N8    A    
C34   C40   S    
C53   H21   S    
C21   H53   S    
C84   C92   A    
C27   C103  S    
C109  O17   D    
C59   H27   S    
N1    N6    A    
C15   C33   S    
C21   H5    S    
C52   C56   A    
O22   H67   S    
C25   C33   S    
C41   C105  S    
C66   H30   S    
