data_mof_unit_67032.cif
_audit_creation_date              2013-03-05T15:58:15-0500
_audit_creation_method            fapswitch 2.2
_symmetry_space_group_name_H-M    P1
_symmetry_Int_Tables_number       1
_space_group_crystal_system       triclinic
_cell_length_a                    8.221039
_cell_length_b                    12.765588
_cell_length_c                    14.604637
_cell_angle_alpha                 93.306121
_cell_angle_beta                  91.152209
_cell_angle_gamma                 98.272023
_cell_volume                      1513.60759069

loop_
_atom_site_label
_atom_site_type_symbol
_atom_site_description
_atom_site_fract_x
_atom_site_fract_y
_atom_site_fract_z
_atom_type_partial_charge
P1    P     P_3+3 0.054400 0.427280 0.286870 0.469587
O1    O     O_2   0.887370 0.460630 0.272300 -0.373367
O2    O     O_3   0.129410 0.451380 0.388510 -0.408345
O3    O     O_3   0.670210 0.653170 0.329170 -0.394258
O4    O     O_2   0.791305 0.598507 0.171341 -0.342401
O5    O     O_3   0.012690 0.290350 0.260933 -0.553890
O6    O     O_3   0.706325 0.788796 0.185711 -0.496169
H1    H     H_    0.731247 0.850549 0.319887 0.125094
C1    C     C_3   0.685304 0.970124 0.229605 -0.074908
H2    H     H_    0.701742 0.024492 0.292434 0.079169
H3    H     H_    0.799157 0.983252 0.190183 0.131077
P2    P     P_3+3 0.668300 0.742890 0.573060 0.452697
P3    P     P_3+3 0.134810 0.843197 0.386951 0.437377
O7    O     O_2   0.845380 0.761330 0.544970 -0.367951
O8    O     O_3   0.088930 0.704860 0.376040 -0.388380
O9    O     O_2   0.021805 0.884958 0.459143 -0.378500
O10   O     O_3   0.672570 0.752697 0.691872 -0.583909
O11   O     O_3   0.072664 0.896581 0.287109 -0.559438
C2    C     C_3   0.120999 0.837541 0.211459 0.382101
H4    H     H_    0.046975 0.757240 0.205450 0.131898
H5    H     H_    0.253571 0.829109 0.218008 0.067519
C3    C     C_3   0.091322 0.895163 0.125068 -0.301393
H6    H     H_    0.958074 0.884329 0.106888 0.227032
H7    H     H_    0.135128 0.981437 0.136274 0.271546
C4    C     C_3   0.231714 0.757826 0.649586 0.426730
H8    H     H_    0.337336 0.721709 0.623606 0.109880
H9    H     H_    0.132289 0.748734 0.596185 0.141163
C5    C     C_3   0.284966 0.875401 0.674581 -0.998985
H10   H     H_    0.395681 0.885113 0.720885 0.253978
H11   H     H_    0.313934 0.920120 0.612773 0.245675
H12   H     H_    0.185430 0.909851 0.710674 0.277574
Ba1   Ba    Ba6+2 0.855630 0.555280 0.454520 1.546345
C6    C     C_3   0.977727 0.234040 0.339434 0.346364
H13   H     H_    0.842798 0.216472 0.344529 0.082642
H14   H     H_    0.031215 0.274492 0.404584 0.137707
C7    C     C_3   0.047079 0.130759 0.327148 -0.859372
H15   H     H_    0.998309 0.087857 0.262586 0.248792
H16   H     H_    0.015702 0.081239 0.386083 0.240894
H17   H     H_    0.181826 0.147235 0.320635 0.283213
C8    C     C_3   0.730971 0.666314 0.726952 0.289921
H18   H     H_    0.853091 0.657864 0.700280 0.114864
H19   H     H_    0.643123 0.592630 0.710182 0.110511
C9    C     C_3   0.740006 0.687244 0.830006 -0.322007
H20   H     H_    0.752280 0.611940 0.862203 0.210867
H21   H     H_    0.623033 0.714396 0.850629 0.243009
P4    P     P_3+3 0.135310 0.572810 0.713130 0.444321
O12   O     O_2   0.302330 0.539400 0.727760 -0.360267
O13   O     O_3   0.060300 0.548700 0.611500 -0.411084
O14   O     O_3   0.519500 0.346920 0.670840 -0.376051
O15   O     O_3   0.175548 0.711103 0.729120 -0.590559
P5    P     P_3+3 0.067607 0.158796 0.626937 0.471712
O16   O     O_3   0.614310 0.373510 0.452640 -0.395075
O17   O     O_3   0.100780 0.295230 0.623970 -0.374075
O18   O     O_2   0.204765 0.117012 0.570708 -0.368123
O19   O     O_3   0.111939 0.132674 0.740866 -0.534921
Ba2   Ba    Ba6+2 0.334200 0.444810 0.545490 1.555737
P6    P     P_3+3 0.654144 0.656375 0.212517 0.533262
C10   C     C_3   0.655862 0.855134 0.256544 0.232424
H22   H     H_    0.523900 0.832080 0.271119 0.035190
O20   O     O_3   0.575400 0.626570 0.547370 -0.397306
C11   C     C_3   0.479116 0.313096 0.265079 0.325877
H23   H     H_    0.362859 0.335962 0.291675 0.097674
H24   H     H_    0.581235 0.379268 0.279933 0.127381
C12   C     C_3   0.460132 0.292682 0.161569 -0.724651
H25   H     H_    0.355386 0.228857 0.144714 0.304631
H26   H     H_    0.436244 0.365754 0.129283 0.204206
H27   H     H_    0.574471 0.268216 0.133386 0.250584
P7    P     P_3+3 0.527235 0.241619 0.423057 0.434820
O21   O     O_2   0.344320 0.238700 0.455090 -0.373710
O22   O     O_3   0.513702 0.220292 0.303619 -0.538184
C13   C     C_3   0.036735 0.201776 0.799948 0.322435
H28   H     H_    0.111699 0.281996 0.805487 0.153944
H29   H     H_    0.911726 0.210523 0.773964 -0.045574
C14   C     C_3   0.016203 0.156930 0.894964 -0.130863
H30   H     H_    0.914351 0.189625 0.930255 0.067050
H31   H     H_    0.981761 0.069128 0.887641 0.128980
P8    P     P_3+3 0.543935 0.349715 0.791006 0.510399
C15   C     C_3   0.518146 0.144441 0.785902 0.410691
H32   H     H_    0.640458 0.167497 0.756289 -0.003153
O23   O     O_2   0.434997 0.428785 0.831606 -0.326595
O24   O     O_3   0.452561 0.229156 0.830611 -0.449094
H33   H     H_    0.432092 0.108590 0.729038 0.143562
H34   H     H_    0.619524 0.096935 0.913784 0.268404
C16   C     C_3   0.534832 0.061833 0.855712 -0.852221
H35   H     H_    0.584997 0.993077 0.823569 0.188566
H36   H     H_    0.412402 0.031788 0.882013 0.307186
C17   C     C_R   0.990967 0.440078 0.058872 -0.013530
C18   C     C_R   0.180093 0.498357 0.197348 0.276850
C19   C     C_R   0.331207 0.554061 0.229802 -0.579052
C20   C     C_R   0.447607 0.596995 0.169618 0.135454
C21   C     C_R   0.410492 0.593073 0.076440 0.247631
C22   C     C_R   0.251013 0.551382 0.041051 -0.096619
C23   C     C_R   0.138259 0.495459 0.099994 -0.063608
H37   H     H_    0.363518 0.557723 0.302237 0.194877
C24   C     C_R   0.061045 0.505311 0.904755 -0.016840
C25   C     C_R   0.954230 0.441909 0.962988 0.061148
C26   C     C_R   0.015220 0.503818 0.807031 0.249856
C27   C     C_R   0.866615 0.444929 0.775300 -0.545238
C28   C     C_R   0.757300 0.392793 0.834260 0.222191
C29   C     C_R   0.804388 0.385693 0.926180 -0.210827
C30   C     C_R   0.204026 0.566836 0.948448 0.259477
H38   H     H_    0.718598 0.341966 0.970534 0.166840
H39   H     H_    0.829520 0.445684 0.703823 0.172170
H40   H     H_    0.903953 0.394100 0.100898 0.145450
C31   C     C_R   0.777234 0.176816 0.527824 -0.545761
C32   C     C_R   0.435390 0.815411 0.464464 -0.533881
C33   C     C_R   0.411977 0.994756 0.430823 -0.138581
C34   C     C_R   0.347515 0.887919 0.426592 0.212373
C35   C     C_R   0.577245 0.849265 0.518434 0.304933
C36   C     C_R   0.641961 0.960641 0.528579 -0.091810
C37   C     C_R   0.561087 0.032643 0.478855 -0.123124
C38   C     C_R   0.626649 0.141752 0.482260 0.263969
C39   C     C_R   0.859259 0.108063 0.575996 0.223348
C40   C     C_R   0.781273 0.004381 0.586365 0.170647
H41   H     H_    0.341241 0.047380 0.398261 0.194327
H42   H     H_    0.831046 0.259106 0.525833 0.174374
H43   H     H_    0.385061 0.732080 0.458106 0.173479
C41   C     C_3   0.879837 0.774436 0.864513 -0.744180
H44   H     H_    0.957896 0.737745 0.913158 0.239038
H45   H     H_    0.954235 0.808493 0.807654 0.252544
H46   H     H_    0.831565 0.840773 0.904781 0.266074
N1    N     N_R   0.548664 0.995329 0.174071 0.269228
O25   O     O_R   0.418083 0.019252 0.214331 -0.415418
O26   O     O_R   0.569760 0.015443 0.088343 -0.375274
C42   C     C_3   0.179668 0.850756 0.045371 -0.915517
H47   H     H_    0.156923 0.891866 0.981945 0.293166
H48   H     H_    0.314702 0.860565 0.060826 0.308276
H49   H     H_    0.131081 0.764902 0.035631 0.241469
N2    N     N_R   0.165846 0.184852 0.951848 0.290673
O27   O     O_R   0.230502 0.111180 0.991373 -0.381296
O28   O     O_R   0.220864 0.284030 0.974291 -0.388586
N3    N     N_R   0.544586 0.613740 0.016789 0.235566
O29   O     O_R   0.624201 0.709589 0.016229 -0.404834
O30   O     O_R   0.619635 0.534241 0.992288 -0.423203
C43   C     C_3   0.287836 0.664494 0.906493 -0.867769
H50   H     H_    0.196640 0.709781 0.880390 0.258020
H51   H     H_    0.355740 0.723451 0.956357 0.239111
H52   H     H_    0.376049 0.644002 0.856009 0.289258
C44   C     C_3   0.814359 0.958843 0.675801 -0.840156
H53   H     H_    0.859580 0.019202 0.730626 0.209674
H54   H     H_    0.694971 0.927573 0.702970 0.243720
H55   H     H_    0.903340 0.901704 0.668770 0.280405

loop_
_geom_bond_atom_site_label_1
_geom_bond_atom_site_label_2
_geom_bond_distance
_ccdc_geom_bond_type
C11   O22   1.403054 S    
C43   H52   1.091703 S    
C31   H42   1.081835 S    
C24   C25   1.433323 A    
P3    O9    1.541418 D    
C26   C27   1.394705 A    
C43   H50   1.086396 S    
C4    C5    1.522812 S    
P5    C39   1.865670 S    
C14   H31   1.114242 S    
P3    O11   1.742549 S    
C31   C39   1.393718 A    
C5    H10   1.110962 S    
C2    H5    1.113251 S    
C16   H36   1.108673 S    
P1    O1    1.509640 D    
C44   H55   1.107078 S    
P8    O23   1.544321 D    
C27   H39   1.082596 S    
C25   C29   1.412787 A    
C6    C7    1.512837 S    
O1    Ba1   2.891029 S    
O11   C2    1.397995 S    
P7    C38   1.854546 S    
C19   H37   1.082259 S    
C11   H24   1.110360 S    
C41   H44   1.114667 S    
Ba1   O16   2.826077 S    
H1    C10   1.112174 S    
C36   C37   1.430966 A    
C8    C9    1.511805 S    
H34   C16   1.116919 S    
N3    O29   1.302509 A    
P2    O10   1.731790 S    
C42   H49   1.111178 S    
C33   C34   1.387704 A    
C1    H2    1.111986 S    
C36   C40   1.434732 A    
O6    C10   1.405968 S    
O16   P7    1.758032 S    
P1    C18   1.876650 S    
C8    H19   1.112284 S    
C43   H51   1.099066 S    
P2    Ba1   3.434388 S    
Ba1   Ba2   4.564566 S    
Ba1   O13   2.828801 S    
C11   H23   1.109808 S    
P3    C34   1.831071 S    
P2    C35   1.853177 S    
C6    H13   1.104510 S    
C41   H45   1.112759 S    
C30   C43   1.504082 S    
P4    O13   1.591835 S    
P6    C20   1.839098 S    
P1    O5    1.749993 S    
C12   H27   1.111642 S    
O8    Ba1   2.815216 S    
C2    C3    1.529316 S    
C16   H35   1.106901 S    
C14   H30   1.110886 S    
C21   C22   1.417584 A    
C13   H29   1.111253 S    
C15   H32   1.109856 S    
P7    O21   1.579783 D    
C3    C42   1.509960 S    
C21   N3    1.423124 S    
C4    H8    1.103989 S    
C7    H17   1.104499 S    
P1    Ba1   3.435544 S    
Ba2   O20   2.825410 S    
P1    O2    1.591958 S    
C41   H46   1.126554 S    
C12   H26   1.109388 S    
O3    P6    1.709428 S    
C11   C12   1.520181 S    
C9    H20   1.110642 S    
C4    O15   1.392981 S    
C1    H3    1.106025 S    
O2    Ba2   2.829356 S    
C15   H33   1.113112 S    
C28   C29   1.401246 A    
P8    O24   1.747827 S    
C17   C25   1.428819 A    
C29   H38   1.084166 S    
C1    N1    1.456244 S    
P4    O12   1.510006 D    
C40   C44   1.495594 S    
C9    H21   1.109560 S    
C33   H41   1.074124 S    
O3    Ba1   2.817156 S    
C22   C30   1.431400 A    
N3    O30   1.298377 A    
C8    H18   1.101514 S    
P4    C26   1.890669 S    
P2    O7    1.509823 D    
Ba2   O21   2.887821 S    
P3    O8    1.749205 S    
C32   H43   1.082513 S    
C42   H47   1.116142 S    
C3    H7    1.110027 S    
C10   H22   1.110627 S    
Ba1   O20   2.925927 S    
N1    O26   1.302533 A    
C19   C20   1.388226 A    
C39   C40   1.403082 A    
O17   Ba2   2.815800 S    
O13   Ba2   2.925358 S    
C18   C23   1.453204 A    
C1    C10   1.528514 S    
C37   C38   1.417014 A    
C33   C37   1.408671 A    
C31   C38   1.395993 A    
C5    H12   1.111314 S    
O7    Ba1   2.887619 S    
C13   C14   1.534632 S    
C44   H53   1.098846 S    
C24   C26   1.467114 A    
C4    H9    1.107458 S    
O14   Ba2   2.816571 S    
P4    O15   1.749823 S    
C24   C30   1.432528 A    
O5    C6    1.400923 S    
O4    P6    1.547438 D    
P5    O18   1.545990 D    
C12   H25   1.110137 S    
C2    H4    1.112119 S    
C5    H11   1.107427 S    
N2    O27   1.301666 A    
C13   H28   1.114399 S    
C35   C36   1.442685 A    
C44   H54   1.096047 S    
C15   O24   1.409628 S    
C20   C21   1.385093 A    
C32   C34   1.385622 A    
C7    H15   1.100826 S    
C17   C23   1.414989 A    
C7    H16   1.109858 S    
C22   C23   1.422151 A    
C6    H14   1.107481 S    
O14   P8    1.760145 S    
P8    C28   1.848263 S    
P5    O19   1.757040 S    
O2    Ba1   2.924597 S    
O6    P6    1.751932 S    
C9    C41   1.535636 S    
C17   H40   1.082284 S    
P2    O20   1.589611 S    
C15   C16   1.526560 S    
C18   C19   1.398892 A    
P7    O22   1.748705 S    
C27   C28   1.384624 A    
C14   N2    1.459197 S    
P4    Ba2   3.435994 S    
C42   H48   1.116092 S    
C3    H6    1.109090 S    
P5    O17   1.726885 S    
N1    O25   1.300160 A    
O10   C8    1.384409 S    
O19   C13   1.412628 S    
O16   Ba2   2.925147 S    
O12   Ba2   2.891574 S    
N2    O28   1.302432 A    
C32   C35   1.395276 A    
