data_mof_unit_56914.cif
_audit_creation_date              2012-12-10T18:57:42-0500
_audit_creation_method            fapswitch 2.2
_symmetry_space_group_name_H-M    P1
_symmetry_Int_Tables_number       1
_space_group_crystal_system       triclinic
_cell_length_a                    10.916224
_cell_length_b                    10.74791
_cell_length_c                    9.655587
_cell_angle_alpha                 89.664674
_cell_angle_beta                  90.045686
_cell_angle_gamma                 90.823205
_cell_volume                      1132.72051411

loop_
_atom_site_label
_atom_site_type_symbol
_atom_type_description
_atom_site_fract_x
_atom_site_fract_y
_atom_site_fract_z
_atom_type_partial_charge
C1    C     C_R   0.498762 0.262833 0.499980 0.827512
C2    C     C_R   0.495053 0.129294 0.497305 -0.057461
C3    C     C_R   0.405376 0.062166 0.571202 -0.159668
C4    C     C_R   0.407515 0.932421 0.572690 -0.203753
C5    C     C_R   0.497712 0.870318 0.497573 -0.092700
C6    C     C_R   0.577178 0.937648 0.411508 -0.007297
C7    C     C_3   0.714481 0.934530 0.405207 -0.249279
C8    C     C_3   0.712269 0.077104 0.401187 -0.102436
C9    C     C_R   0.549036 0.597797 0.072521 0.269655
C10   C     C_R   0.446107 0.405532 0.074711 -0.002185
C11   C     C_R   0.445597 0.405893 0.926733 0.019940
C12   C     C_R   0.265658 0.498450 0.499989 0.854048
C13   C     C_R   0.554839 0.595166 0.925671 0.178410
C14   C     C_3   0.519440 0.728249 0.913626 -0.425268
C15   C     C_3   0.500729 0.728325 0.068587 -0.087443
C16   C     C_R   0.501305 0.737089 0.499609 0.794194
C17   C     C_R   0.734352 0.501702 0.500133 0.884412
C18   C     C_2   0.932890 0.499505 0.386259 -0.109707
C19   C     C_2   0.866618 0.508441 0.502421 -0.296186
C20   C     C_2   0.067044 0.505728 0.386388 -0.135090
C21   C     C_2   0.133409 0.491767 0.502080 -0.303653
C22   C     C_R   0.575609 0.066144 0.411519 0.124467
Cu1   Cu    Cu3+1 0.499990 0.499980 0.640670 0.983196
Cu2   Cu    Cu3+1 0.500010 0.500020 0.359330 0.993792
H1    H     H_    0.888021 0.489477 0.286394 0.189461
H2    H     H_    0.741733 0.122911 0.303009 0.225381
H3    H     H_    0.597639 0.788356 0.879579 0.175115
H4    H     H_    0.433510 0.741970 0.853830 0.235565
H5    H     H_    0.557658 0.798190 0.124327 0.186036
H6    H     H_    0.908076 0.523968 0.602766 0.144375
H7    H     H_    0.111833 0.520348 0.287068 0.203471
H8    H     H_    0.092054 0.472426 0.601839 0.170853
H9    H     H_    0.335283 0.109582 0.628580 0.165090
H10   H     H_    0.340273 0.880823 0.633298 0.150235
H11   H     H_    0.755889 0.895010 0.500980 0.131243
N1    N     N_R   0.500780 0.500930 0.147930 -0.237380
N2    N     N_R   0.500780 0.500890 0.852020 -0.226181
O1    O     O_R   0.500000 0.319640 0.618810 -0.568876
O2    O     O_R   0.500010 0.319680 0.381230 -0.580243
O3    O     O_R   0.321940 0.499980 0.618760 -0.554781
O4    O     O_R   0.321950 0.500020 0.381180 -0.565350
O5    O     O_R   0.499990 0.680320 0.618770 -0.597278
O6    O     O_R   0.500000 0.680360 0.381190 -0.588047
O7    O     O_R   0.678050 0.499980 0.618820 -0.583718
O8    O     O_R   0.678060 0.500020 0.381240 -0.553794
C23   C     C_2   0.375811 0.306047 0.146569 0.911761
O9    O     O_2   0.274122 0.327149 0.192709 -0.596255
O10   O     O_R   0.422290 0.185548 0.151803 -0.742139
H12   H     H_    0.364679 0.124515 0.200076 0.322654
C24   C     C_2   0.374799 0.306897 0.856754 0.897603
O11   O     O_2   0.415087 0.201410 0.854021 -0.589326
O12   O     O_R   0.257221 0.330906 0.807262 -0.754972
H13   H     H_    0.215516 0.254420 0.766993 0.308923
N3    N     N_3   0.369691 0.734149 0.100434 -0.559126
H14   H     H_    0.354655 0.711549 0.204049 0.263362
H15   H     H_    0.343089 0.826626 0.087952 0.232686
C25   C     C_2   0.760017 0.872831 0.275691 0.841002
O13   O     O_2   0.764598 0.759342 0.272213 -0.611949
O14   O     O_R   0.797905 0.943331 0.160883 -0.763700
H16   H     H_    0.825576 0.889687 0.081076 0.329515
N4    N     N_3   0.768083 0.135299 0.523291 -0.589819
H17   H     H_    0.862740 0.123072 0.516946 0.235838
H18   H     H_    0.738084 0.090156 0.613728 0.245263

loop_
_geom_bond_atom_site_label_1
_geom_bond_atom_site_label_2
_ccdc_geom_bond_type
C10   C23   S    
C9    N1    A    
C8    C22   S    
Cu1   Cu2   S    
N3    H15   S    
C12   O3    A    
C12   O4    A    
C15   H5    S    
C13   C14   S    
C14   H3    S    
Cu1   O1    S    
C8    H2    S    
N3    H14   S    
C24   O12   S    
C14   C15   S    
C8    N4    S    
C2    C3    A    
C9    C15   S    
C17   O7    A    
C7    C8    S    
C11   C24   S    
C2    C22   A    
O12   H13   S    
Cu2   O4    S    
Cu1   O5    S    
C16   O6    A    
C25   O13   D    
Cu2   N1    S    
C18   H1    S    
C7    H11   S    
C1    O1    A    
C5    C6    A    
Cu2   O8    S    
O10   H12   S    
C17   C19   S    
C17   O8    A    
C24   O11   D    
C6    C7    S    
C18   C20   S    
N4    H17   S    
C21   H8    S    
C4    H10   S    
C25   O14   S    
C23   O10   S    
C10   C11   A    
C3    H9    S    
C3    C4    A    
C6    C22   A    
C15   N3    S    
C16   O5    A    
O14   H16   S    
Cu2   O2    S    
C20   C21   D    
C11   N2    A    
C1    C2    S    
N4    H18   S    
Cu2   O6    S    
C1    O2    A    
C23   O9    D    
C18   C19   D    
C5    C16   S    
C9    C13   A    
C14   H4    S    
Cu1   N2    S    
C19   H6    S    
C13   N2    A    
C12   C21   S    
C7    C25   S    
Cu1   O7    S    
Cu1   O3    S    
C4    C5    A    
C10   N1    A    
C20   H7    S    
