data_mof_unit_39938.cif
_audit_creation_date              2012-12-11T14:42:22-0500
_audit_creation_method            fapswitch 2.2
_symmetry_space_group_name_H-M    P1
_symmetry_Int_Tables_number       1
_space_group_crystal_system       triclinic
_cell_length_a                    19.004116
_cell_length_b                    10.927229
_cell_length_c                    18.885471
_cell_angle_alpha                 90.106797
_cell_angle_beta                  90.622002
_cell_angle_gamma                 89.959363
_cell_volume                      3921.56202542

loop_
_atom_site_label
_atom_site_type_symbol
_atom_type_description
_atom_site_fract_x
_atom_site_fract_y
_atom_site_fract_z
_atom_type_partial_charge
C1    C     C_R   0.727241 0.956517 0.853700 0.549917
C2    C     C_R   0.247458 0.417648 0.924411 0.027892
C3    C     C_3   0.936411 0.144656 0.377750 -0.353190
C4    C     C_R   0.261458 0.932587 0.070331 0.034704
C5    C     C_R   0.747457 0.917647 0.924411 0.027893
C6    C     C_R   0.818928 0.394965 0.029722 -0.130285
C7    C     C_R   0.207787 0.326541 0.956607 -0.139208
C8    C     C_R   0.318929 0.894964 0.029722 -0.130287
C9    C     C_R   0.707776 0.826555 0.956610 -0.139205
C10   C     C_R   0.813302 0.388668 0.957279 -0.133871
C11   C     C_R   0.211449 0.312138 0.028833 -0.124440
C12   C     C_R   0.313303 0.888667 0.957279 -0.133872
C13   C     C_R   0.274487 0.959577 0.144651 0.548331
C14   C     C_R   0.711437 0.812158 0.028837 -0.124443
C15   C     C_R   0.748696 0.412064 0.923847 0.031487
C16   C     C_R   0.256461 0.386139 0.070221 0.035722
C17   C     C_R   0.248697 0.912067 0.923847 0.031487
C18   C     C_R   0.756459 0.886146 0.070222 0.035721
C19   C     C_R   0.490771 0.278113 0.538613 -0.099749
C20   C     C_R   0.492533 0.280066 0.466649 -0.099815
C21   C     C_R   0.990809 0.778124 0.538601 -0.099661
C22   C     C_R   0.992578 0.780068 0.466637 -0.099741
C23   C     C_R   0.493179 0.170206 0.428420 0.027233
C24   C     C_R   0.227241 0.456518 0.853700 0.549915
C25   C     C_R   0.500529 0.167695 0.574438 0.027615
C26   C     C_R   0.993196 0.670202 0.428413 0.027218
C27   C     C_R   0.000541 0.667704 0.574431 0.027605
C28   C     C_R   0.497984 0.057777 0.463746 -0.143685
C29   C     C_R   0.502507 0.056576 0.537109 -0.141641
C30   C     C_R   0.997980 0.557774 0.463744 -0.143673
C31   C     C_R   0.002502 0.556579 0.537107 -0.141644
C32   C     C_R   0.813804 0.393992 0.543715 -0.191022
C33   C     C_R   0.186177 0.387989 0.457022 -0.191325
C34   C     C_R   0.313805 0.894018 0.543718 -0.191031
C35   C     C_R   0.774486 0.459576 0.144651 0.548332
C36   C     C_R   0.686184 0.887965 0.457028 -0.191320
C37   C     C_R   0.820675 0.405567 0.471708 -0.162679
C38   C     C_R   0.180217 0.397910 0.529248 -0.153534
C39   C     C_R   0.320679 0.905601 0.471711 -0.162684
C40   C     C_R   0.680225 0.897877 0.529254 -0.153486
C41   C     C_R   0.530569 0.177638 0.851201 0.551052
C42   C     C_R   0.469988 0.177618 0.149153 0.552389
C43   C     C_R   0.030569 0.677638 0.851201 0.551058
C44   C     C_R   0.969988 0.677618 0.149153 0.552386
C45   C     C_R   0.762440 0.435866 0.429092 -0.010686
C46   C     C_R   0.697820 0.464327 0.036914 -0.147276
C47   C     C_R   0.237801 0.435283 0.570960 -0.005378
C48   C     C_R   0.262441 0.935867 0.429091 -0.010701
C49   C     C_R   0.737808 0.935260 0.570965 -0.005365
C50   C     C_R   0.697930 0.462953 0.460139 -0.129934
C51   C     C_R   0.300753 0.469290 0.538717 -0.119822
C52   C     C_R   0.197923 0.962913 0.460132 -0.129910
C53   C     C_R   0.800761 0.969264 0.538723 -0.119826
C54   C     C_R   0.690486 0.455671 0.534087 0.263619
C55   C     C_R   0.307215 0.460066 0.465229 0.251161
C56   C     C_R   0.190476 0.955612 0.534077 0.263585
C57   C     C_R   0.295493 0.487773 0.964765 -0.133440
C58   C     C_R   0.807224 0.960036 0.465235 0.251168
C59   C     C_R   0.748408 0.412271 0.575098 0.044284
C60   C     C_R   0.250479 0.412183 0.424690 0.036344
C61   C     C_R   0.248403 0.912255 0.575095 0.044261
C62   C     C_R   0.750485 0.912165 0.424695 0.036343
C63   C     C_R   0.738322 0.364432 0.852669 0.543874
C64   C     C_R   0.263132 0.357667 0.145026 0.546260
C65   C     C_R   0.238322 0.864432 0.852669 0.543871
C66   C     C_R   0.763131 0.857669 0.145026 0.546261
C67   C     C_R   0.725686 0.959884 0.645456 0.554128
C68   C     C_R   0.197822 0.964335 0.036913 -0.147281
C69   C     C_R   0.274397 0.960044 0.354570 0.553301
C70   C     C_R   0.225683 0.459892 0.645453 0.554125
C71   C     C_R   0.774396 0.460043 0.354570 0.553308
C72   C     C_R   0.528827 0.175873 0.645214 0.548007
C73   C     C_R   0.469858 0.176370 0.355775 0.547520
C74   C     C_R   0.028829 0.675874 0.645212 0.548018
C75   C     C_R   0.969862 0.676370 0.355772 0.547522
C76   C     C_R   0.738818 0.362734 0.646122 0.562919
C77   C     C_R   0.260923 0.363014 0.353715 0.563924
C78   C     C_R   0.238816 0.862728 0.646120 0.562916
C79   C     C_R   0.795500 0.987760 0.964763 -0.133441
C80   C     C_R   0.760925 0.863010 0.353716 0.563928
C81   C     C_2   0.499366 0.168381 0.921602 -0.111598
C82   C     C_2   0.502686 0.169536 0.079413 -0.106588
C83   C     C_2   0.999366 0.668381 0.921602 -0.111597
C84   C     C_2   0.002686 0.669536 0.079413 -0.106588
C85   C     C_2   0.495323 0.069248 0.038797 -0.159309
C86   C     C_2   0.511795 0.070081 0.962787 -0.161735
C87   C     C_2   0.995324 0.569248 0.038797 -0.159308
C88   C     C_2   0.011796 0.570082 0.962787 -0.161735
C89   C     C_R   0.691175 0.452901 0.963676 -0.140998
C90   C     C_R   0.761457 0.432585 0.070331 0.034705
C91   C     C_R   0.300279 0.471400 0.037693 -0.140260
C92   C     C_R   0.191177 0.952908 0.963674 -0.141002
C93   C     C_R   0.800285 0.971390 0.037692 -0.140258
C94   C     C_3   0.591927 0.582549 0.538492 -0.022312
C95   C     C_3   0.545154 0.638832 0.594743 -0.359177
C96   C     C_3   0.379382 0.614629 0.430898 -0.017043
C97   C     C_3   0.436396 0.644721 0.377753 -0.353231
C98   C     C_3   0.091978 0.082586 0.538563 -0.022339
C99   C     C_3   0.045226 0.138774 0.594865 -0.359088
C100  C     C_3   0.879409 0.114582 0.430911 -0.017042
Cr1   Cr    Cr6+3 0.769270 0.163730 0.750710 1.008719
Cr2   Cr    Cr6+3 0.385840 0.322500 0.252290 1.034970
Cr3   Cr    Cr6+3 0.114160 0.822500 0.747710 1.044159
Cr4   Cr    Cr6+3 0.885840 0.822500 0.252290 1.034966
Cr5   Cr    Cr6+3 0.230730 0.163730 0.249290 1.008342
Cr6   Cr    Cr6+3 0.269270 0.663730 0.750710 1.008726
Cr7   Cr    Cr6+3 0.730730 0.663730 0.249290 1.008345
Cr8   Cr    Cr6+3 0.612620 0.009790 0.748780 1.007440
Cr9   Cr    Cr6+3 0.387380 0.009790 0.251220 1.003703
Cr10  Cr    Cr6+3 0.112620 0.509790 0.748780 1.007432
Cr11  Cr    Cr6+3 0.887380 0.509790 0.251220 1.003710
Cr12  Cr    Cr6+3 0.614160 0.322500 0.747710 1.044214
H1    H     H_    0.476509 0.984265 0.061321 0.141938
H2    H     H_    0.344759 0.502463 0.570248 0.119353
H3    H     H_    0.153790 0.988979 0.426712 0.107599
H4    H     H_    0.844766 0.002435 0.570255 0.119346
H5    H     H_    0.524517 0.252840 0.057272 0.108022
H6    H     H_    0.474261 0.249288 0.943379 0.109825
H7    H     H_    0.024516 0.752840 0.057272 0.108022
H8    H     H_    0.974261 0.749287 0.943379 0.109824
H9    H     H_    0.640547 0.470536 0.938844 0.128875
H10   H     H_    0.336857 0.526298 0.068563 0.122509
H11   H     H_    0.140549 0.970546 0.938843 0.128871
H12   H     H_    0.535296 0.987881 0.940843 0.154832
H13   H     H_    0.836871 0.026277 0.068559 0.122511
H14   H     H_    0.653518 0.496824 0.067282 0.116931
H15   H     H_    0.326522 0.559356 0.940730 0.135523
H16   H     H_    0.153520 0.996836 0.067281 0.116930
H17   H     H_    0.826536 0.059330 0.940725 0.135517
H18   H     H_    0.869290 0.372430 0.053597 0.127044
H19   H     H_    0.171012 0.270638 0.926535 0.128079
H20   H     H_    0.369290 0.872424 0.053597 0.127042
H21   H     H_    0.670995 0.770661 0.926540 0.128086
H22   H     H_    0.858699 0.357812 0.927917 0.130336
H23   H     H_    0.976511 0.484265 0.061322 0.141938
H24   H     H_    0.179053 0.241556 0.052002 0.138542
H25   H     H_    0.358700 0.857808 0.927917 0.130336
H26   H     H_    0.679032 0.741589 0.052006 0.138542
H27   H     H_    0.487837 0.365114 0.565936 0.156042
H28   H     H_    0.489316 0.368611 0.441244 0.174973
H29   H     H_    0.987888 0.865131 0.565919 0.156116
H30   H     H_    0.989381 0.868614 0.441229 0.174936
H31   H     H_    0.497356 0.971928 0.434972 0.110041
H32   H     H_    0.510009 0.970227 0.564212 0.114219
H33   H     H_    0.997334 0.471922 0.434974 0.110050
H34   H     H_    0.035297 0.487882 0.940844 0.154834
H35   H     H_    0.009986 0.470229 0.564214 0.114203
H36   H     H_    0.859314 0.364831 0.574407 0.132715
H37   H     H_    0.141153 0.354605 0.427049 0.130930
H38   H     H_    0.359318 0.864885 0.574414 0.132718
H39   H     H_    0.641159 0.854585 0.427055 0.130918
H40   H     H_    0.558138 0.554758 0.492972 0.119244
H41   H     H_    0.629615 0.654266 0.521217 0.128869
H42   H     H_    0.577757 0.669548 0.640601 0.165682
H43   H     H_    0.516729 0.719015 0.572333 0.072951
H44   H     H_    0.505977 0.570924 0.613098 0.150461
H45   H     H_    0.872247 0.390724 0.449538 0.138096
H46   H     H_    0.395786 0.650571 0.483710 0.119156
H47   H     H_    0.330150 0.661674 0.413041 0.141788
H48   H     H_    0.419682 0.614325 0.323996 0.161843
H49   H     H_    0.445825 0.744966 0.376862 0.097656
H50   H     H_    0.486195 0.597656 0.392319 0.128682
H51   H     H_    0.058185 0.055013 0.493000 0.119205
H52   H     H_    0.129718 0.154292 0.521376 0.128893
H53   H     H_    0.077837 0.169259 0.640771 0.165679
H54   H     H_    0.016868 0.219099 0.572540 0.072974
H55   H     H_    0.005994 0.070884 0.613126 0.150404
H56   H     H_    0.129692 0.377036 0.552196 0.139340
H57   H     H_    0.895834 0.150510 0.483721 0.119125
H58   H     H_    0.830176 0.161652 0.413071 0.141761
H59   H     H_    0.919667 0.114301 0.323990 0.161830
H60   H     H_    0.945864 0.244902 0.376876 0.097604
H61   H     H_    0.986207 0.097538 0.392290 0.128719
H62   H     H_    0.372255 0.890792 0.449545 0.138113
H63   H     H_    0.629701 0.876995 0.552202 0.139346
H64   H     H_    0.653803 0.489038 0.426715 0.107553
O1    O     O_R   0.784320 0.290430 0.830510 -0.528020
O2    O     O_R   0.456080 0.282180 0.333210 -0.508048
O3    O     O_R   0.043920 0.782180 0.666790 -0.501092
O4    O     O_R   0.956080 0.782180 0.333210 -0.508034
O5    O     O_R   0.679040 0.374160 0.674430 -0.440962
O6    O     O_R   0.320960 0.374160 0.325570 -0.447225
O7    O     O_R   0.179040 0.874160 0.674430 -0.440995
O8    O     O_R   0.820960 0.874160 0.325570 -0.447225
O9    O     O_3   0.665350 0.165340 0.749070 -0.249156
O10   O     O_3   0.334650 0.165340 0.250930 -0.249948
O11   O     O_3   0.165350 0.665340 0.749070 -0.249148
O12   O     O_R   0.215680 0.290430 0.169490 -0.529268
O13   O     O_3   0.834650 0.665340 0.250930 -0.249946
O14   O     O_R   0.762640 0.040960 0.825200 -0.505437
O15   O     O_R   0.237360 0.040960 0.174800 -0.506517
O16   O     O_R   0.262640 0.540960 0.825200 -0.505436
O17   O     O_R   0.737360 0.540960 0.174800 -0.506514
O18   O     O_R   0.667400 0.923970 0.829950 -0.525184
O19   O     O_R   0.332600 0.923970 0.170050 -0.528409
O20   O     O_R   0.167400 0.423970 0.829950 -0.525189
O21   O     O_R   0.832600 0.423970 0.170050 -0.528410
O22   O     O_R   0.553960 0.081340 0.821780 -0.499007
O23   O     O_R   0.284320 0.790430 0.830510 -0.528019
O24   O     O_R   0.446040 0.081340 0.178220 -0.499818
O25   O     O_R   0.053960 0.581340 0.821780 -0.499005
O26   O     O_R   0.946040 0.581340 0.178220 -0.499819
O27   O     O_R   0.543180 0.283240 0.826740 -0.521629
O28   O     O_R   0.456820 0.283240 0.173260 -0.520177
O29   O     O_R   0.043180 0.783240 0.826740 -0.521632
O30   O     O_R   0.956820 0.783240 0.173260 -0.520181
O31   O     O_R   0.678360 0.375140 0.822710 -0.509337
O32   O     O_R   0.321640 0.375140 0.177290 -0.507991
O33   O     O_R   0.178360 0.875140 0.822710 -0.509347
O34   O     O_R   0.715680 0.790430 0.169490 -0.529268
O35   O     O_R   0.821640 0.875140 0.177290 -0.507994
O36   O     O_R   0.785050 0.289380 0.670560 -0.540196
O37   O     O_R   0.214950 0.289380 0.329440 -0.537545
O38   O     O_R   0.285050 0.789380 0.670560 -0.540186
O39   O     O_R   0.714950 0.789380 0.329440 -0.537547
O40   O     O_R   0.763320 0.039990 0.676930 -0.505646
O41   O     O_R   0.236680 0.039990 0.323070 -0.501724
O42   O     O_R   0.263320 0.539990 0.676930 -0.505643
O43   O     O_R   0.736680 0.539990 0.323070 -0.501726
O44   O     O_R   0.668130 0.922920 0.670000 -0.526975
O45   O     O_R   0.554640 0.080370 0.673500 -0.511902
O46   O     O_R   0.331870 0.922920 0.330000 -0.530697
O47   O     O_R   0.168130 0.422920 0.670000 -0.526980
O48   O     O_R   0.831870 0.422920 0.330000 -0.530689
O49   O     O_3   0.626311 0.478292 0.566673 -0.534239
O50   O     O_3   0.370870 0.486480 0.434045 -0.554856
O51   O     O_3   0.126286 0.978165 0.566640 -0.534278
O52   O     O_3   0.870882 0.986433 0.434053 -0.554817
O53   O     O_R   0.445360 0.080370 0.326500 -0.510151
O54   O     O_R   0.054640 0.580370 0.673500 -0.511894
O55   O     O_R   0.945360 0.580370 0.326500 -0.510149
O56   O     O_R   0.543920 0.282180 0.666790 -0.501096

loop_
_geom_bond_atom_site_label_1
_geom_bond_atom_site_label_2
_ccdc_geom_bond_type
C58   C62   A    
C96   H46   S    
C87   C88   S    
C45   C71   S    
C43   C83   S    
Cr5   O15   S    
Cr7   O43   S    
C42   O28   A    
C2    C7    A    
C42   C82   S    
C84   C87   D    
Cr6   O16   S    
C48   C69   S    
C4    C8    A    
C57   C91   A    
C78   O38   A    
C73   O53   A    
C98   H51   S    
C34   H38   S    
C2    C57   A    
C77   O37   A    
C47   C70   S    
C46   C89   A    
C85   C86   S    
C7    C11   A    
C64   O32   A    
C70   O42   A    
Cr10  O25   S    
C69   O41   A    
C55   O50   S    
C62   C80   S    
C67   O44   A    
Cr6   O11   S    
C69   O46   A    
C10   C15   A    
C94   H41   S    
C30   C31   A    
C98   C99   S    
Cr1   O9    S    
C3    H60   S    
C43   O29   A    
C24   O20   A    
Cr1   O40   S    
C94   H40   S    
C40   C49   A    
C79   H17   S    
Cr11  O55   S    
C50   H64   S    
C78   O7    A    
C37   H45   S    
C4    C13   S    
C100  O52   S    
Cr2   O28   S    
Cr10  O54   S    
C94   O49   S    
C65   O23   A    
Cr9   O53   S    
C3    C100  S    
C3    H61   S    
C74   O3    A    
C14   H26   S    
C91   H10   S    
C12   C17   A    
C8    H20   S    
Cr4   O30   S    
C66   O34   A    
C27   C74   S    
C72   O56   A    
C68   H16   S    
Cr3   O3    S    
C81   C86   D    
C56   O51   S    
C53   H4    S    
C74   O54   A    
Cr12  O27   S    
C99   H54   S    
C31   H35   S    
C1    O14   A    
C76   O36   A    
C95   H43   S    
C83   C88   D    
C21   C27   A    
C63   O31   A    
C21   C22   A    
C44   O26   A    
C83   H8    S    
Cr3   O33   S    
C67   O40   A    
C17   C92   A    
C23   C73   S    
C39   H62   S    
C36   C62   A    
Cr10  O47   S    
Cr11  O26   S    
C32   H36   S    
C77   O6    A    
C80   O39   A    
C99   H55   S    
C54   C59   A    
Cr1   O36   S    
C25   C29   A    
Cr10  O11   S    
C60   C77   S    
C51   H2    S    
Cr5   O37   S    
C27   C31   A    
C34   C39   A    
Cr2   O6    S    
C97   H48   S    
C87   H23   S    
Cr8   O9    S    
C36   C40   A    
Cr3   O11   S    
Cr1   O14   S    
C92   H11   S    
Cr12  O9    S    
C28   H31   S    
Cr4   O35   S    
C47   C51   A    
C6    C90   A    
C29   H32   S    
C100  H58   S    
C81   H6    S    
C34   C61   A    
C63   O1    A    
C96   O50   S    
Cr5   O10   S    
C38   H56   S    
C9    C14   A    
C54   O49   S    
C5    C9    A    
C15   C89   A    
C11   C16   A    
C20   C23   A    
C61   C78   S    
C8    C12   A    
C41   C81   S    
C96   C97   S    
Cr7   O13   S    
C44   O30   A    
C70   O47   A    
C24   O16   A    
C25   C72   S    
Cr2   O10   S    
C32   C37   A    
C95   H44   S    
C75   O55   A    
C75   O4    A    
C38   C47   A    
C64   O12   A    
Cr5   O12   S    
C16   C91   A    
C6    H18   S    
C73   O2    A    
C19   H27   S    
Cr6   O42   S    
Cr11  O13   S    
C33   C60   A    
Cr5   O41   S    
C2    C24   S    
Cr2   O2    S    
Cr3   O7    S    
C41   O27   A    
C23   C28   A    
C37   C45   A    
C76   O5    A    
C1    C5    S    
C58   O52   S    
C35   O21   A    
C30   H33   S    
C4    C68   A    
C98   O51   S    
C52   H3    S    
C28   C29   A    
C15   C63   S    
C71   O48   A    
C49   C67   S    
Cr7   O17   S    
Cr4   O8    S    
C100  H57   S    
C56   C61   A    
C65   O33   A    
C14   C18   A    
C46   H14   S    
C10   H22   S    
Cr12  O31   S    
C41   O22   A    
C44   C84   S    
Cr12  O56   S    
C57   H15   S    
C40   H63   S    
C98   H52   S    
C53   C58   A    
C36   H39   S    
C26   C30   A    
Cr12  O5    S    
C46   C90   A    
Cr9   O10   S    
C18   C66   S    
C82   C85   D    
C71   O43   A    
C17   C65   S    
C33   C38   A    
C13   O15   A    
C95   H42   S    
C26   C75   S    
C20   H28   S    
C19   C20   A    
C85   H1    S    
C1    O18   A    
C79   C93   A    
C21   H29   S    
C7    H19   S    
C50   C54   A    
C33   H37   S    
C11   H24   S    
Cr11  O21   S    
Cr6   O38   S    
C86   H12   S    
Cr8   O45   S    
C3    H59   S    
Cr4   O4    S    
C89   H9    S    
C45   C50   A    
C22   H30   S    
C84   H7    S    
C49   C53   A    
Cr4   O13   S    
C32   C59   A    
C42   O24   A    
C68   C92   A    
Cr9   O19   S    
Cr10  O20   S    
C51   C55   A    
Cr11  O48   S    
C80   O8    A    
Cr8   O22   S    
C94   C95   S    
C19   C25   A    
C93   H13   S    
Cr1   O1    S    
C6    C10   A    
C35   O17   A    
C22   C26   A    
Cr8   O44   S    
C35   C90   S    
Cr3   O29   S    
C48   C52   A    
C96   H47   S    
Cr7   O39   S    
C72   O45   A    
Cr8   O18   S    
Cr7   O34   S    
C5    C79   A    
C97   H50   S    
C13   O19   A    
C43   O25   A    
C18   C93   A    
C88   H34   S    
C12   H25   S    
Cr6   O23   S    
Cr9   O24   S    
C16   C64   S    
C82   H5    S    
C66   O35   A    
C55   C60   A    
Cr2   O32   S    
C59   C76   S    
Cr9   O46   S    
C52   C56   A    
C97   H49   S    
C39   C48   A    
C99   H53   S    
C9    H21   S    
