data_mof_unit_11177.cif
_audit_creation_date              2012-12-10T16:35:15-0500
_audit_creation_method            fapswitch 2.2
_symmetry_space_group_name_H-M    P1
_symmetry_Int_Tables_number       1
_space_group_crystal_system       triclinic
_cell_length_a                    10.906867
_cell_length_b                    10.886199
_cell_length_c                    10.886417
_cell_angle_alpha                 80.343322
_cell_angle_beta                  98.302014
_cell_angle_gamma                 89.844098
_cell_volume                      1260.44161002

loop_
_atom_site_label
_atom_site_type_symbol
_atom_type_description
_atom_site_fract_x
_atom_site_fract_y
_atom_site_fract_z
_atom_type_partial_charge
C1    C     C_R   0.833605 0.471012 0.528902 0.501686
C2    C     C_2   0.471615 0.028343 0.533095 -0.023447
C3    C     C_2   0.530144 0.967338 0.456809 0.008211
C4    C     C_2   0.026470 0.534232 0.458977 -0.022547
C5    C     C_3   0.392744 0.960754 0.627348 -0.250606
C6    C     C_3   0.256073 0.965649 0.567395 -0.301969
C7    C     C_3   0.174704 0.896272 0.657445 -0.441258
C8    C     C_3   0.587347 0.031550 0.342256 -0.247145
C9    C     C_3   0.621840 0.945549 0.252700 -0.311846
C10   C     C_3   0.668740 0.020332 0.137927 -0.480114
C11   C     C_3   0.949112 0.628366 0.353750 -0.268374
C12   C     C_2   0.966076 0.457734 0.543033 0.003471
C13   C     C_3   0.015200 0.700406 0.249383 -0.286125
C14   C     C_3   0.923342 0.779205 0.147502 -0.481059
C15   C     C_3   0.027239 0.360981 0.654594 -0.241275
C16   C     C_3   0.937465 0.290251 0.736898 -0.313064
C17   C     C_3   0.007126 0.195961 0.844108 -0.463700
C18   C     C_2   0.368448 0.626203 0.946777 0.185174
C19   C     C_3   0.640737 0.368805 0.039427 -0.250769
C20   C     C_3   0.758197 0.437912 0.080775 -0.276050
C21   C     C_3   0.858626 0.347723 0.158574 -0.445537
C22   C     C_2   0.464135 0.534097 0.023491 -0.000128
C23   C     C_2   0.535763 0.459260 0.971360 0.008053
C24   C     C_R   0.163092 0.526811 0.471495 0.526297
C25   C     C_R   0.523753 0.472056 0.837572 0.569666
C26   C     C_R   0.476734 0.527490 0.159993 0.464040
C27   C     C_R   0.523733 0.834237 0.473727 0.513677
C28   C     C_R   0.476562 0.164142 0.522791 0.500978
H1    H     H_    0.199735 0.795351 0.677098 0.209583
H2    H     H_    0.691791 0.956451 0.074612 0.144993
H3    H     H_    0.694859 0.876381 0.303360 0.152976
H4    H     H_    0.539144 0.895104 0.217781 0.188531
H5    H     H_    0.518957 0.102043 0.284801 0.165587
H6    H     H_    0.673277 0.078063 0.376147 0.168385
H7    H     H_    0.852007 0.720012 0.104981 0.149138
H8    H     H_    0.877866 0.850328 0.188881 0.152746
H9    H     H_    0.973262 0.827719 0.072164 0.147729
H10   H     H_    0.082057 0.765257 0.289466 0.193576
H11   H     H_    0.063891 0.633915 0.204492 0.186086
H12   H     H_    0.185687 0.933638 0.747183 0.149753
H13   H     H_    0.874699 0.576548 0.305491 0.149582
H14   H     H_    0.903853 0.697267 0.398751 0.143493
H15   H     H_    0.058084 0.125962 0.805846 0.153488
H16   H     H_    0.073815 0.244055 0.905867 0.160835
H17   H     H_    0.940142 0.146785 0.901588 0.137500
H18   H     H_    0.885747 0.357134 0.778560 0.174578
H19   H     H_    0.869994 0.239513 0.678443 0.166026
H20   H     H_    0.077862 0.289803 0.617383 0.165515
H21   H     H_    0.092738 0.409294 0.717462 0.193868
H22   H     H_    0.335413 0.701903 0.987874 0.121993
H23   H     H_    0.076000 0.907984 0.613642 0.138561
H24   H     H_    0.825414 0.298840 0.245152 0.176903
H25   H     H_    0.884321 0.277886 0.102432 0.138375
H26   H     H_    0.942371 0.400118 0.186561 0.141285
H27   H     H_    0.794504 0.487007 0.995954 0.163828
H28   H     H_    0.737364 0.509231 0.137057 0.174857
H29   H     H_    0.610878 0.302532 0.117691 0.173133
H30   H     H_    0.666068 0.307237 0.974381 0.107848
H31   H     H_    0.222193 0.064274 0.540594 0.171308
H32   H     H_    0.246554 0.922980 0.480692 0.173909
H33   H     H_    0.424164 0.862400 0.662145 0.169705
H34   H     H_    0.402174 0.005601 0.712670 0.152765
H35   H     H_    0.595585 0.087442 0.084096 0.147474
H36   H     H_    0.752896 0.071506 0.167402 0.148296
O1    O     O_3   0.500000 0.500000 0.500000 -0.426423
O2    O     O_R   0.597340 0.765700 0.560080 -0.542131
O3    O     O_R   0.548200 0.222430 0.451790 -0.568154
O4    O     O_R   0.441590 0.789440 0.401000 -0.558431
O5    O     O_R   0.412860 0.222430 0.587130 -0.552796
O6    O     O_2   0.322516 0.617353 0.839678 -0.539187
O7    O     O_R   0.441590 0.410520 0.779910 -0.513957
O8    O     O_R   0.548210 0.443940 0.230290 -0.554733
O9    O     O_R   0.787780 0.544200 0.591150 -0.548992
O10   O     O_R   0.222430 0.601350 0.398650 -0.552739
O11   O     O_R   0.767360 0.410530 0.454140 -0.562812
O12   O     O_R   0.222430 0.443930 0.556060 -0.550860
O13   O     O_R   0.597340 0.544190 0.781580 -0.546733
O14   O     O_R   0.412870 0.601350 0.208220 -0.565693
Zn1   Zn    Zn3+2 0.396020 0.396030 0.603970 0.939148
Zn2   Zn    Zn3+2 0.618560 0.587010 0.606350 0.925391
Zn3   Zn    Zn3+2 0.396030 0.620930 0.379070 0.907588
Zn4   Zn    Zn3+2 0.589390 0.396030 0.410610 0.881062

loop_
_geom_bond_atom_site_label_1
_geom_bond_atom_site_label_2
_ccdc_geom_bond_type
C18   O6    D    
O1    Zn1   S    
C26   O8    A    
C19   C20   S    
O12   Zn1   S    
C20   H28   S    
O7    Zn1   S    
C19   H29   S    
C26   O14   A    
C25   O13   A    
O4    Zn3   S    
C17   H17   S    
C14   H8    S    
C21   H26   S    
C4    C24   S    
C16   C17   S    
C15   C16   S    
C11   H14   S    
C27   O4    A    
C9    H4    S    
C10   H35   S    
C8    C9    S    
C7    H12   S    
C25   O7    A    
C4    C12   D    
C9    C10   S    
C15   H21   S    
O1    Zn2   S    
C13   C14   S    
C1    C12   S    
C15   H20   S    
C20   H27   S    
C16   H19   S    
C19   H30   S    
C1    O11   A    
C6    H32   S    
C28   O3    A    
C3    C8    S    
C16   H18   S    
C14   H7    S    
C24   O12   A    
C19   C23   S    
C17   H15   S    
C10   H2    S    
O1    Zn3   S    
C12   C15   S    
C28   O5    A    
C5    H33   S    
C8    H6    S    
C4    C11   S    
C13   H10   S    
O5    Zn1   S    
C2    C5    S    
O10   Zn3   S    
C7    H1    S    
C18   H22   S    
O13   Zn2   S    
C18   C22   S    
C6    H31   S    
C10   H36   S    
O11   Zn4   S    
C6    C7    S    
O2    Zn2   S    
C1    O9    A    
C3    C27   S    
C2    C3    D    
C17   H16   S    
C7    H23   S    
C27   O2    A    
C14   H9    S    
C21   H25   S    
C11   C13   S    
O14   Zn3   S    
C24   O10   A    
O1    Zn4   S    
C5    C6    S    
O9    Zn2   S    
C5    H34   S    
C11   H13   S    
C8    H5    S    
C23   C25   S    
C13   H11   S    
C9    H3    S    
C20   C21   S    
O3    Zn4   S    
C22   C26   S    
C22   C23   D    
C2    C28   S    
C21   H24   S    
O8    Zn4   S    
