data_mof_unit_62552.cif
_audit_creation_date              2012-12-11T14:10:24-0500
_audit_creation_method            fapswitch 2.2
_symmetry_space_group_name_H-M    P1
_symmetry_Int_Tables_number       1
_space_group_crystal_system       triclinic
_cell_length_a                    6.93225
_cell_length_b                    14.76735
_cell_length_c                    16.404452
_cell_angle_alpha                 90.012909
_cell_angle_beta                  90.80231
_cell_angle_gamma                 90.263021
_cell_volume                      1679.15712757

loop_
_atom_site_label
_atom_site_type_symbol
_atom_type_description
_atom_site_fract_x
_atom_site_fract_y
_atom_site_fract_z
_atom_type_partial_charge
O1    O     O_R   0.505720 0.582850 0.414440 -0.525473
O2    O     O_R   0.175970 0.593740 0.584970 -0.523532
O3    O     O_R   0.005630 0.417150 0.585560 -0.511356
C1    C     C_R   0.345321 0.614661 0.613812 0.815049
O4    O     O_R   0.176010 0.593740 0.415050 -0.556002
O5    O     O_R   0.005680 0.417150 0.414430 -0.536749
C2    C     C_R   0.345126 0.617666 0.389045 0.690439
O6    O     O_R   0.505680 0.582850 0.585570 -0.540614
O7    O     O_3   0.339190 0.442060 0.500000 -0.352386
V1    V     V_3+5 0.064350 0.510750 0.500000 1.644333
O8    O     O_R   0.675960 0.406260 0.415030 -0.519820
C3    C     C_R   0.841931 0.386764 0.384961 0.750219
O9    O     O_R   0.675920 0.406260 0.584950 -0.524398
C4    C     C_R   0.845706 0.385909 0.614046 0.728291
V2    V     V_3+5 0.564340 0.489250 0.500000 1.685162
O10   O     O_3   0.839370 0.557940 0.500000 -0.377943
C5    C     C_2   0.723354 0.228935 0.795992 0.257097
C6    C     C_2   0.879620 0.178375 0.816823 -0.324664
H1    H     H_    0.004250 0.177865 0.777642 0.200062
C7    C     C_2   0.711358 0.282223 0.718962 0.475133
C8    C     C_2   0.863274 0.326218 0.686347 0.321597
C9    C     C_2   0.964845 0.322244 0.253535 0.201853
C10   C     C_2   0.834260 0.322710 0.314842 0.020858
C11   C     C_2   0.942048 0.264113 0.179138 0.317494
C12   C     C_2   0.894555 0.175580 0.183845 -0.303002
H2    H     H_    0.874112 0.143873 0.242732 0.141590
C13   C     C_2   0.221695 0.794167 0.776869 0.262254
C14   C     C_2   0.378806 0.812080 0.824339 -0.347970
H3    H     H_    0.503242 0.767875 0.820481 0.159407
C15   C     C_2   0.210283 0.711976 0.724565 0.281622
C16   C     C_2   0.358246 0.687074 0.676351 -0.355493
H4    H     H_    0.492768 0.725037 0.679650 0.153422
C17   C     C_2   0.232105 0.789699 0.217034 -0.188711
C18   C     C_2   0.387358 0.807502 0.170933 0.534995
H5    H     H_    0.101273 0.828881 0.208241 0.124551
C19   C     C_2   0.223935 0.712757 0.275502 -0.067326
C20   C     C_2   0.361165 0.695262 0.332564 0.182223
H6    H     H_    0.095189 0.670571 0.272974 0.150568
O11   O     O_R   0.230590 0.917060 0.914490 -0.522005
O12   O     O_R   0.560420 0.906240 0.084970 -0.519673
O13   O     O_R   0.730590 0.082870 0.085560 -0.532619
C21   C     C_R   0.392079 0.882622 0.111376 0.605169
O14   O     O_R   0.560310 0.906240 0.915050 -0.534201
O15   O     O_R   0.730490 0.082870 0.914420 -0.528942
C22   C     C_R   0.390150 0.885007 0.886455 0.806705
O16   O     O_R   0.230690 0.917070 0.085620 -0.573657
O17   O     O_3   0.397030 0.057890 0.000040 -0.356063
V3    V     V_3+5 0.671930 0.989260 0.999990 1.623369
O18   O     O_R   0.060200 0.093830 0.914980 -0.521348
C23   C     C_R   0.890011 0.116349 0.887641 0.828715
O19   O     O_R   0.060300 0.093830 0.084900 -0.535816
C24   C     C_R   0.893649 0.114901 0.112903 0.778600
V4    V     V_3+5 0.171920 0.010860 0.999920 1.612720
O20   O     O_3   0.896950 0.942110 0.999960 -0.374188
Br1   Br    Br    0.496938 0.235423 0.862734 -0.316895
Br2   Br    Br    0.972105 0.643787 0.730098 -0.440214
F1    F     F_    0.543818 0.752223 0.174911 -0.624386
Br3   Br    Br    0.576336 0.776133 0.352679 -0.457364
F2    F     F_    0.533162 0.290552 0.683888 -0.620888
F3    F     F_    0.039309 0.323485 0.724069 -0.629004
Br4   Br    Br    0.178106 0.406788 0.252478 -0.407290
Br5   Br    Br    0.595791 0.253761 0.306228 -0.474433
Br6   Br    Br    0.991614 0.318141 0.074368 -0.344038
Br7   Br    Br    0.998980 0.872368 0.772722 -0.485036

loop_
_geom_bond_atom_site_label_1
_geom_bond_atom_site_label_2
_ccdc_geom_bond_type
O5    V1    S    
C18   F1    S    
O2    C1    A    
O8    C3    A    
O11   C22   A    
O1    V2    S    
C11   Br6   S    
O7    V1    S    
C5    Br1   S    
O13   C24   A    
C20   Br3   S    
C18   C21   S    
O17   V4    S    
C1    O6    A    
C5    C7    S    
O12   C21   A    
C5    C6    D    
O7    V2    S    
C12   C24   S    
O4    V1    S    
O3    V1    S    
V1    O10   S    
O9    C4    A    
C11   C12   D    
C9    Br4   S    
V3    O20   S    
O14   C22   A    
C3    C10   S    
C6    C23   S    
O11   V4    S    
O3    C4    A    
C21   O16   A    
O18   V4    S    
O16   V4    S    
C19   H6    S    
C19   C20   D    
C17   H5    S    
O13   V3    S    
C17   C18   D    
O6    V2    S    
O8    V2    S    
O9    V2    S    
O5    C3    A    
C15   C16   D    
C16   H4    S    
C9    C11   S    
C14   C22   S    
C1    C16   S    
C13   Br7   S    
V2    O10   S    
O2    V1    S    
O17   V3    S    
O15   V3    S    
C2    C20   S    
C17   C19   S    
C7    C8    D    
C4    C8    S    
C8    F3    S    
O12   V3    S    
O18   C23   A    
O14   V3    S    
O15   C23   A    
C13   C14   D    
O4    C2    A    
C13   C15   S    
C9    C10   D    
C6    H1    S    
O1    C2    A    
O19   V4    S    
C12   H2    S    
V4    O20   S    
C15   Br2   S    
C10   Br5   S    
C14   H3    S    
O19   C24   A    
C7    F2    S    
