data_mof_unit_49804.cif
_audit_creation_date              2012-10-26T19:35:16-0400
_audit_creation_method            fapswitch 2.2
_symmetry_space_group_name_H-M    P1
_symmetry_Int_Tables_number       1
_space_group_crystal_system       triclinic
_cell_length_a                    10.845547
_cell_length_b                    10.834704
_cell_length_c                    9.605797
_cell_angle_alpha                 89.831594
_cell_angle_beta                  91.214313
_cell_angle_gamma                 88.508594
_cell_volume                      1128.11812299

loop_
_atom_site_label
_atom_site_type_symbol
_atom_type_description
_atom_site_fract_x
_atom_site_fract_y
_atom_site_fract_z
_atom_type_partial_charge
C1    C     C_R   0.499444 0.262711 0.500066 0.541685
C2    C     C_R   0.482932 0.936899 0.374067 -0.189021
C3    C     C_R   0.503486 0.871216 0.499328 0.029417
C4    C     C_R   0.262347 0.510707 0.498690 0.527772
C5    C     C_R   0.505052 0.936555 0.624463 0.071458
C6    C     C_3   0.595802 0.932578 0.744040 0.087871
C7    C     C_3   0.588862 0.072862 0.744149 -0.220221
C8    C     C_R   0.606028 0.518746 0.074504 0.172524
C9    C     C_R   0.401139 0.458125 0.069300 0.083240
C10   C     C_R   0.400490 0.463890 0.921453 0.005847
C11   C     C_R   0.606859 0.513507 0.928648 0.136644
C12   C     C_R   0.052494 0.627543 0.471944 0.015434
C13   C     C_3   0.698332 0.612053 0.916734 -0.248506
C14   C     C_3   0.695807 0.622663 0.075321 -0.154600
C15   C     C_R   0.506388 0.737274 0.500003 0.529613
C16   C     C_R   0.736921 0.493334 0.501299 0.522509
C17   C     C_R   0.098871 0.748108 0.445912 -0.000752
C18   C     C_R   0.017914 0.849694 0.421926 -0.090360
C19   C     C_R   0.892124 0.837054 0.427036 -0.104382
C20   C     C_R   0.844818 0.723066 0.455635 -0.080192
C21   C     C_R   0.922222 0.617097 0.476397 -0.020715
C22   C     C_3   0.292385 0.396555 0.131318 -0.346089
C23   C     C_R   0.127115 0.517452 0.496666 -0.050640
C24   C     C_3   0.644571 0.748431 0.121037 -0.389954
C25   C     C_3   0.231910 0.775693 0.447072 -0.381681
C26   C     C_R   0.071920 0.405399 0.525585 -0.088134
C27   C     C_R   0.945106 0.395546 0.529390 0.209979
C28   C     C_R   0.870054 0.501675 0.503664 -0.003754
C29   C     C_R   0.499530 0.063727 0.624568 -0.016155
C30   C     C_R   0.493262 0.129752 0.499764 0.009383
C31   C     C_R   0.477780 0.065366 0.374198 -0.161826
Cu1   Cu    Cu3+1 0.499990 0.499980 0.640670 0.934943
Cu2   Cu    Cu3+1 0.500010 0.500020 0.359330 0.910561
H1    H     H_    0.128887 0.323026 0.545039 0.143563
H2    H     H_    0.746185 0.719629 0.462377 0.153926
H3    H     H_    0.465581 0.113672 0.275787 0.132655
H4    H     H_    0.470828 0.889697 0.276038 0.126099
H5    H     H_    0.559265 0.888756 0.839058 0.102233
H6    H     H_    0.765959 0.891595 0.788225 0.322376
H7    H     H_    0.321668 0.333529 0.217221 0.181516
H8    H     H_    0.222427 0.466993 0.162803 0.150580
H9    H     H_    0.245591 0.336735 0.053850 0.071529
H10   H     H_    0.545123 0.759921 0.092397 0.142633
H11   H     H_    0.659035 0.758767 0.234377 0.167585
H12   H     H_    0.544599 0.111587 0.838358 0.101406
H13   H     H_    0.696065 0.823032 0.070488 0.110101
H14   H     H_    0.247949 0.875804 0.434334 0.113544
H15   H     H_    0.271799 0.748379 0.549930 0.152654
H16   H     H_    0.275622 0.727940 0.358549 0.171852
H17   H     H_    0.808514 0.283162 0.557094 0.326158
H18   H     H_    0.676039 0.117275 0.714943 0.172381
H19   H     H_    0.320117 0.435574 0.862599 0.136083
H20   H     H_    0.788082 0.575578 0.878355 0.132818
H21   H     H_    0.659813 0.692739 0.857944 0.182219
H22   H     H_    0.785925 0.596447 0.126013 0.145565
H23   H     H_    0.052253 0.940835 0.401151 0.124694
H24   H     H_    0.830719 0.916463 0.410664 0.146631
N1    N     N_R   0.500790 0.500930 0.147930 -0.219216
N2    N     N_R   0.500790 0.500890 0.852020 -0.248431
O1    O     O_R   0.500000 0.319640 0.618810 -0.500617
O2    O     O_3   0.899680 0.280022 0.557054 -0.709877
O3    O     O_R   0.500010 0.319680 0.381230 -0.513974
O4    O     O_R   0.319640 0.499980 0.618820 -0.509660
O5    O     O_R   0.319650 0.500020 0.381230 -0.519036
O6    O     O_R   0.499990 0.680320 0.618770 -0.489291
O7    O     O_R   0.500000 0.680360 0.381190 -0.530234
O8    O     O_R   0.680350 0.499980 0.618770 -0.497817
O9    O     O_R   0.680360 0.500020 0.381180 -0.504397
O10   O     O_3   0.711631 0.886356 0.704179 -0.710149

loop_
_geom_bond_atom_site_label_1
_geom_bond_atom_site_label_2
_ccdc_geom_bond_type
C12   C17   A    
C16   C28   S    
C6    O10   S    
C2    C31   A    
C6    H5    S    
C6    C7    S    
C16   O9    A    
C27   O2    S    
C9    C10   A    
C4    O5    A    
C13   H20   S    
C19   C20   A    
C2    H4    S    
Cu2   N1    S    
C18   H23   S    
C30   C31   A    
C10   H19   S    
Cu1   Cu2   S    
Cu1   O6    S    
C2    C3    A    
H6    O10   S    
C24   H13   S    
C16   O8    A    
C22   H9    S    
C13   C14   S    
C19   H24   S    
C11   C13   S    
C4    O4    A    
C26   C27   A    
C29   C30   A    
Cu1   O8    S    
C7    C29   S    
C7    H12   S    
C1    C30   S    
C21   C28   A    
C9    N1    A    
Cu2   O7    S    
C10   N2    A    
C5    C29   A    
C8    C11   A    
C5    C6    S    
C24   H11   S    
C11   N2    A    
C9    C22   S    
C23   C26   A    
C22   H8    S    
Cu1   O1    S    
C7    H18   S    
C15   O6    A    
Cu2   O5    S    
C14   H22   S    
C3    C15   S    
C20   C21   A    
Cu1   O4    S    
C1    O3    A    
C17   C18   A    
C13   H21   S    
C1    O1    A    
C14   C24   S    
C27   C28   A    
C24   H10   S    
H17   O2    S    
C25   H14   S    
C22   H7    S    
C18   C19   A    
C20   H2    S    
C12   C23   A    
C8    C14   S    
Cu1   N2    S    
C8    N1    A    
C4    C23   S    
C31   H3    S    
C15   O7    A    
C25   H15   S    
C12   C21   A    
C26   H1    S    
Cu2   O9    S    
C17   C25   S    
Cu2   O3    S    
C3    C5    A    
C25   H16   S    
