data_mof_unit_45538.cif
_audit_creation_date              2012-12-10T17:12:46-0500
_audit_creation_method            fapswitch 2.2
_symmetry_space_group_name_H-M    P1
_symmetry_Int_Tables_number       1
_space_group_crystal_system       triclinic
_cell_length_a                    23.429766
_cell_length_b                    10.719786
_cell_length_c                    10.060447
_cell_angle_alpha                 89.381953
_cell_angle_beta                  90.747669
_cell_angle_gamma                 91.143115
_cell_volume                      2525.94476631

loop_
_atom_site_label
_atom_site_type_symbol
_atom_type_description
_atom_site_fract_x
_atom_site_fract_y
_atom_site_fract_z
_atom_type_partial_charge
C1    C     C_R   0.502891 0.263126 0.500901 0.903602
C2    C     C_R   0.117944 0.590223 0.473619 0.608583
C3    C     C_R   0.235939 0.522408 0.379028 0.543965
C4    C     C_R   0.389335 0.502857 0.498740 0.907280
C5    C     C_R   0.295373 0.537545 0.380262 0.063534
C6    C     C_R   0.326832 0.502805 0.495773 -0.187343
C7    C     C_R   0.297813 0.463666 0.610602 -0.241647
C8    C     C_R   0.238718 0.457419 0.611368 -0.156304
C9    C     C_R   0.207673 0.486165 0.496196 0.143155
C10   C     C_R   0.755338 0.394729 0.406648 -0.174481
C11   C     C_R   0.696471 0.404925 0.412009 -0.265988
C12   C     C_R   0.970089 0.246228 0.539259 0.529979
C13   C     C_R   0.672162 0.489131 0.499476 -0.219891
C14   C     C_R   0.707213 0.564292 0.581418 0.395620
C15   C     C_R   0.766175 0.546965 0.583343 0.466537
C16   C     C_R   0.497513 0.736911 0.499055 0.782199
C17   C     C_R   0.790266 0.466165 0.491260 0.122147
C18   C     C_2   0.516541 0.934379 0.401933 -0.283330
C19   C     C_2   0.488061 0.868324 0.494382 0.413285
C20   C     C_2   0.512833 0.067731 0.393134 -0.135130
C21   C     C_2   0.512657 0.132863 0.504585 -0.246713
C22   C     C_2   0.533299 0.571044 0.927226 0.131874
C23   C     C_R   0.029728 0.252588 0.544010 -0.251029
C24   C     C_2   0.540683 0.550079 0.075296 0.469745
C25   C     C_R   0.610418 0.499320 0.500372 0.923669
C26   C     C_R   0.879100 0.569769 0.440025 0.617007
C27   C     C_R   0.878979 0.356285 0.511106 0.523705
C28   C     C_R   0.938996 0.355005 0.509220 -0.126684
C29   C     C_R   0.968751 0.467583 0.478364 -0.087574
C30   C     C_R   0.938524 0.575350 0.443017 -0.069358
C31   C     C_3   0.943480 0.055319 0.462368 -0.205806
C32   C     C_3   0.685400 0.768735 0.581469 -0.177132
C33   C     C_3   0.808903 0.551968 0.786000 -0.236563
C34   C     C_R   0.059207 0.364898 0.517232 -0.064707
C35   C     C_3   0.397897 0.859431 0.584697 -0.232174
C36   C     C_3   0.594283 0.706749 0.173476 -0.153956
C37   C     C_3   0.056846 0.830133 0.261235 -0.232079
C38   C     C_3   0.193532 0.442262 0.194195 -0.283919
C39   C     C_R   0.028785 0.473192 0.484643 -0.086430
C40   C     C_R   0.058269 0.587448 0.460331 -0.137961
C41   C     C_R   0.027386 0.694351 0.422151 0.539271
C42   C     C_R   0.967925 0.687174 0.414432 -0.261458
C43   C     C_R   0.118797 0.371294 0.521110 0.520043
H1    H     H_    0.669822 0.347988 0.346881 0.194642
H2    H     H_    0.216901 0.429837 0.701600 0.179405
H3    H     H_    0.773920 0.332589 0.335699 0.180899
H4    H     H_    0.923880 0.099527 0.372520 0.149466
H5    H     H_    0.917746 0.970252 0.486149 0.213471
H6    H     H_    0.987633 0.025761 0.441053 0.169971
H7    H     H_    0.669856 0.845388 0.643744 0.198093
H8    H     H_    0.656428 0.761247 0.493306 0.101806
H9    H     H_    0.729410 0.795450 0.550006 0.194846
H10   H     H_    0.830803 0.462386 0.769158 0.157902
H11   H     H_    0.767687 0.534586 0.837556 0.186688
H12   H     H_    0.542869 0.889893 0.329414 0.113338
H13   H     H_    0.836674 0.608970 0.852824 0.197404
H14   H     H_    0.400694 0.773785 0.647346 0.180054
H15   H     H_    0.381810 0.836139 0.483025 0.157544
H16   H     H_    0.366046 0.920311 0.630514 0.203134
H17   H     H_    0.554894 0.759586 0.148814 0.127741
H18   H     H_    0.630946 0.755168 0.125246 0.176249
H19   H     H_    0.602348 0.711640 0.281957 0.163732
H20   H     H_    0.078763 0.753501 0.209605 0.184444
H21   H     H_    0.081881 0.917459 0.243203 0.205643
H22   H     H_    0.013438 0.843464 0.217945 0.129229
H23   H     H_    0.510558 0.111381 0.295281 0.178347
H24   H     H_    0.166067 0.375808 0.251546 0.163850
H25   H     H_    0.233719 0.396566 0.165242 0.177586
H26   H     H_    0.170023 0.466816 0.101452 0.198253
H27   H     H_    0.520157 0.089493 0.601288 0.200085
H28   H     H_    0.481076 0.425765 0.897804 0.132050
H29   H     H_    0.052725 0.169021 0.570469 0.216445
H30   H     H_    0.461863 0.484773 0.101329 0.126196
H31   H     H_    0.944921 0.770642 0.388071 0.182583
H32   H     H_    0.320818 0.437547 0.700427 0.193081
I1    I     I_    0.580622 0.721890 0.843626 -0.262260
I2    I     I_    0.332335 0.623786 0.207666 -0.315182
N1    N     N_R   0.850818 0.463044 0.478566 -0.336913
N2    N     N_R   0.146697 0.482547 0.498752 -0.348023
N3    N     N_2   0.500610 0.501330 0.852150 -0.226807
N4    N     N_2   0.500630 0.501360 0.147810 -0.231008
O1    O     O_R   0.499990 0.319060 0.613040 -0.615322
O2    O     O_R   0.583840 0.500020 0.613040 -0.559781
O3    O     O_R   0.583850 0.500060 0.386900 -0.580559
O4    O     O_2   0.849478 0.670764 0.400596 -0.560097
O5    O     O_3   0.942625 0.135153 0.572761 -0.555108
O6    O     O_3   0.684509 0.657051 0.657242 -0.565748
O7    O     O_3   0.800769 0.618606 0.665995 -0.576601
O8    O     O_3   0.450920 0.924412 0.581848 -0.609684
O9    O     O_3   0.592841 0.580464 0.134101 -0.565721
O10   O     O_3   0.054657 0.808101 0.399548 -0.570894
O11   O     O_3   0.204892 0.552585 0.265730 -0.573645
O12   O     O_2   0.848811 0.253328 0.547650 -0.505057
O13   O     O_2   0.148774 0.267016 0.545149 -0.552019
O14   O     O_2   0.147432 0.699132 0.461722 -0.463568
O15   O     O_R   0.500010 0.319100 0.386900 -0.613929
O16   O     O_R   0.416150 0.499940 0.613100 -0.622738
O17   O     O_R   0.416160 0.499980 0.386960 -0.583974
O18   O     O_R   0.499990 0.680900 0.613100 -0.567423
O19   O     O_R   0.500010 0.680940 0.386960 -0.644786
Zn1   Zn    Zn3+2 0.499990 0.499970 0.650990 1.000141
Zn2   Zn    Zn3+2 0.500010 0.500030 0.349010 0.984991

loop_
_geom_bond_atom_site_label_1
_geom_bond_atom_site_label_2
_ccdc_geom_bond_type
C1    C21   S    
C4    O17   A    
O3    Zn2   S    
C41   C42   A    
C22   I1    S    
C27   N1    A    
C7    C8    A    
C12   C23   A    
C26   N1    A    
C12   C28   A    
C35   H15   S    
C3    C9    A    
C20   H23   S    
C28   C29   A    
C33   O7    S    
C14   O6    S    
O15   Zn2   S    
C1    O15   A    
C5    C6    A    
C10   C17   A    
C43   N2    A    
C38   O11   S    
C43   O13   S    
C35   H16   S    
C18   C19   D    
C9    N2    S    
C8    H2    S    
C32   H9    S    
C2    N2    A    
C8    C9    A    
C37   H22   S    
C10   H3    S    
C25   O3    A    
C33   H13   S    
C38   H26   S    
C31   O5    S    
C31   H4    S    
C13   C14   A    
C13   C25   S    
C31   H6    S    
C36   H19   S    
H30   N4    S    
H28   N3    S    
C37   H20   S    
N4    Zn2   S    
C33   H10   S    
C42   H31   S    
C37   O10   S    
C34   C39   A    
C4    C6    S    
C39   C40   A    
C16   O19   A    
C7    H32   S    
C3    C5    A    
C1    O1    A    
O17   Zn2   S    
C32   O6    S    
C3    O11   S    
C24   N4    D    
C32   H8    S    
C29   C30   A    
C19   O8    S    
C23   C34   A    
C29   C39   A    
O19   Zn2   S    
C11   H1    S    
C38   H24   S    
C32   H7    S    
C18   H12   S    
C35   O8    S    
C40   C41   A    
O18   Zn1   S    
C38   H25   S    
C26   C30   A    
C31   H5    S    
C22   C24   S    
C27   O12   S    
C5    I2    S    
C36   H18   S    
C37   H21   S    
C36   O9    S    
C33   H11   S    
C15   C17   A    
C2    O14   S    
O2    Zn1   S    
C41   O10   S    
C23   H29   S    
C26   O4    S    
C34   C43   A    
C36   H17   S    
C24   O9    S    
C16   O18   A    
C6    C7    A    
C21   H27   S    
C12   O5    S    
N3    Zn1   S    
C35   H14   S    
C22   N3    D    
C11   C13   A    
C16   C19   S    
C17   N1    S    
O1    Zn1   S    
C18   C20   S    
C10   C11   A    
C2    C40   A    
C20   C21   D    
C27   C28   A    
C25   O2    A    
C14   C15   A    
C30   C42   A    
C4    O16   A    
O16   Zn1   S    
C15   O7    S    
