data_mof_unit_20140.cif
_audit_creation_date              2012-12-11T15:41:20-0500
_audit_creation_method            fapswitch 2.2
_symmetry_space_group_name_H-M    P1
_symmetry_Int_Tables_number       1
_space_group_crystal_system       triclinic
_cell_length_a                    14.844327
_cell_length_b                    14.792219
_cell_length_c                    14.88058
_cell_angle_alpha                 109.114353
_cell_angle_beta                  109.751482
_cell_angle_gamma                 109.398788
_cell_volume                      2519.86888262

loop_
_atom_site_label
_atom_site_type_symbol
_atom_type_description
_atom_site_fract_x
_atom_site_fract_y
_atom_site_fract_z
_atom_type_partial_charge
C1    C     C_R   0.251635 0.066942 0.974171 -0.123744
C2    C     C_R   0.805063 0.004541 0.096136 -0.116118
C3    C     C_R   0.773657 0.326234 0.325401 0.040195
C4    C     C_R   0.130882 0.698486 0.698138 0.049507
C5    C     C_R   0.500086 0.932720 0.301870 0.048686
C6    C     C_R   0.500136 0.948511 0.674364 0.036992
C7    C     C_R   0.497616 0.299114 0.926324 0.065124
C8    C     C_R   0.501327 0.674060 0.946028 0.054235
C9    C     C_R   0.196019 0.080916 0.582990 -0.123621
C10   C     C_R   0.901232 0.762733 0.033691 -0.125488
C11   C     C_R   0.293803 0.181031 0.660901 -0.141866
C12   C     C_R   0.806707 0.686977 0.023956 -0.176958
C13   C     C_R   0.293342 0.266932 0.737685 0.112965
C14   C     C_R   0.701175 0.651762 0.940834 0.111826
C15   C     C_R   0.193059 0.251481 0.733806 -0.178142
C16   C     C_R   0.692483 0.695450 0.869226 -0.139105
C17   C     C_R   0.095444 0.151245 0.655517 -0.109582
C18   C     C_R   0.787174 0.771272 0.879518 -0.098759
C19   C     C_R   0.096952 0.066013 0.580339 -0.098435
C20   C     C_R   0.891398 0.803793 0.960747 -0.082663
C21   C     C_R   0.400472 0.470493 0.831029 -0.231641
C22   C     C_R   0.597323 0.470581 0.925040 -0.233264
C23   C     C_R   0.748214 0.222612 0.314576 -0.123869
C24   C     C_R   0.195492 0.791826 0.699956 -0.139768
C25   C     C_R   0.501063 0.569868 0.895191 0.053526
C26   C     C_R   0.496743 0.378217 0.885983 0.053971
C27   C     C_R   0.599767 0.565337 0.923627 0.031851
C28   C     C_R   0.397697 0.372370 0.820723 0.030322
C29   C     C_R   0.871052 0.530290 0.428947 -0.169008
C30   C     C_R   0.961701 0.523317 0.622444 -0.169784
C31   C     C_R   0.962723 0.623897 0.522678 -0.174878
C32   C     C_R   0.869922 0.429792 0.528692 -0.166789
C33   C     C_R   0.015099 0.617252 0.616408 0.142474
C34   C     C_R   0.832485 0.429884 0.428702 0.144269
C35   C     C_R   0.600058 0.941338 0.570855 -0.172654
C36   C     C_R   0.400211 0.839813 0.377486 -0.174527
C37   C     C_R   0.600099 0.939253 0.477218 -0.173279
C38   C     C_R   0.400272 0.841947 0.471153 -0.171488
C39   C     C_R   0.500144 0.898583 0.383554 0.144492
C40   C     C_R   0.500167 0.903884 0.571080 0.145598
C41   C     C_R   0.133436 0.064522 0.162812 -0.186973
C42   C     C_R   0.037171 0.161618 0.059987 -0.177002
C43   C     C_R   0.041458 0.066477 0.165016 -0.164832
C44   C     C_R   0.129075 0.159885 0.058082 -0.167579
C45   C     C_R   0.408515 0.903860 0.208592 -0.139478
C46   C     C_R   0.592418 0.026020 0.777594 -0.129917
C47   C     C_R   0.985965 0.104031 0.102925 0.139655
C48   C     C_R   0.168844 0.099316 0.097792 0.141486
C49   C     C_R   0.589918 0.298363 0.991104 -0.134220
C50   C     C_R   0.408636 0.685265 0.931984 -0.121393
C51   C     C_R   0.591569 0.995371 0.300100 -0.140835
C52   C     C_R   0.407766 0.933915 0.685325 -0.127696
C53   C     C_R   0.407505 0.208221 0.903598 -0.148775
C54   C     C_R   0.592856 0.777269 0.026626 -0.133071
C55   C     C_R   0.747942 0.315113 0.222076 -0.125511
C56   C     C_R   0.195162 0.699905 0.791404 -0.143122
C57   C     C_R   0.251629 0.974442 0.066485 -0.132793
C58   C     C_R   0.804617 0.096382 0.004638 -0.149807
C59   C     C_R   0.226376 0.052868 0.052155 0.034847
C60   C     C_R   0.869526 0.067861 0.067657 0.046999
H1    H     H_    0.197087 0.014855 0.524714 0.104377
H2    H     H_    0.982212 0.789090 0.097361 0.102752
H3    H     H_    0.369992 0.191400 0.662009 0.117431
H4    H     H_    0.816030 0.656018 0.081186 0.105120
H5    H     H_    0.323831 0.469121 0.790945 0.122695
H6    H     H_    0.673802 0.469644 0.957346 0.117887
H7    H     H_    0.839008 0.535026 0.354756 0.106745
H8    H     H_    0.995953 0.517331 0.695493 0.106114
H9    H     H_    0.997728 0.697180 0.517031 0.104720
H10   H     H_    0.836867 0.355365 0.533122 0.107676
H11   H     H_    0.678768 0.982807 0.644977 0.105546
H12   H     H_    0.321395 0.801503 0.304507 0.104677
H13   H     H_    0.678894 0.979313 0.482839 0.104075
H14   H     H_    0.321550 0.805114 0.466687 0.106692
H15   H     H_    0.167579 0.024218 0.201288 0.109786
H16   H     H_    0.000931 0.198174 0.017619 0.106160
H17   H     H_    0.758276 0.200069 0.377783 0.093026
H18   H     H_    0.168236 0.825767 0.649048 0.086392
H19   H     H_    0.008082 0.027640 0.205154 0.113261
H20   H     H_    0.159889 0.195266 0.014503 0.108959
H21   H     H_    0.324078 0.842894 0.175249 0.082837
H22   H     H_    0.678072 0.058357 0.799979 0.092767
H23   H     H_    0.674096 0.348674 0.013350 0.084095
H24   H     H_    0.323191 0.622127 0.877130 0.094090
H25   H     H_    0.676113 0.018888 0.351245 0.083922
H26   H     H_    0.322130 0.880965 0.622171 0.092184
H27   H     H_    0.757258 0.378308 0.199201 0.092673
H28   H     H_    0.167474 0.648595 0.824676 0.084882
H29   H     H_    0.241464 0.941935 0.119673 0.092301
H30   H     H_    0.831724 0.157815 0.981328 0.086400
H31   H     H_    0.021336 0.988425 0.520004 0.097115
H32   H     H_    0.964490 0.860824 0.967021 0.120263
N1    N     N_R   0.293810 0.002730 0.945950 -0.039091
N2    N     N_R   0.706190 0.997270 0.054050 -0.040435
N3    N     N_R   0.706160 0.152130 0.208910 -0.040346
N4    N     N_R   0.293840 0.847870 0.791090 -0.037113
N5    N     N_R   0.443140 0.945920 0.152090 -0.036347
N6    N     N_R   0.556860 0.054080 0.847910 -0.039459
N7    N     N_R   0.556830 0.208940 0.002760 -0.038808
N8    N     N_R   0.443170 0.791060 0.997240 -0.041098
N9    N     N_R   0.556790 0.002750 0.208910 -0.037017
N10   N     N_R   0.443210 0.997250 0.791090 -0.038545
N11   N     N_R   0.443180 0.152110 0.945950 -0.039830
N12   N     N_R   0.556820 0.847890 0.054050 -0.042635
N13   N     N_R   0.706170 0.208950 0.152090 -0.039600
N14   N     N_R   0.293830 0.791050 0.847910 -0.038015
N15   N     N_R   0.293800 0.945910 0.002760 -0.038648
N16   N     N_R   0.706200 0.054090 0.997240 -0.037555
Ni1   Ni    Ni4+2 0.369690 0.999990 0.869700 0.215319
Ni2   Ni    Ni4+2 0.630310 0.000010 0.130300 0.209599
Ni3   Ni    Ni4+2 0.369670 0.869670 0.000000 0.209077
Ni4   Ni    Ni4+2 0.630330 0.130330 0.000000 0.208439
H33   H     H_    0.241489 0.120405 0.941809 0.094580
H34   H     H_    0.832870 0.980543 0.156797 0.086145
H35   H     H_    0.190709 0.316198 0.792328 0.107128
H36   H     H_    0.612377 0.669356 0.804132 0.117098
H37   H     H_    0.018627 0.139505 0.653366 0.102001
H38   H     H_    0.779754 0.803878 0.823662 0.112793
H39   H     H_    0.321810 0.175074 0.847923 0.118510
H40   H     H_    0.678633 0.800046 0.062108 0.115647

loop_
_geom_bond_atom_site_label_1
_geom_bond_atom_site_label_2
_ccdc_geom_bond_type
N7    N11   A    
C54   H40   S    
C11   C13   A    
C3    C23   A    
C42   H16   S    
C51   H25   S    
C50   H24   S    
C20   H32   S    
N2    N16   A    
C7    C26   S    
C57   H29   S    
C55   N13   A    
C9    H1    S    
C54   N12   A    
C35   C37   A    
C11   H3    S    
C1    C59   A    
C4    C24   A    
C2    C60   A    
C57   C59   A    
C41   H15   S    
C58   C60   A    
N8    N12   A    
C18   C20   A    
C22   H6    S    
C21   C25   A    
N3    N13   A    
C47   C60   S    
C29   H7    S    
C3    C55   A    
C9    C19   A    
C10   C20   A    
C31   C33   A    
C13   C28   S    
C14   C27   S    
C18   H38   S    
C58   N16   A    
C17   H37   S    
C46   N6    A    
C35   H11   S    
C38   C40   A    
C46   H22   S    
C4    C56   A    
C8    C25   S    
C41   C43   A    
C10   H2    S    
C42   C44   A    
N5    Ni3   S    
C16   H36   S    
C26   C28   A    
N14   Ni3   S    
N6    Ni4   S    
C44   H20   S    
C6    C40   S    
C19   H31   S    
C7    C49   A    
C8    C54   A    
C32   H10   S    
C3    C34   S    
N9    Ni2   S    
N6    N10   A    
C5    C45   A    
C29   C34   A    
N2    Ni2   S    
N16   Ni4   S    
C32   C34   A    
C49   N7    A    
C58   H30   S    
C2    N2    A    
C29   C31   A    
C52   N10   A    
C16   C18   A    
C23   H17   S    
C9    C11   A    
C56   N14   A    
C10   C12   A    
C24   H18   S    
C57   N15   A    
N13   Ni4   S    
C12   C14   A    
C22   C27   A    
C13   C15   A    
C14   C16   A    
C51   N9    A    
C7    C53   A    
C36   C38   A    
C8    C50   A    
N12   Ni2   S    
C48   C59   S    
C38   H14   S    
C15   C17   A    
C5    C39   S    
N4    N14   A    
C4    C33   S    
C6    C46   A    
C30   C33   A    
C21   H5    S    
N15   Ni3   S    
C21   C28   A    
C36   C39   A    
C45   H21   S    
N3    Ni2   S    
C53   H39   S    
C25   C27   A    
N4    Ni1   S    
C37   H13   S    
N11   Ni1   S    
C49   H23   S    
C24   N4    A    
C35   C40   A    
C37   C39   A    
C45   N5    A    
N1    N15   A    
C30   C32   A    
C2    H34   S    
C43   C47   A    
C53   N11   A    
C12   H4    S    
N7    Ni4   S    
C52   H26   S    
C17   C19   A    
C41   C48   A    
C23   N3    A    
C15   H35   S    
C42   C47   A    
C1    H33   S    
C55   H27   S    
C30   H8    S    
C50   N8    A    
C56   H28   S    
C44   C48   A    
C31   H9    S    
N8    Ni3   S    
C1    N1    A    
C22   C26   A    
C5    C51   A    
N10   Ni1   S    
C6    C52   A    
C43   H19   S    
N5    N9    A    
C36   H12   S    
N1    Ni1   S    
