data_mof_unit_29845.cif
_audit_creation_date              2013-03-05T15:51:13-0500
_audit_creation_method            fapswitch 2.2
_symmetry_space_group_name_H-M    P1
_symmetry_Int_Tables_number       1
_space_group_crystal_system       triclinic
_cell_length_a                    23.045244
_cell_length_b                    6.985404
_cell_length_c                    20.735496
_cell_angle_alpha                 89.820074
_cell_angle_beta                  93.065301
_cell_angle_gamma                 89.529418
_cell_volume                      3333.0974546

loop_
_atom_site_label
_atom_site_type_symbol
_atom_site_description
_atom_site_fract_x
_atom_site_fract_y
_atom_site_fract_z
_atom_type_partial_charge
O1    O     O_R   0.188030 0.379840 0.189340 -0.593249
O2    O     O_R   0.811970 0.620160 0.810660 -0.591917
O3    O     O_R   0.311970 0.879840 0.310660 -0.591552
O4    O     O_R   0.688030 0.120160 0.689340 -0.591820
O5    O     O_R   0.307090 0.708420 0.185790 -0.584659
O6    O     O_R   0.692910 0.291580 0.814210 -0.584620
O7    O     O_R   0.192910 0.208420 0.314210 -0.585017
O8    O     O_R   0.807090 0.791580 0.685790 -0.583766
C1    C     C_R   0.326474 0.540969 0.170629 0.997924
C2    C     C_R   0.673514 0.459007 0.829341 0.992764
C3    C     C_R   0.172869 0.041765 0.328504 0.992547
C4    C     C_R   0.826257 0.958602 0.670262 0.985533
O9    O     O_R   0.188180 0.709480 0.181650 -0.608033
O10   O     O_R   0.811820 0.290520 0.818350 -0.607290
O11   O     O_R   0.311820 0.209480 0.318350 -0.603697
O12   O     O_R   0.688180 0.790520 0.681650 -0.604736
O13   O     O_R   0.192210 0.880960 0.306500 -0.597656
O14   O     O_R   0.807790 0.119040 0.693500 -0.594382
O15   O     O_R   0.307790 0.380960 0.193500 -0.594514
O16   O     O_R   0.692210 0.619040 0.806500 -0.592766
C5    C     C_R   0.165420 0.542222 0.168846 0.952968
C6    C     C_R   0.833980 0.457761 0.832285 0.950353
C7    C     C_R   0.333960 0.039812 0.332033 0.957714
C8    C     C_R   0.665984 0.960154 0.668065 0.957549
O17   O     O_3   0.251460 0.546730 0.290970 -0.280907
O18   O     O_3   0.748540 0.453270 0.709030 -0.280183
O19   O     O_3   0.248540 0.046730 0.209030 -0.276865
O20   O     O_3   0.751460 0.953270 0.790970 -0.275965
V1    V     V_3+5 0.249730 0.821120 0.242400 1.152640
V2    V     V_3+5 0.750270 0.178880 0.757600 1.156667
V3    V     V_3+5 0.250270 0.321120 0.257600 1.151061
V4    V     V_3+5 0.749730 0.678880 0.742400 1.154734
C9    C     C_R   0.569807 0.113955 0.626285 0.162501
C10   C     C_R   0.429979 0.885509 0.374080 0.159684
C11   C     C_R   0.930946 0.328551 0.882531 0.170419
C12   C     C_R   0.065818 0.664268 0.123587 0.170711
C13   C     C_R   0.614514 0.973512 0.621378 -0.194600
C14   C     C_R   0.385348 0.026290 0.378853 -0.193382
C15   C     C_R   0.884601 0.464975 0.880484 -0.204081
C16   C     C_R   0.113438 0.533212 0.122807 -0.200551
C17   C     C_R   0.610911 0.842028 0.570740 -0.292942
C18   C     C_R   0.388908 0.157685 0.429529 -0.295396
C19   C     C_R   0.885979 0.614782 0.925337 -0.275212
C20   C     C_R   0.111167 0.381917 0.078687 -0.276592
C21   C     C_R   0.565022 0.846109 0.523186 0.058839
C22   C     C_R   0.434723 0.153347 0.477190 0.059082
C23   C     C_R   0.930936 0.632415 0.973809 0.061990
C24   C     C_R   0.064565 0.359404 0.032763 0.064065
C25   C     C_R   0.522591 0.993869 0.524763 -0.009979
C26   C     C_R   0.477138 0.005523 0.475639 -0.008772
C27   C     C_R   0.974837 0.489267 0.979140 -0.023406
C28   C     C_R   0.020103 0.500880 0.028415 -0.023811
C29   C     C_R   0.524829 0.127679 0.576150 0.069718
C30   C     C_R   0.474899 0.871661 0.424269 0.070256
C31   C     C_R   0.973685 0.334246 0.935117 0.096044
C32   C     C_R   0.021102 0.654761 0.072978 0.090934
C33   C     C_R   0.561144 0.705902 0.473874 0.188011
C34   C     C_R   0.438556 0.293370 0.526575 0.186933
C35   C     C_R   0.932443 0.789205 0.017350 0.177518
C36   C     C_R   0.061911 0.198977 0.990866 0.176895
C37   C     C_R   0.517606 0.726003 0.424293 -0.228239
C38   C     C_R   0.482069 0.273144 0.576190 -0.229607
C39   C     C_R   0.977656 0.797432 0.065597 -0.229601
C40   C     C_R   0.015404 0.187028 0.944537 -0.233092
H1    H     H_    0.645440 0.736936 0.568602 0.152750
H2    H     H_    0.354411 0.262914 0.431604 0.152059
H3    H     H_    0.850767 0.718033 0.921763 0.148739
H4    H     H_    0.146963 0.280832 0.080930 0.149264
H5    H     H_    0.517248 0.625081 0.385505 0.169848
H6    H     H_    0.482393 0.373857 0.615042 0.169590
H7    H     H_    0.979361 0.918553 0.097318 0.168495
H8    H     H_    0.011775 0.061005 0.915140 0.169054
C41   C     C_3   0.045076 0.044977 0.525953 0.382816
C42   C     C_3   0.946846 0.958719 0.462978 0.344279
C43   C     C_3   0.450098 0.539810 0.968221 0.384021
C44   C     C_3   0.549058 0.456115 0.031182 0.342638
C45   C     C_3   0.010359 0.860976 0.538113 -0.383700
C46   C     C_3   0.981584 0.141974 0.450752 -0.412324
C47   C     C_3   0.486104 0.356542 0.956491 -0.383097
C48   C     C_3   0.513263 0.639187 0.042658 -0.411293
H9    H     H_    0.023963 0.755124 0.575875 0.191908
H10   H     H_    0.967713 0.246723 0.412713 0.187360
H11   H     H_    0.473387 0.251169 0.918738 0.189265
H12   H     H_    0.526821 0.743230 0.080541 0.187167
C49   C     C_1   0.870406 0.965448 0.622950 -0.293729
C50   C     C_1   0.125970 0.036206 0.372202 -0.299225
C51   C     C_1   0.627831 0.465826 0.874615 -0.297758
C52   C     C_1   0.372032 0.533801 0.125187 -0.309828
C53   C     C_3   0.989360 0.167676 0.525466 0.106165
C54   C     C_3   0.002708 0.836303 0.463330 0.103944
C55   C     C_3   0.504992 0.663472 0.967797 0.106909
C56   C     C_3   0.494084 0.332716 0.031329 0.104204
C57   C     C_3   0.953828 0.985108 0.536620 -0.016740
C58   C     C_3   0.037998 0.018788 0.452474 0.002512
C59   C     C_3   0.541764 0.481546 0.957517 -0.018223
C60   C     C_3   0.457710 0.514802 0.041830 0.003393
C61   C     C_1   0.907629 0.971720 0.583639 0.143643
C62   C     C_1   0.086246 0.031179 0.408265 0.099551
C63   C     C_1   0.589169 0.470356 0.912095 0.142005
C64   C     C_1   0.410521 0.527889 0.087491 0.107447
C65   C     C_3   0.567755 0.238165 0.686674 -0.406401
C66   C     C_3   0.591604 0.439010 0.675825 -0.791725
H13   H     H_    0.565694 0.517861 0.637752 0.229543
H14   H     H_    0.590314 0.522523 0.721161 0.223759
H15   H     H_    0.637049 0.431384 0.661096 0.281375
H16   H     H_    0.522736 0.247732 0.703013 0.185351
H17   H     H_    0.591996 0.171019 0.728604 0.190160
C67   C     C_3   0.431961 0.760744 0.313819 -0.401405
C68   C     C_3   0.407875 0.560354 0.324883 -0.788210
H18   H     H_    0.408713 0.476781 0.279530 0.228059
H19   H     H_    0.433937 0.481143 0.362742 0.228789
H20   H     H_    0.362566 0.568749 0.340027 0.280115
H21   H     H_    0.407848 0.827775 0.271786 0.190656
H22   H     H_    0.476977 0.750436 0.297523 0.189422
C69   C     C_3   0.937976 0.188184 0.826793 -0.412628
C70   C     C_3   0.992688 0.228856 0.790535 -0.878997
H23   H     H_    0.033091 0.216378 0.821626 0.273664
H24   H     H_    0.995871 0.123883 0.750786 0.258351
H25   H     H_    0.990146 0.375872 0.770036 0.266209
H26   H     H_    0.938126 0.038186 0.844658 0.186421
H27   H     H_    0.902220 0.196298 0.789423 0.212542
C71   C     C_3   0.060169 0.802738 0.180135 -0.433836
C72   C     C_3   0.010109 0.747754 0.221934 -0.835117
H28   H     H_    0.007591 0.851011 0.262342 0.257042
H29   H     H_    0.967700 0.749473 0.194092 0.272399
H30   H     H_    0.017879 0.602261 0.242598 0.254188
H31   H     H_    0.098804 0.804701 0.213705 0.214591
H32   H     H_    0.055207 0.952496 0.162553 0.187091
C73   C     C_3   0.603210 0.534771 0.475418 -0.365704
C74   C     C_3   0.590416 0.376342 0.425929 -0.839747
H33   H     H_    0.545376 0.323575 0.429302 0.249465
H34   H     H_    0.596997 0.428920 0.376270 0.267606
H35   H     H_    0.620727 0.254108 0.435972 0.265182
H36   H     H_    0.647870 0.587358 0.468701 0.213000
H37   H     H_    0.602607 0.465791 0.523758 0.198117
C75   C     C_3   0.396477 0.464460 0.525070 -0.362216
C76   C     C_3   0.409196 0.622630 0.574680 -0.847149
H38   H     H_    0.402609 0.569707 0.624299 0.265304
H39   H     H_    0.454222 0.675625 0.571367 0.250263
H40   H     H_    0.378843 0.744804 0.564709 0.265182
H41   H     H_    0.397141 0.533718 0.476780 0.197941
H42   H     H_    0.351809 0.411776 0.531677 0.211637
C77   C     C_3   0.885689 0.946266 0.011407 -0.367194
C78   C     C_3   0.890444 0.109564 0.060448 -0.829627
H43   H     H_    0.886543 0.053677 0.110226 0.267897
H44   H     H_    0.932141 0.186158 0.057127 0.247615
H45   H     H_    0.854602 0.214182 0.049975 0.267531
H46   H     H_    0.886278 0.011194 0.962462 0.188712
H47   H     H_    0.842559 0.879487 0.016476 0.211647
C79   C     C_3   0.108932 0.042626 0.996215 -0.365566
C80   C     C_3   0.103485 0.878055 0.947716 -0.836857
H48   H     H_    0.062345 0.799671 0.952658 0.248701
H49   H     H_    0.105666 0.933132 0.897597 0.265577
H50   H     H_    0.139980 0.775228 0.957194 0.266758
H51   H     H_    0.151754 0.109670 0.989451 0.210153
H52   H     H_    0.109655 0.979689 0.045525 0.190470
N1    N     N_R   0.099701 0.093736 0.560354 0.239742
O21   O     O_R   0.122239 0.980212 0.604941 -0.370923
O22   O     O_R   0.126525 0.249988 0.546049 -0.400154
N2    N     N_R   0.893083 0.910553 0.426618 0.242983
O23   O     O_R   0.892116 0.901425 0.363946 -0.387908
O24   O     O_R   0.845783 0.878790 0.456278 -0.387484
N3    N     N_R   0.394871 0.587210 0.934241 0.238654
O25   O     O_R   0.372558 0.472335 0.890547 -0.373080
O26   O     O_R   0.367211 0.743363 0.948216 -0.397858
N4    N     N_R   0.603114 0.409084 0.067783 0.242757
O27   O     O_R   0.604079 0.401131 0.130490 -0.385802
O28   O     O_R   0.650622 0.376776 0.038347 -0.388534
C81   C     C_3   0.006706 0.654619 0.423197 -0.362026
C82   C     C_3   0.067862 0.567880 0.426442 -0.812724
H53   H     H_    0.096645 0.649461 0.395469 0.255736
H54   H     H_    0.087163 0.566440 0.476590 0.290540
H55   H     H_    0.066061 0.419670 0.407871 0.251678
H56   H     H_    0.975048 0.552020 0.440921 0.193839
H57   H     H_    0.993741 0.687702 0.372028 0.221992
C83   C     C_3   0.983505 0.360377 0.558940 -0.332687
C84   C     C_3   0.989346 0.345575 0.632184 -0.866099
H58   H     H_    0.951266 0.272166 0.650908 0.254287
H59   H     H_    0.029817 0.267596 0.647956 0.292371
H60   H     H_    0.991063 0.491705 0.653065 0.248652
H61   H     H_    0.018786 0.451698 0.543097 0.224894
H62   H     H_    0.940958 0.427250 0.544091 0.205434
C85   C     C_3   0.491120 0.148845 0.070666 -0.354195
C86   C     C_3   0.430035 0.064700 0.068373 -0.820850
H63   H     H_    0.401407 0.147834 0.099335 0.254962
H64   H     H_    0.410319 0.063349 0.018414 0.289042
H65   H     H_    0.432043 0.916727 0.087535 0.250778
H66   H     H_    0.522368 0.046508 0.051128 0.193853
H67   H     H_    0.505080 0.177958 0.121756 0.223621
C87   C     C_3   0.509151 0.852435 0.931222 -0.341622
C88   C     C_3   0.501419 0.829842 0.858011 -0.834632
H68   H     H_    0.538366 0.749568 0.838851 0.242066
H69   H     H_    0.460323 0.754919 0.844424 0.289905
H70   H     H_    0.499823 0.973643 0.834967 0.241351
H71   H     H_    0.474014 0.946106 0.947049 0.223049
H72   H     H_    0.551721 0.919912 0.943781 0.201979

loop_
_geom_bond_atom_site_label_1
_geom_bond_atom_site_label_2
_geom_bond_distance
_ccdc_geom_bond_type
C34   C38   1.403690 A    
O1    C5    1.304726 A    
C65   C66   1.531322 S    
C69   H27   1.101498 S    
O19   V1    1.718618 S    
O13   V1    1.970099 S    
C81   C82   1.527569 S    
C11   C15   1.424363 A    
N3    O25   1.300284 A    
C56   C60   1.540016 S    
C48   H12   1.106319 S    
O15   V3    1.972945 S    
C72   H28   1.110836 S    
C67   C68   1.531198 S    
O7    C3    1.295268 A    
C76   H39   1.110056 S    
C21   C33   1.417995 A    
C26   C30   1.418751 A    
C4    C49   1.451597 S    
C9    C65   1.528261 S    
O2    V4    1.999627 S    
C33   C73   1.532078 S    
N3    O26   1.300167 A    
C14   C18   1.396941 A    
C24   C28   1.416904 A    
C68   H19   1.106583 S    
C1    C52   1.448426 S    
O4    C8    1.300172 A    
C59   C63   1.481806 S    
C84   H58   1.107429 S    
C72   H29   1.108165 S    
C82   H53   1.107573 S    
C58   C62   1.481279 S    
C3    C50   1.447702 S    
C37   H5    1.070932 S    
C77   C78   1.531239 S    
C41   N1    1.456743 S    
O1    V3    1.999627 S    
C86   H63   1.107245 S    
C38   H6    1.070994 S    
C66   H15   1.107411 S    
C43   N3    1.456564 S    
C18   C22   1.407134 A    
C80   H50   1.110581 S    
C67   H22   1.109942 S    
C71   H31   1.100666 S    
O3    V1    2.006274 S    
C12   C16   1.424149 A    
C75   H42   1.111232 S    
C73   H37   1.111594 S    
O3    C7    1.300131 A    
C1    O15   1.298470 A    
N1    O21   1.300250 A    
C42   N2    1.457826 S    
C33   C37   1.403504 A    
C2    O16   1.298481 A    
C84   H59   1.109696 S    
O2    C6    1.307020 A    
C81   H56   1.102992 S    
C24   C36   1.419823 A    
C74   H34   1.110596 S    
O14   V2    1.970099 S    
C45   H9    1.106546 S    
O8    C4    1.296656 A    
C48   C60   1.552510 S    
C16   C20   1.399466 A    
C51   C63   1.213498 T    
C43   C55   1.538098 S    
O11   C7    1.310719 A    
C35   C77   1.531445 S    
O12   C8    1.310593 A    
C79   H52   1.110974 S    
C22   C34   1.418159 A    
C80   H49   1.110839 S    
N4    O28   1.300175 A    
C42   C57   1.538708 S    
C77   H46   1.111114 S    
C41   C58   1.535313 S    
O10   V2    2.010016 S    
C78   H45   1.110588 S    
C85   H67   1.110462 S    
C76   H40   1.110856 S    
C43   C60   1.536269 S    
C54   C58   1.540078 S    
O5    V1    1.974759 S    
C46   C53   1.561102 S    
C9    C29   1.430645 A    
C83   H61   1.100775 S    
C2    C51   1.448115 S    
C55   C87   1.526526 S    
C45   C54   1.561493 S    
O7    V3    1.980468 S    
C11   C31   1.430633 A    
C88   H68   1.107687 S    
O8    V4    1.980469 S    
O20   V4    2.167674 S    
C78   H44   1.108907 S    
C70   H24   1.109847 S    
C68   H20   1.107470 S    
O18   V4    1.723011 S    
C78   H43   1.110791 S    
C72   H30   1.111141 S    
C23   C27   1.416461 A    
C34   C75   1.532051 S    
O19   V3    2.167674 S    
C53   C57   1.544660 S    
C9    C13   1.424628 A    
C27   C28   1.423618 A    
N2    O24   1.300187 A    
C67   H21   1.108622 S    
C12   C71   1.532583 S    
C85   C86   1.528415 S    
C88   H69   1.109386 S    
C87   C88   1.527827 S    
O5    C1    1.294345 A    
C75   H41   1.111592 S    
C12   C32   1.432982 A    
C29   C38   1.409684 A    
C46   H10   1.106923 S    
C21   C25   1.417623 A    
C80   H48   1.108036 S    
C84   H60   1.110243 S    
C31   C40   1.408000 A    
C8    C13   1.492519 S    
C81   H57   1.109894 S    
C32   C39   1.409043 A    
O9    C5    1.306825 A    
C36   C79   1.531756 S    
C44   N4    1.458215 S    
C47   C56   1.561066 S    
C52   C64   1.213733 T    
C87   H71   1.101182 S    
C44   C56   1.538306 S    
O18   V2    2.161493 S    
C19   H3    1.080650 S    
C83   C84   1.520637 S    
O6    V2    1.974758 S    
C39   H7    1.072988 S    
C10   C30   1.430554 A    
C79   H51   1.111241 S    
N4    O27   1.300268 A    
C25   C26   1.423138 A    
C20   H4    1.080463 S    
C74   H35   1.110810 S    
C43   C47   1.546831 S    
C57   C61   1.484889 S    
C73   C74   1.531298 S    
O16   V4    1.972945 S    
O9    V1    2.010015 S    
C65   H16   1.110025 S    
C3    O13   1.298212 A    
C17   C21   1.406867 A    
C10   C14   1.424671 A    
O17   V3    1.723011 S    
C44   C48   1.542098 S    
C75   C76   1.531373 S    
C56   C85   1.523335 S    
O6    C2    1.294139 A    
C17   H1    1.080943 S    
C86   H65   1.105947 S    
C71   H32   1.109736 S    
O11   V3    1.997870 S    
C30   C37   1.409751 A    
C87   H72   1.110600 S    
O12   V4    1.997874 S    
C7    C14   1.492819 S    
C76   H38   1.110636 S    
C22   C26   1.417660 A    
C35   C39   1.407007 A    
C70   H25   1.110123 S    
C66   H14   1.109536 S    
C36   C40   1.403699 A    
C10   C67   1.528182 S    
N2    O23   1.300314 A    
O10   C6    1.305844 A    
C48   C55   1.562320 S    
O20   V2    1.718619 S    
C74   H33   1.109958 S    
C88   H70   1.110500 S    
C41   C53   1.537479 S    
C44   C59   1.537331 S    
C85   H66   1.103766 S    
O17   V1    2.161494 S    
C47   H11   1.105950 S    
C42   C54   1.539289 S    
C69   C70   1.530245 S    
C5    C16   1.493208 S    
C82   H54   1.108880 S    
C46   C58   1.551918 S    
C25   C29   1.418771 A    
C6    C15   1.496291 S    
C60   C64   1.482045 S    
C54   C81   1.524683 S    
C45   C57   1.557882 S    
C86   H64   1.108823 S    
C70   H23   1.106480 S    
C27   C31   1.417990 A    
C40   H8    1.073614 S    
C13   C17   1.396771 A    
C66   H13   1.106622 S    
C50   C62   1.213275 T    
C49   C61   1.215471 T    
C83   H62   1.110701 S    
C23   C35   1.421045 A    
C73   H36   1.111217 S    
C28   C32   1.419216 A    
C77   H47   1.111328 S    
C11   C69   1.532308 S    
C15   C19   1.401629 A    
C55   C59   1.543340 S    
N1    O22   1.300031 A    
C69   H26   1.110163 S    
C42   C46   1.542819 S    
C4    O14   1.298768 A    
C65   H17   1.108680 S    
C18   H2    1.080951 S    
C41   C45   1.546656 S    
C79   C80   1.531265 S    
C53   C83   1.524748 S    
C71   C72   1.530301 S    
C68   H18   1.109410 S    
C47   C59   1.556878 S    
C19   C23   1.410779 A    
O4    V2    2.006272 S    
C20   C24   1.406855 A    
C82   H55   1.106054 S    
