data_mof_unit_60078.cif
_audit_creation_date              2012-12-10T20:08:45-0500
_audit_creation_method            fapswitch 2.2
_symmetry_space_group_name_H-M    P1
_symmetry_Int_Tables_number       1
_space_group_crystal_system       triclinic
_cell_length_a                    19.220563
_cell_length_b                    18.45705
_cell_length_c                    15.01459
_cell_angle_alpha                 89.93125
_cell_angle_beta                  90.141318
_cell_angle_gamma                 90.019579
_cell_volume                      5326.47891679

loop_
_atom_site_label
_atom_site_type_symbol
_atom_type_description
_atom_site_fract_x
_atom_site_fract_y
_atom_site_fract_z
_atom_type_partial_charge
C1    C     C_R   0.365901 0.499992 0.499940 0.973174
C2    C     C_R   0.634099 0.500008 0.500059 0.973174
C3    C     C_R   0.480368 0.631572 0.044958 0.273320
C4    C     C_R   0.519633 0.368428 0.955042 0.273320
C5    C     C_R   0.745008 0.464877 0.430994 0.221498
C6    C     C_R   0.254992 0.535123 0.569006 0.221497
C7    C     C_R   0.254693 0.464860 0.430894 0.215863
C8    C     C_R   0.745307 0.535140 0.569106 0.215863
C9    C     C_R   0.817145 0.465126 0.431435 -0.093940
C10   C     C_R   0.182855 0.534874 0.568564 -0.093941
C11   C     C_R   0.182557 0.465094 0.431364 -0.089321
C12   C     C_R   0.817443 0.534906 0.568635 -0.089322
C13   C     C_R   0.852876 0.500023 0.500025 0.095065
C14   C     C_R   0.147124 0.499976 0.499974 0.095065
C15   C     C_R   0.709006 0.500018 0.500048 -0.178786
C16   C     C_R   0.290994 0.499982 0.499951 -0.178786
C17   C     C_R   0.963661 0.556292 0.456639 0.232350
C18   C     C_R   0.036339 0.443708 0.543360 0.232351
C19   C     C_R   0.036218 0.556276 0.456619 0.232239
C20   C     C_R   0.963782 0.443724 0.543380 0.232239
C21   C     C_R   0.071957 0.499984 0.499981 -0.173125
C22   C     C_R   0.928043 0.500015 0.500018 -0.173125
C23   C     C_R   0.539229 0.725898 0.560827 0.058311
C24   C     C_R   0.460770 0.274101 0.439173 0.058311
C25   C     C_R   0.460783 0.725975 0.439140 0.066545
C26   C     C_R   0.539216 0.274024 0.560860 0.066545
C27   C     C_R   0.540011 0.801897 0.561969 -0.243436
C28   C     C_R   0.459989 0.198103 0.438031 -0.243435
C29   C     C_R   0.460028 0.801979 0.437945 -0.227301
C30   C     C_R   0.539972 0.198021 0.562055 -0.227302
C31   C     C_R   0.500020 0.841341 0.499952 0.101412
C32   C     C_R   0.499980 0.158659 0.500048 0.101412
C33   C     C_R   0.499867 0.500040 0.326451 0.938106
C34   C     C_R   0.500133 0.499959 0.673549 0.938106
C35   C     C_R   0.438950 0.961961 0.480844 -0.147334
C36   C     C_R   0.561050 0.038039 0.519156 -0.147334
C37   C     C_R   0.561062 0.961979 0.519117 -0.146028
C38   C     C_R   0.438937 0.038021 0.480883 -0.146028
C39   C     C_R   0.499987 0.077312 0.500038 0.111276
C40   C     C_R   0.500013 0.922688 0.499962 0.111276
C41   C     C_R   0.509967 0.434656 0.815064 -0.177937
C42   C     C_R   0.490034 0.565344 0.184936 -0.177937
C43   C     C_R   0.500304 0.499848 0.769353 -0.071519
C44   C     C_R   0.499696 0.500151 0.230646 -0.071519
C45   C     C_R   0.490736 0.564882 0.814901 -0.149848
C46   C     C_R   0.509265 0.435118 0.185099 -0.149848
C47   C     C_R   0.490531 0.565291 0.906906 0.070701
C48   C     C_R   0.509471 0.434709 0.093094 0.070701
C49   C     C_R   0.500145 0.499686 0.953620 0.030092
C50   C     C_R   0.499856 0.500314 0.046380 0.030091
C51   C     C_R   0.510023 0.433581 0.907512 0.050582
C52   C     C_R   0.489979 0.566418 0.092488 0.050582
C53   C     C_R   0.480737 0.630435 0.952467 -0.199741
C54   C     C_R   0.519265 0.369565 0.047532 -0.199740
H1    H     H_    0.517654 0.385115 0.777990 0.199812
H2    H     H_    0.482347 0.614885 0.222010 0.199812
H3    H     H_    0.390615 0.933900 0.467291 0.152816
H4    H     H_    0.609385 0.066100 0.532709 0.152816
H5    H     H_    0.609407 0.933936 0.532646 0.153104
H6    H     H_    0.390593 0.066064 0.467354 0.153104
H7    H     H_    0.483047 0.615231 0.778838 0.174206
H8    H     H_    0.516954 0.384769 0.221162 0.174206
H9    H     H_    0.473345 0.680641 0.916103 0.188135
H10   H     H_    0.526657 0.319359 0.083897 0.188135
H11   H     H_    0.845464 0.438578 0.378372 0.190390
H12   H     H_    0.154536 0.561422 0.621627 0.190390
H13   H     H_    0.154008 0.438563 0.378296 0.190545
H14   H     H_    0.845992 0.561437 0.621704 0.190545
H15   H     H_    0.569907 0.695927 0.608820 0.163443
H16   H     H_    0.430093 0.304073 0.391180 0.163443
H17   H     H_    0.430094 0.696058 0.391160 0.144584
H18   H     H_    0.569906 0.303942 0.608840 0.144584
H19   H     H_    0.570921 0.829436 0.611884 0.156280
H20   H     H_    0.429079 0.170563 0.388116 0.156280
H21   H     H_    0.429133 0.829585 0.388006 0.161288
H22   H     H_    0.570867 0.170415 0.611994 0.161288
N1    N     N_R   0.500000 0.689440 0.500000 -0.107879
N2    N     N_R   0.500000 0.310560 0.500000 -0.107879
O1    O     O_R   0.398180 0.560840 0.499980 -0.599660
O2    O     O_R   0.601820 0.439160 0.500020 -0.599660
O3    O     O_R   0.601820 0.560840 0.500020 -0.596731
O4    O     O_R   0.398180 0.439160 0.499980 -0.596731
O5    O     O_R   0.499980 0.560820 0.367840 -0.639510
O6    O     O_R   0.500020 0.439180 0.632160 -0.639510
O7    O     O_R   0.500020 0.560820 0.632160 -0.615169
O8    O     O_R   0.499980 0.439180 0.367840 -0.615169
Zn1   Zn    Zn3+2 0.500000 0.581210 0.500000 1.010300
Zn2   Zn    Zn3+2 0.500000 0.418790 0.500000 1.010300
Br1   Br    Br    0.466551 0.723800 0.101729 -0.462237
Br2   Br    Br    0.533451 0.276200 0.898270 -0.462237
Br3   Br    Br    0.698149 0.418786 0.333010 -0.452386
Br4   Br    Br    0.301851 0.581214 0.666990 -0.452386
Br5   Br    Br    0.301124 0.418892 0.332822 -0.480685
Br6   Br    Br    0.698876 0.581108 0.667178 -0.480685
Br7   Br    Br    0.912903 0.632874 0.397655 -0.350100
Br8   Br    Br    0.087097 0.367126 0.602345 -0.350101
Br9   Br    Br    0.086811 0.632836 0.397606 -0.352761
Br10  Br    Br    0.913189 0.367164 0.602393 -0.352761

loop_
_geom_bond_atom_site_label_1
_geom_bond_atom_site_label_2
_ccdc_geom_bond_type
O5    Zn1   S    
C18   C21   A    
C26   H18   S    
C23   H15   S    
C28   H20   S    
O1    Zn1   S    
C19   Br9   S    
C24   H16   S    
C47   C49   A    
C53   H9    S    
C48   C54   A    
C12   H14   S    
C26   N2    A    
C34   O6    A    
C46   H8    S    
C25   N1    A    
C14   C21   S    
C36   C37   A    
C19   C21   A    
C37   C40   A    
C36   H4    S    
C38   C39   A    
C11   C14   A    
C6    Br4   S    
C32   C39   S    
C33   O5    A    
C18   Br8   S    
C31   C40   S    
C45   C47   A    
C9    C13   A    
C41   H1    S    
C42   H2    S    
C11   H13   S    
C49   C51   A    
C50   C52   A    
C25   H17   S    
C23   C27   A    
C18   C20   A    
C47   C53   A    
C48   C50   A    
C41   C43   A    
C42   C44   A    
C44   C46   A    
C4    Br2   S    
C10   H12   S    
C25   C29   A    
C7    Br5   S    
C46   C48   A    
O7    Zn1   S    
C27   C31   A    
C24   C28   A    
C28   C32   A    
C35   C38   A    
C8    Br6   S    
C10   C14   A    
C4    C51   A    
C1    O4    A    
C34   O7    A    
C7    C11   A    
C33   O8    A    
C5    C9    A    
C30   H22   S    
C8    C12   A    
C1    C16   S    
O3    Zn1   S    
C23   N1    A    
C2    C15   S    
C43   C45   A    
N1    Zn1   S    
C37   H5    S    
C38   H6    S    
C24   N2    A    
C7    C16   A    
C20   C22   A    
C26   C30   A    
C8    C15   A    
C1    O1    A    
N2    Zn2   S    
C4    C54   A    
C33   C44   S    
C36   C39   A    
C34   C43   S    
O6    Zn2   S    
C6    C10   A    
C3    C52   A    
C29   H21   S    
C17   C22   A    
C35   H3    S    
C3    Br1   S    
C35   C40   A    
O2    Zn2   S    
C30   C32   A    
C3    C53   A    
C54   H10   S    
O4    Zn2   S    
C45   H7    S    
C17   C19   A    
C13   C22   S    
O8    Zn2   S    
C9    H11   S    
C5    C15   A    
C2    O2    A    
C6    C16   A    
C20   Br10  S    
C12   C13   A    
C5    Br3   S    
C29   C31   A    
C49   C50   A    
C17   Br7   S    
C2    O3    A    
C27   H19   S    
C41   C51   A    
C42   C52   A    
