data_mof_unit_5595.cif
_audit_creation_date              2013-03-05T16:01:17-0500
_audit_creation_method            fapswitch 2.2
_symmetry_space_group_name_H-M    P1
_symmetry_Int_Tables_number       1
_space_group_crystal_system       triclinic
_cell_length_a                    14.709281
_cell_length_b                    14.646226
_cell_length_c                    17.275645
_cell_angle_alpha                 106.115039
_cell_angle_beta                  73.960062
_cell_angle_gamma                 114.92362
_cell_volume                      3187.86542258

loop_
_atom_site_label
_atom_site_type_symbol
_atom_site_description
_atom_site_fract_x
_atom_site_fract_y
_atom_site_fract_z
_atom_type_partial_charge
O1    O     O_R   0.020090 0.662480 0.528530 -0.520963
O2    O     O_R   0.979910 0.337520 0.471470 -0.521400
O3    O     O_R   0.160710 0.620650 0.491980 -0.606447
O4    O     O_R   0.839290 0.379350 0.508020 -0.603672
C1    C     C_R   0.118581 0.688201 0.510349 0.847269
C2    C     C_R   0.881371 0.311839 0.489932 0.858984
O5    O     O_R   0.921540 0.523360 0.633990 -0.582820
O6    O     O_R   0.078460 0.476640 0.366010 -0.589845
O7    O     O_R   0.062170 0.481520 0.597440 -0.550579
O8    O     O_R   0.937830 0.518480 0.402560 -0.546503
C3    C     C_R   0.987200 0.498280 0.652073 0.851303
C4    C     C_R   0.011840 0.499879 0.347691 0.848969
Cu1   Cu    Cu3+1 0.916740 0.524770 0.521640 1.025683
Cu2   Cu    Cu3+1 0.083260 0.475230 0.478360 1.017356
C5    C     C_R   0.975102 0.484739 0.735920 -0.142948
C6    C     C_R   0.022028 0.508015 0.262807 -0.144388
C7    C     C_R   0.044899 0.456578 0.755248 -0.126588
C8    C     C_R   0.961948 0.548733 0.243719 -0.136510
C9    C     C_R   0.034367 0.441702 0.833943 0.298962
C10   C     C_R   0.971302 0.557713 0.163302 0.306026
C11   C     C_R   0.956153 0.462028 0.896223 -0.006779
C12   C     C_R   0.039130 0.520971 0.100372 -0.021589
C13   C     C_R   0.881775 0.483582 0.875952 0.247652
C14   C     C_R   0.102909 0.484264 0.119745 0.235412
C15   C     C_R   0.890536 0.492236 0.795380 -0.260120
C16   C     C_R   0.095021 0.479657 0.201075 -0.259832
C17   C     C_2   0.954793 0.467059 0.982822 -0.086253
C18   C     C_2   0.040672 0.515719 0.014052 -0.066007
H1    H     H_    0.105579 0.442042 0.708268 0.258870
H2    H     H_    0.910303 0.577148 0.291861 0.261567
H3    H     H_    0.144991 0.452101 0.215348 0.157210
H4    H     H_    0.831349 0.505339 0.779843 0.164219
H5    H     H_    0.113831 0.548055 0.975252 0.182303
H6    H     H_    0.881975 0.436290 0.022642 0.180793
C19   C     C_R   0.185923 0.795434 0.504530 -0.220660
C20   C     C_R   0.814235 0.203503 0.491313 -0.222504
C21   C     C_R   0.225834 0.961649 0.472313 0.262770
C22   C     C_R   0.775112 0.032154 0.512417 0.254015
C23   C     C_R   0.154257 0.863955 0.485634 0.231638
C24   C     C_R   0.843404 0.134563 0.512614 0.213155
C25   C     C_R   0.287390 0.825623 0.510994 -0.280919
C26   C     C_R   0.716257 0.171382 0.475335 -0.282832
C27   C     C_R   0.362169 0.918733 0.491243 0.055779
C28   C     C_R   0.643788 0.072112 0.481300 0.060091
C29   C     C_R   0.330145 0.988047 0.473005 -0.016633
C30   C     C_R   0.675187 0.001497 0.498307 -0.011663
C31   C     C_R   0.467826 0.944377 0.489200 0.111733
C32   C     C_R   0.539920 0.042636 0.474529 0.107913
C33   C     C_R   0.505357 0.108241 0.454356 -0.220561
C34   C     C_R   0.504003 0.874109 0.499817 -0.234192
C35   C     C_R   0.403413 0.081045 0.452931 -0.141760
C36   C     C_R   0.604886 0.902216 0.504463 -0.152114
H7    H     H_    0.383059 0.134255 0.435275 0.180472
H8    H     H_    0.626293 0.845208 0.515195 0.190228
H9    H     H_    0.697889 0.227680 0.460891 0.171558
H10   H     H_    0.305768 0.773533 0.531475 0.170219
H11   H     H_    0.555104 0.181200 0.437580 0.143500
H12   H     H_    0.456696 0.795538 0.504177 0.140293
N1    N     N_R   0.208390 0.438070 0.445820 -0.206889
N2    N     N_R   0.791610 0.561930 0.554180 -0.211300
C37   C     C_R   0.309805 0.350946 0.345067 0.142815
C38   C     C_R   0.699177 0.662854 0.649353 0.152906
C39   C     C_R   0.216783 0.366506 0.376898 0.371833
C40   C     C_R   0.789273 0.641570 0.617969 0.398946
C41   C     C_R   0.285035 0.487275 0.489820 0.050172
C42   C     C_R   0.712380 0.511067 0.512867 0.053366
C43   C     C_R   0.375768 0.465738 0.466655 -0.070368
C44   C     C_R   0.626266 0.539820 0.533244 -0.072398
C45   C     C_R   0.392693 0.407014 0.387806 -0.000399
C46   C     C_R   0.614807 0.608883 0.607795 -0.004817
C47   C     C_R   0.452858 0.507055 0.516442 -0.075486
C48   C     C_R   0.550637 0.500676 0.482337 -0.079037
C49   C     C_R   0.572370 0.462027 0.397259 0.251270
C50   C     C_R   0.435465 0.554971 0.599464 0.249134
C51   C     C_R   0.493459 0.412377 0.351071 0.156035
C52   C     C_R   0.518727 0.619118 0.638875 0.184583
H13   H     H_    0.716734 0.447549 0.464191 0.171918
H14   H     H_    0.276130 0.546861 0.540637 0.176694
N3    N     N_2   0.518270 0.380290 0.264688 -0.390923
H15   H     H_    0.567789 0.342158 0.245771 0.295003
C53   C     C_3   0.540406 0.456198 0.216515 -0.546612
H16   H     H_    0.552567 0.422303 0.150322 0.217250
H17   H     H_    0.610381 0.523390 0.229902 0.273205
H18   H     H_    0.475517 0.481745 0.230068 0.207480
N4    N     N_2   0.503418 0.689141 0.712116 -0.390817
H19   H     H_    0.442525 0.658436 0.756348 0.300860
C54   C     C_3   0.511511 0.785884 0.699058 -0.570004
H20   H     H_    0.503095 0.837338 0.759080 0.226592
H21   H     H_    0.451006 0.774095 0.666380 0.224650
H22   H     H_    0.587489 0.823620 0.662638 0.246167
N5    N     N_2   0.880743 0.708026 0.647942 -0.369714
H23   H     H_    0.908927 0.780606 0.635048 0.285498
C55   C     C_3   0.887062 0.707674 0.729976 -0.652458
H24   H     H_    0.887156 0.781018 0.771013 0.213553
H25   H     H_    0.959900 0.701115 0.728680 0.241376
H26   H     H_    0.822731 0.643131 0.755270 0.213052
N6    N     N_2   0.133293 0.312963 0.334612 -0.407690
H27   H     H_    0.147080 0.329186 0.277185 0.211397
C56   C     C_3   0.080076 0.204932 0.337540 -0.539648
H28   H     H_    0.101409 0.158097 0.278204 0.198624
H29   H     H_    0.996714 0.185695 0.348168 0.226352
H30   H     H_    0.097760 0.184487 0.387364 0.284960
N7    N     N_2   0.320099 0.280251 0.270395 -0.414788
H31   H     H_    0.277103 0.270311 0.228555 0.242162
C57   C     C_3   0.321511 0.185469 0.279242 -0.563848
H32   H     H_    0.340079 0.141055 0.217744 0.220863
H33   H     H_    0.245927 0.138948 0.310254 0.258664
H34   H     H_    0.379934 0.200495 0.315174 0.225061
N8    N     N_2   0.695576 0.739997 0.720711 -0.384202
H35   H     H_    0.757891 0.808001 0.721738 0.284780
C58   C     C_3   0.653859 0.705592 0.798861 -0.630916
H36   H     H_    0.597379 0.740213 0.835055 0.250852
H37   H     H_    0.714483 0.731477 0.835297 0.201103
H38   H     H_    0.615664 0.620752 0.790748 0.223614
N9    N     N_R   0.676160 0.490765 0.354366 0.104680
O9    O     O_R   0.713223 0.421513 0.312154 -0.418453
O10   O     O_R   0.735321 0.587156 0.361115 -0.299601
N10   N     N_R   0.334389 0.526088 0.647591 0.101058
O11   O     O_R   0.278014 0.429378 0.645436 -0.294487
O12   O     O_R   0.296223 0.594631 0.689546 -0.416120
N11   N     N_2   0.798443 0.497173 0.936688 -0.429874
H39   H     H_    0.728778 0.446638 0.921882 0.251072
C59   C     C_3   0.803091 0.601626 0.960512 -0.579577
H40   H     H_    0.789790 0.625027 0.909974 0.184340
H41   H     H_    0.878590 0.654598 0.976206 0.278516
H42   H     H_    0.743298 0.607573 0.015163 0.241246
N12   N     N_2   0.173947 0.450361 0.057171 -0.411413
H43   H     H_    0.248098 0.490785 0.066276 0.248116
C60   C     C_3   0.148573 0.340866 0.041019 -0.541096
H44   H     H_    0.157896 0.317174 0.093243 0.174196
H45   H     H_    0.200237 0.319783 0.985105 0.251495
H46   H     H_    0.068684 0.299015 0.030850 0.262567
N13   N     N_R   0.915471 0.608329 0.146837 0.133131
O13   O     O_R   0.824367 0.598463 0.188145 -0.308576
O14   O     O_R   0.960566 0.675063 0.098530 -0.364175
N14   N     N_R   0.099659 0.400636 0.848826 0.133960
O15   O     O_R   0.060596 0.323963 0.887261 -0.348452
O16   O     O_R   0.196096 0.431666 0.816365 -0.289149
N15   N     N_R   0.938429 0.169357 0.540054 0.152071
O17   O     O_R   0.994281 0.113962 0.515684 -0.216858
O18   O     O_R   0.961234 0.248056 0.599119 -0.335744
N16   N     N_R   0.050402 0.834858 0.478515 0.160346
O19   O     O_R   0.013278 0.763050 0.418815 -0.311675
O20   O     O_R   0.998661 0.890640 0.523161 -0.232083
N17   N     N_R   0.192713 0.031802 0.454564 0.132062
O21   O     O_R   0.138966 0.002215 0.397406 -0.309672
O22   O     O_R   0.207081 0.121640 0.501035 -0.300974
N18   N     N_R   0.804548 0.961468 0.533206 0.148504
O23   O     O_R   0.817832 0.973460 0.607315 -0.309538
O24   O     O_R   0.816000 0.883837 0.478422 -0.269174

loop_
_geom_bond_atom_site_label_1
_geom_bond_atom_site_label_2
_geom_bond_distance
_ccdc_geom_bond_type
C42   C44   1.423582 A    
C54   H20   1.110116 S    
C55   H24   1.110434 S    
C7    H1    1.079180 S    
C20   C26   1.396734 A    
C58   H36   1.109164 S    
N17   O21   1.301138 A    
C59   H40   1.111321 S    
C13   N11   1.421969 S    
Cu1   N2    2.025488 S    
N4    H19   1.030277 S    
O5    C3    1.301826 A    
Cu2   N1    2.025488 S    
C57   H33   1.105611 S    
C50   C52   1.407880 A    
O1    C1    1.301405 A    
C9    C11   1.413017 A    
N18   O24   1.301093 A    
N8    C58   1.453440 S    
C59   H41   1.110021 S    
C41   C43   1.424947 A    
C29   C35   1.398375 A    
N9    O9    1.301352 A    
C24   N15   1.438697 S    
C30   C36   1.397417 A    
C33   H11   1.075627 S    
C38   C46   1.425124 A    
O4    Cu1   1.927279 S    
C37   C39   1.415611 A    
N10   O11   1.301200 A    
C38   C40   1.415870 A    
N6    C56   1.448259 S    
C3    C5    1.468496 S    
N7    C57   1.447317 S    
C4    C6    1.465462 S    
C36   H8    1.081880 S    
C33   C35   1.385424 A    
C14   N12   1.422006 S    
C34   C36   1.382215 A    
C8    H2    1.080353 S    
C10   N13   1.436716 S    
C43   C47   1.436472 A    
C44   C48   1.436271 A    
C60   H46   1.111165 S    
C15   H4    1.079521 S    
C11   C17   1.472254 S    
N2    C42   1.362099 A    
C16   H3    1.081376 S    
C55   H25   1.109010 S    
C12   C18   1.466060 S    
Cu1   Cu2   2.696229 S    
C25   C27   1.404523 A    
O2    C2    1.302198 A    
C26   C28   1.406071 A    
C19   C25   1.394297 A    
C53   H17   1.110343 S    
C28   C30   1.419697 A    
N6    H27   1.030012 S    
C31   C34   1.412908 A    
N4    C54   1.446779 S    
C17   H6    1.087046 S    
C6    C16   1.399934 A    
C50   N10   1.436227 S    
C57   H34   1.109878 S    
N11   C59   1.446497 S    
N17   O22   1.301335 A    
C34   H12   1.076290 S    
C20   C24   1.413374 A    
N18   O23   1.301018 A    
N14   O16   1.300676 A    
N5    H23   1.029812 S    
N3    C53   1.446865 S    
C48   C49   1.419120 A    
C59   H42   1.110209 S    
N9    O10   1.301231 A    
C9    N14   1.435056 S    
C53   H16   1.110294 S    
C43   C45   1.414184 A    
C19   C23   1.410863 A    
O7    Cu2   1.975587 S    
N12   C60   1.446950 S    
C25   H10   1.075563 S    
C26   H9    1.074423 S    
N5    C55   1.447185 S    
O7    C3    1.300573 A    
C31   C32   1.423931 A    
C23   N16   1.434032 S    
O5    Cu1   1.967685 S    
O6    C4    1.299442 A    
C58   H37   1.108109 S    
C27   C29   1.419279 A    
C22   N18   1.434707 S    
N11   H39   1.031404 S    
O3    Cu2   1.927280 S    
O8    C4    1.301622 A    
O4    C2    1.302270 A    
C32   C33   1.413757 A    
C56   H29   1.108952 S    
C10   C12   1.412532 A    
C18   H5    1.086137 S    
C55   H26   1.107644 S    
C11   C13   1.408337 A    
C46   C52   1.422179 A    
N13   O13   1.300591 A    
C12   C14   1.406987 A    
O1    Cu1   1.943119 S    
C49   C51   1.411061 A    
C21   C29   1.418238 A    
N12   H43   1.031402 S    
C17   C18   1.341306 D    
C53   H18   1.111170 S    
C60   H44   1.111490 S    
C37   C45   1.422334 A    
C5    C7    1.399429 A    
C42   H13   1.078366 S    
O6    Cu2   1.967686 S    
C41   H14   1.075621 S    
C37   N7    1.428937 S    
C14   C16   1.395725 A    
N14   O15   1.300526 A    
O3    C1    1.302813 A    
O8    Cu1   1.975587 S    
C47   C50   1.415916 A    
N15   O17   1.300551 A    
C57   H32   1.110044 S    
N1    C39   1.366221 A    
C49   N9    1.436444 S    
C56   H28   1.110448 S    
N2    C40   1.369461 A    
C21   N17   1.437515 S    
C54   H21   1.111128 S    
C47   C48   1.427898 A    
C39   N6    1.422272 S    
N8    H35   1.030655 S    
N1    C41   1.361199 A    
C22   C24   1.409968 A    
N15   O18   1.301016 A    
C38   N8    1.428356 S    
C27   C31   1.429248 A    
C1    C19   1.476273 S    
C7    C9    1.392591 A    
C2    C20   1.476751 S    
C45   C51   1.419701 A    
C58   H38   1.112543 S    
C8    C10   1.395279 A    
C13   C15   1.398289 A    
O2    Cu2   1.943120 S    
N10   O12   1.301746 A    
C22   C30   1.415073 A    
C5    C15   1.400337 A    
N3    H15   1.029194 S    
C21   C23   1.409960 A    
C56   H30   1.109350 S    
C6    C8    1.399917 A    
C54   H22   1.110944 S    
N7    H31   1.029663 S    
N13   O14   1.300856 A    
C44   C46   1.418038 A    
N16   O19   1.301159 A    
C40   N5    1.423805 S    
C35   H7    1.081249 S    
C51   N3    1.426642 S    
C52   N4    1.421371 S    
N16   O20   1.300564 A    
C28   C32   1.431482 A    
C60   H45   1.110164 S    
