data_mof_unit_10633.cif
_audit_creation_date              2012-12-11T14:29:27-0500
_audit_creation_method            fapswitch 2.2
_symmetry_space_group_name_H-M    P1
_symmetry_Int_Tables_number       1
_space_group_crystal_system       triclinic
_cell_length_a                    6.946605
_cell_length_b                    14.864118
_cell_length_c                    16.191207
_cell_angle_alpha                 90.36672
_cell_angle_beta                  88.254754
_cell_angle_gamma                 89.724792
_cell_volume                      1670.99496603

loop_
_atom_site_label
_atom_site_type_symbol
_atom_type_description
_atom_site_fract_x
_atom_site_fract_y
_atom_site_fract_z
_atom_type_partial_charge
O1    O     O_R   0.494400 0.416610 0.413880 -0.546136
O2    O     O_R   0.823920 0.406790 0.585520 -0.568147
O3    O     O_R   0.994250 0.583390 0.586120 -0.538665
C1    C     C_R   0.652425 0.381614 0.610234 0.706880
O4    O     O_R   0.824110 0.405730 0.414490 -0.548085
O5    O     O_R   0.994440 0.582310 0.413870 -0.495568
C2    C     C_R   0.658686 0.385012 0.386055 0.761173
O6    O     O_R   0.494210 0.417690 0.586130 -0.517712
O7    O     O_3   0.660810 0.557940 0.500000 -0.356309
V1    V     V_3+5 0.935650 0.489250 0.500000 1.587216
O8    O     O_R   0.324160 0.593210 0.414480 -0.534498
C3    C     C_R   0.158452 0.612739 0.384257 0.734043
O9    O     O_R   0.323970 0.594270 0.585510 -0.535482
C4    C     C_R   0.153040 0.612495 0.616995 0.666755
V2    V     V_3+5 0.435660 0.510750 0.500000 1.621396
O10   O     O_3   0.160630 0.442060 0.500000 -0.388197
C5    C     C_R   0.134373 0.561321 0.797414 -0.173677
C6    C     C_R   0.160827 0.538126 0.879886 0.559015
C7    C     C_R   0.188116 0.603842 0.938722 -0.213144
C8    C     C_R   0.179857 0.693895 0.917762 0.478033
C9    C     C_R   0.150424 0.721095 0.834749 -0.062153
C10   C     C_R   0.140508 0.653334 0.771627 -0.126220
C11   C     C_R   0.129293 0.813575 0.814398 -0.117268
C12   C     C_R   0.120361 0.839797 0.730026 -0.068958
C13   C     C_R   0.124535 0.772633 0.666713 -0.062797
C14   C     C_R   0.136145 0.679805 0.686502 -0.034628
C15   C     C_R   0.111425 0.932100 0.706473 0.439902
C16   C     C_R   0.104368 0.956993 0.622822 -0.229245
C17   C     C_R   0.104600 0.889820 0.561899 0.627212
C18   C     C_R   0.115280 0.799749 0.583403 -0.250236
H1    H     H_    0.209502 0.584879 0.002287 0.206328
H2    H     H_    0.116390 0.751481 0.533107 0.154436
C19   C     C_2   0.004614 0.694800 0.268818 0.662519
C20   C     C_2   0.165166 0.672216 0.310105 -0.300549
C21   C     C_2   0.004869 0.754039 0.194648 -0.247081
C22   C     C_2   0.109866 0.829780 0.186942 0.439456
H3    H     H_    0.909557 0.735440 0.145454 0.119900
C23   C     C_2   0.753930 0.192223 0.765884 -0.084579
C24   C     C_2   0.626001 0.193313 0.830790 -0.162805
H4    H     H_    0.846760 0.133850 0.756564 0.189418
C25   C     C_2   0.779196 0.265992 0.704964 -0.135805
C26   C     C_2   0.629721 0.307143 0.669901 0.514924
H5    H     H_    0.924697 0.282302 0.685279 0.108014
C27   C     C_2   0.720000 0.176060 0.246103 -0.134575
C28   C     C_2   0.595185 0.177416 0.182275 -0.267986
C29   C     C_2   0.698443 0.237261 0.319660 0.489390
C30   C     C_2   0.663173 0.326159 0.313231 0.338243
O11   O     O_R   0.770210 0.079270 0.910680 -0.532535
O12   O     O_R   0.440150 0.091160 0.082270 -0.540302
O13   O     O_R   0.269970 0.914530 0.082860 -0.518683
C31   C     C_R   0.605231 0.111745 0.111987 0.695282
O14   O     O_R   0.440480 0.090100 0.911240 -0.506051
O15   O     O_R   0.270310 0.913460 0.910610 -0.518142
C32   C     C_R   0.611216 0.114209 0.885607 0.692378
O16   O     O_R   0.769870 0.080340 0.082930 -0.529886
O17   O     O_3   0.603660 0.938980 0.996790 -0.382538
V3    V     V_3+5 0.328750 0.007610 0.996740 1.695755
O18   O     O_R   0.940600 0.902510 0.911180 -0.547288
C33   C     C_R   0.111877 0.882139 0.881806 0.940447
O19   O     O_R   0.940270 0.903570 0.082200 -0.568925
C34   C     C_R   0.106479 0.885010 0.112141 0.743111
V4    V     V_3+5 0.828770 0.986010 0.996670 1.595049
O20   O     O_3   0.103730 0.054750 0.996710 -0.352111
F1    F     F_    0.099838 0.911042 0.480508 -0.560165
C35   C     C_2   0.359870 0.696691 0.276749 0.923333
O21   O     O_2   0.476939 0.730334 0.322459 -0.452818
O22   O     O_R   0.408412 0.681363 0.193347 -0.651020
H6    H     H_    0.543612 0.701950 0.177960 0.330130
F2    F     F_    0.213906 0.861401 0.250633 -0.638874
C36   C     C_2   0.517521 0.276068 0.856780 0.971074
O23   O     O_2   0.359413 0.269883 0.891534 -0.480531
O24   O     O_R   0.599864 0.360876 0.844767 -0.624869
H7    H     H_    0.513900 0.411706 0.866056 0.345164
F3    F     F_    0.448232 0.276988 0.686518 -0.672079
C37   C     C_2   0.874455 0.107316 0.250338 0.897962
O25   O     O_2   0.865350 0.049548 0.303707 -0.444699
O26   O     O_R   0.033374 0.110631 0.195490 -0.650663
H8    H     H_    0.130737 0.061255 0.205797 0.302584
C38   C     C_2   0.416859 0.234210 0.186991 0.945683
O27   O     O_2   0.361945 0.271879 0.124953 -0.491853
O28   O     O_R   0.308861 0.241937 0.261109 -0.651317
H9    H     H_    0.191027 0.281790 0.255893 0.312885
F4    F     F_    0.726517 0.201993 0.395843 -0.642102
C39   C     C_2   0.074281 0.487652 0.744228 0.858135
O29   O     O_2   0.902895 0.475614 0.734328 -0.556515
O30   O     O_R   0.212402 0.429945 0.708783 -0.620144
H10   H     H_    0.155363 0.384921 0.669526 0.316787
F5    F     F_    0.659394 0.366406 0.238081 -0.673918
F6    F     F_    0.152379 0.450876 0.904223 -0.612931
F7    F     F_    0.205252 0.753070 0.980314 -0.719622
F8    F     F_    0.109279 0.998940 0.764057 -0.688452
C40   C     C_2   0.099796 0.053445 0.598906 0.941154
O31   O     O_2   0.031708 0.075842 0.533293 -0.463601
O32   O     O_R   0.175781 0.119021 0.650711 -0.604846
H11   H     H_    0.167818 0.181532 0.626405 0.325504
F9    F     F_    0.833175 0.657208 0.291138 -0.638686

loop_
_geom_bond_atom_site_label_1
_geom_bond_atom_site_label_2
_ccdc_geom_bond_type
O18   V4    S    
C23   H4    S    
C25   C26   D    
C21   C22   D    
C12   C15   A    
C1    O6    A    
C7    H1    S    
O28   H9    S    
O15   C33   A    
O26   H8    S    
C22   F2    S    
O11   C32   A    
C17   C18   A    
C16   C17   A    
C21   H3    S    
C39   O30   S    
O5    C3    A    
C23   C24   D    
C24   C32   S    
C28   C31   S    
V2    O10   S    
O16   V4    S    
O12   V3    S    
O17   V3    S    
O19   V4    S    
C6    C7    A    
O8    V2    S    
C7    C8    A    
O14   C32   A    
O12   C31   A    
C11   C12   A    
C15   F8    S    
C36   O23   D    
O1    V2    S    
O7    V1    S    
C17   F1    S    
O9    C4    A    
C25   H5    S    
C20   C35   S    
C27   C29   S    
C19   C20   D    
C26   F3    S    
O22   H6    S    
C12   C13   A    
C23   C25   S    
C16   C40   S    
C38   O28   S    
O15   V3    S    
O30   H10   S    
C35   O22   S    
O18   C33   A    
C8    F7    S    
C4    C14   S    
C29   F4    S    
O19   C34   A    
C2    C30   S    
C27   C37   S    
O2    C1    A    
C37   O25   D    
V4    O20   S    
O11   V4    S    
C40   O32   S    
C5    C6    A    
C28   C38   S    
C39   O29   D    
C37   O26   S    
O3    C4    A    
O6    V2    S    
O9    V2    S    
O17   V4    S    
C3    C20   S    
C22   C34   S    
O2    V1    S    
C19   F9    S    
C27   C28   D    
O4    C2    A    
C13   C18   A    
C29   C30   D    
C11   C33   S    
O1    C2    A    
C6    F6    S    
V3    O20   S    
O24   H7    S    
O5    V1    S    
O8    C3    A    
C5    C10   A    
C5    C39   S    
C30   F5    S    
C9    C11   A    
C13   C14   A    
O4    V1    S    
O3    V1    S    
V1    O10   S    
C18   H2    S    
O13   V3    S    
C1    C26   S    
C40   O31   D    
C19   C21   S    
C24   C36   S    
C31   O16   A    
O7    V2    S    
O32   H11   S    
O14   V3    S    
C38   O27   D    
C8    C9    A    
C35   O21   D    
C10   C14   A    
C15   C16   A    
O13   C34   A    
C36   O24   S    
C9    C10   A    
