data_mof_unit_35662.cif
_audit_creation_date              2012-12-11T16:32:24-0500
_audit_creation_method            fapswitch 2.2
_symmetry_space_group_name_H-M    P1
_symmetry_Int_Tables_number       1
_space_group_crystal_system       triclinic
_cell_length_a                    6.949509
_cell_length_b                    14.56514
_cell_length_c                    16.16147
_cell_angle_alpha                 90.051229
_cell_angle_beta                  88.87107
_cell_angle_gamma                 90.166851
_cell_volume                      1635.54818513

loop_
_atom_site_label
_atom_site_type_symbol
_atom_type_description
_atom_site_fract_x
_atom_site_fract_y
_atom_site_fract_z
_atom_type_partial_charge
O1    O     O_R   0.361630 0.167340 0.164570 -0.540189
O2    O     O_R   0.638370 0.832660 0.835430 -0.535210
O3    O     O_R   0.690860 0.157560 0.338690 -0.517109
O4    O     O_R   0.309140 0.842440 0.661310 -0.510616
O5    O     O_R   0.861260 0.336420 0.339380 -0.548719
O6    O     O_R   0.138740 0.663580 0.660620 -0.555619
C1    C     C_R   0.521044 0.138098 0.370099 0.777072
C2    C     C_R   0.479455 0.862134 0.629146 0.786049
O7    O     O_R   0.691330 0.156310 0.165190 -0.515299
O8    O     O_R   0.308670 0.843690 0.834810 -0.519792
O9    O     O_R   0.861730 0.335160 0.164640 -0.538972
O10   O     O_R   0.138270 0.664840 0.835360 -0.544232
C3    C     C_R   0.522891 0.128160 0.141318 0.796269
C4    C     C_R   0.476577 0.868354 0.861819 0.801039
O11   O     O_R   0.361150 0.168600 0.339320 -0.540916
O12   O     O_R   0.638850 0.831400 0.660680 -0.544980
O13   O     O_3   0.527950 0.310560 0.252000 -0.388728
O14   O     O_3   0.472050 0.689440 0.748000 -0.385912
V1    V     V_3+5 0.802770 0.240990 0.251980 1.482112
V2    V     V_3+5 0.197230 0.759010 0.748020 1.473793
O15   O     O_R   0.191450 0.346190 0.165260 -0.547171
O16   O     O_R   0.808550 0.653810 0.834740 -0.544133
C5    C     C_R   0.022375 0.372404 0.140189 0.676507
C6    C     C_R   0.975666 0.629446 0.861795 0.671484
O17   O     O_R   0.190980 0.347440 0.338770 -0.558726
O18   O     O_R   0.809020 0.652560 0.661230 -0.543003
C7    C     C_R   0.022108 0.366793 0.369713 0.682675
C8    C     C_R   0.979231 0.633874 0.629694 0.679942
V3    V     V_3+5 0.302780 0.262760 0.251980 1.420975
V4    V     V_3+5 0.697220 0.737240 0.748020 1.437806
O19   O     O_3   0.027730 0.193200 0.251960 -0.349752
O20   O     O_3   0.972270 0.806800 0.748040 -0.353494
C9    C     C_3   0.836648 0.455298 0.497627 -0.229365
C10   C     C_3   0.177127 0.545243 0.503782 -0.257536
C11   C     C_3   0.973017 0.462479 0.571792 0.504537
C12   C     C_3   0.047286 0.538424 0.427797 0.497867
H1    H     H_    0.696872 0.418440 0.496958 0.110635
H2    H     H_    0.316357 0.582562 0.506722 0.124616
C13   C     C_3   0.995938 0.565492 0.558233 -0.121131
C14   C     C_3   0.014395 0.435480 0.440594 -0.130344
C15   C     C_3   0.865441 0.560146 0.481857 -0.241180
C16   C     C_3   0.149254 0.440306 0.515594 -0.278774
H3    H     H_    0.739706 0.603449 0.469329 0.110175
H4    H     H_    0.265391 0.390835 0.527742 0.118336
H5    H     H_    0.770668 0.317642 0.782765 0.138597
H6    H     H_    0.052748 0.695790 0.235284 0.150748
C17   C     C_R   0.065297 0.691073 0.026520 -0.143116
C18   C     C_R   0.917884 0.312347 0.978676 -0.144455
C19   C     C_R   0.081451 0.725360 0.106404 -0.120334
C20   C     C_R   0.851031 0.280946 0.903654 -0.137716
C21   C     C_R   0.055686 0.667171 0.173648 -0.117121
C22   C     C_R   0.811411 0.343142 0.841792 -0.126283
C23   C     C_R   0.029281 0.573066 0.161491 -0.157271
C24   C     C_R   0.837797 0.437030 0.853462 -0.149203
C25   C     C_R   0.027407 0.535384 0.081688 0.047747
C26   C     C_R   0.922535 0.470338 0.925821 0.047560
C27   C     C_R   0.029263 0.596589 0.012799 0.076543
C28   C     C_R   0.952343 0.407074 0.991774 0.074142
C29   C     C_R   0.009134 0.439150 0.069922 -0.184057
C30   C     C_R   0.979115 0.564010 0.933594 -0.190224
H7    H     H_    0.072810 0.740171 0.976414 0.119548
H8    H     H_    0.945772 0.261140 0.025317 0.124577
H9    H     H_    0.103698 0.798140 0.116227 0.141272
H10   H     H_    0.830847 0.208119 0.893268 0.139756
H11   H     H_    0.998712 0.529910 0.214250 0.140180
H12   H     H_    0.798424 0.482557 0.803845 0.144639
C31   C     C_3   0.375559 0.985026 0.441359 -0.214496
C32   C     C_3   0.631361 0.019359 0.560157 -0.219376
C33   C     C_3   0.546303 0.923205 0.465575 0.510212
C34   C     C_3   0.464942 0.082801 0.534904 0.543131
H13   H     H_    0.270731 0.969964 0.392199 0.159255
H14   H     H_    0.739520 0.029127 0.608856 0.162944
C35   C     C_3   0.493862 0.934798 0.558668 -0.171963
C36   C     C_3   0.510236 0.069128 0.441990 -0.157373
C37   C     C_3   0.325433 0.999620 0.535114 -0.190674
C38   C     C_3   0.680541 0.007406 0.465881 -0.218063
H15   H     H_    0.177894 0.999744 0.562699 0.151700
H16   H     H_    0.825601 0.017518 0.437668 0.144420
H17   H     H_    0.678625 0.798780 0.223952 0.170559
H18   H     H_    0.241793 0.183132 0.789205 0.166030
C39   C     C_R   0.408035 0.185623 0.982924 -0.148074
C40   C     C_R   0.556928 0.806375 0.023788 -0.154691
C41   C     C_R   0.328287 0.217600 0.911037 -0.201485
C42   C     C_R   0.604549 0.770273 0.099698 -0.185881
C43   C     C_R   0.303961 0.158674 0.845379 -0.144619
C44   C     C_R   0.636108 0.828123 0.165629 -0.130137
C45   C     C_R   0.368072 0.068900 0.848393 0.354876
C46   C     C_R   0.615747 0.922943 0.157748 0.354461
C47   C     C_R   0.435916 0.030432 0.923740 0.000918
C48   C     C_R   0.557194 0.963317 0.081284 -0.000982
C49   C     C_R   0.453365 0.091351 0.993193 0.017359
C50   C     C_R   0.534162 0.902255 0.012055 0.014831
C51   C     C_R   0.483241 0.935524 0.932743 -0.163910
C52   C     C_R   0.516000 0.059454 0.071337 -0.159317
H19   H     H_    0.430602 0.236575 0.030364 0.128028
H20   H     H_    0.534355 0.757094 0.974832 0.116944
H21   H     H_    0.287803 0.288947 0.905984 0.159338
H22   H     H_    0.620024 0.696803 0.107042 0.154024
O21   O     O_3   0.950882 0.429074 0.652944 -0.599180
C53   C     C_3   0.127032 0.442258 0.694828 0.063219
H23   H     H_    0.101852 0.478884 0.753593 0.125012
H24   H     H_    0.235972 0.486599 0.662634 0.128897
C54   C     C_3   0.215895 0.349986 0.711024 -0.321108
H25   H     H_    0.123132 0.312882 0.755760 0.202171
H26   H     H_    0.224212 0.309594 0.653111 0.226592
C55   C     C_3   0.415904 0.361082 0.744738 -0.853110
H27   H     H_    0.509854 0.400047 0.700717 0.236860
H28   H     H_    0.476189 0.291656 0.752512 0.244823
H29   H     H_    0.410511 0.397367 0.805201 0.241141
O22   O     O_3   0.104734 0.577106 0.351224 -0.605320
C56   C     C_3   0.293300 0.546827 0.327770 0.053309
H30   H     H_    0.287168 0.510572 0.267646 0.152276
H31   H     H_    0.359139 0.496678 0.370790 0.129697
C57   C     C_3   0.431643 0.627838 0.319044 -0.335200
H32   H     H_    0.372517 0.680866 0.277556 0.217035
H33   H     H_    0.452286 0.659160 0.380823 0.200469
C58   C     C_3   0.625003 0.595703 0.283496 -0.814420
H34   H     H_    0.684686 0.539648 0.321670 0.239959
H35   H     H_    0.728408 0.653517 0.282579 0.235136
H36   H     H_    0.607945 0.570373 0.219200 0.229864
Cl1   Cl    Cl    0.365861 0.016376 0.751449 -0.715893
Cl2   Cl    Cl    0.676427 0.981989 0.247671 -0.702231
O23   O     O_3   0.585912 0.844647 0.417291 -0.570563
C59   C     C_3   0.741215 0.793676 0.447938 0.057038
H37   H     H_    0.752136 0.733003 0.407385 0.167718
H38   H     H_    0.711478 0.769035 0.511893 0.092583
C60   C     C_3   0.936056 0.843461 0.441258 -0.354755
H39   H     H_    0.943720 0.884567 0.383390 0.240475
H40   H     H_    0.954265 0.888159 0.496195 0.178608
C61   C     C_3   0.102159 0.776417 0.439137 -0.810139
H41   H     H_    0.092883 0.729954 0.492782 0.227107
H42   H     H_    0.239466 0.813340 0.442565 0.249926
H43   H     H_    0.101593 0.738250 0.380196 0.269825
O24   O     O_3   0.421932 0.166744 0.574818 -0.571235
C62   C     C_3   0.570108 0.232125 0.559480 0.080030
H44   H     H_    0.506854 0.300741 0.570050 0.107225
H45   H     H_    0.620688 0.234423 0.494100 0.087051
C63   C     C_3   0.738385 0.222020 0.619118 -0.335384
H46   H     H_    0.758425 0.288044 0.651018 0.207173
H47   H     H_    0.704859 0.170416 0.667864 0.222321
C64   C     C_3   0.929029 0.199540 0.574758 -0.756517
H48   H     H_    0.913929 0.142844 0.529894 0.216769
H49   H     H_    0.036550 0.178989 0.621018 0.253172
H50   H     H_    0.983287 0.260458 0.540434 0.227062

loop_
_geom_bond_atom_site_label_1
_geom_bond_atom_site_label_2
_ccdc_geom_bond_type
C62   C63   S    
C19   H9    S    
C48   C52   A    
C25   C29   A    
C20   H10   S    
C23   C25   A    
C11   C13   S    
C56   H30   S    
C10   C16   S    
O4    C2    A    
V1    O19   S    
C57   H32   S    
C40   C50   A    
C62   H44   S    
C17   C19   A    
C5    C29   S    
O9    V1    S    
C36   C38   S    
C42   C44   A    
O3    C1    A    
C64   H49   S    
C39   H19   S    
C44   C46   A    
C55   H27   S    
C33   O23   S    
O12   V4    S    
O13   V3    S    
C33   C38   S    
C11   C16   S    
O7    C3    A    
O22   C56   S    
C2    C35   S    
C9    C11   S    
O5    C7    A    
C48   C50   A    
O7    V1    S    
O6    C8    A    
C56   H31   S    
O8    V2    S    
C19   C21   A    
C34   C36   S    
C20   C22   A    
C33   C35   S    
O14   V4    S    
C56   C57   S    
C23   H11   S    
C4    C51   S    
O14   V2    S    
C6    C30   S    
C18   C20   A    
C2    O12   A    
C15   H3    S    
C12   C15   S    
C16   H4    S    
C11   O21   S    
O1    V3    S    
C39   C41   A    
C22   C24   A    
O11   V3    S    
C1    C36   S    
C43   C45   A    
O15   C5    A    
O17   V3    S    
C24   C26   A    
C9    C14   S    
C40   H20   S    
C10   C13   S    
O23   C59   S    
C13   C15   S    
O8    C4    A    
C58   H36   S    
C45   Cl1   S    
C27   C30   A    
C1    O11   A    
C8    C13   S    
C32   C35   S    
O15   V3    S    
H6    C21   S    
C53   C54   S    
C9    H1    S    
C26   C30   A    
C21   C23   A    
O4    V2    S    
C61   H42   S    
C60   H40   S    
H18   C43   S    
C17   C27   A    
C18   H8    S    
O21   C53   S    
C12   C14   S    
C7    C14   S    
C32   H14   S    
O10   V2    S    
C53   H24   S    
C54   H26   S    
C31   C36   S    
C32   C38   S    
O3    V1    S    
C37   H15   S    
C63   H47   S    
C59   C60   S    
C24   H12   S    
C46   Cl2   S    
C41   C43   A    
C46   C48   A    
O18   V4    S    
C40   C42   A    
C25   C27   A    
C12   O22   S    
O16   C6    A    
C64   H50   S    
C61   H43   S    
C31   C37   S    
C35   C37   S    
C60   H39   S    
C54   H25   S    
C59   H38   S    
V2    O20   S    
C62   H45   S    
O16   V4    S    
C10   H2    S    
C38   H16   S    
C14   C16   S    
C63   C64   S    
C17   H7    S    
C57   H33   S    
C18   C28   A    
O24   C62   S    
O5    V1    S    
O17   C7    A    
O6    V2    S    
O10   C6    A    
O18   C8    A    
H5    C22   S    
C3    C52   S    
O2    V4    S    
C9    C15   S    
C58   H35   S    
C61   H41   S    
C28   C29   A    
C60   C61   S    
C42   H22   S    
V3    O19   S    
C64   H48   S    
C49   C52   A    
V4    O20   S    
C55   H28   S    
O9    C5    A    
C50   C51   A    
O13   V1    S    
C10   C12   S    
C26   C28   A    
C54   C55   S    
C31   H13   S    
C47   C51   A    
O2    C4    A    
C57   C58   S    
C63   H46   S    
C39   C49   A    
O1    C3    A    
C32   C34   S    
C47   C49   A    
C41   H21   S    
C34   C37   S    
C34   O24   S    
C45   C47   A    
C53   H23   S    
C31   C33   S    
C58   H34   S    
H17   C44   S    
C59   H37   S    
C55   H29   S    
