data_mof_unit_37264.cif
_audit_creation_date              2012-12-10T19:32:21-0500
_audit_creation_method            fapswitch 2.2
_symmetry_space_group_name_H-M    P1
_symmetry_Int_Tables_number       1
_space_group_crystal_system       triclinic
_cell_length_a                    23.348044
_cell_length_b                    15.755768
_cell_length_c                    14.949953
_cell_angle_alpha                 90.103815
_cell_angle_beta                  90.309235
_cell_angle_gamma                 90.226191
_cell_volume                      5499.45266401

loop_
_atom_site_label
_atom_site_type_symbol
_atom_type_description
_atom_site_fract_x
_atom_site_fract_y
_atom_site_fract_z
_atom_type_partial_charge
C1    C     C_R   0.499681 0.337681 0.499899 0.865592
C2    C     C_R   0.698246 0.444069 0.424619 0.401364
C3    C     C_R   0.233151 0.469826 0.554824 0.118483
C4    C     C_R   0.757585 0.446040 0.413793 0.113712
C5    C     C_R   0.207595 0.509269 0.480247 0.053426
C6    C     C_R   0.792394 0.479082 0.482422 0.041903
C7    C     C_3   0.544028 0.973403 0.547319 0.503736
C8    C     C_3   0.453038 0.026704 0.451339 0.501233
C9    C     C_3   0.547074 0.028308 0.462290 0.080759
C10   C     C_3   0.449985 0.971760 0.536373 0.077101
C11   C     C_1   0.498771 0.249180 0.499599 -0.188158
C12   C     C_R   0.500149 0.662335 0.500072 0.891244
C13   C     C_1   0.499928 0.750866 0.500129 -0.167301
C14   C     C_3   0.494695 0.027831 0.583912 0.070753
C15   C     C_3   0.502370 0.972222 0.414760 0.072310
C16   C     C_R   0.389074 0.502060 0.499573 0.964376
C17   C     C_R   0.611062 0.497039 0.500169 0.972525
C18   C     C_3   0.497945 0.083689 0.499099 -0.143675
C19   C     C_3   0.499114 0.916378 0.499592 -0.147164
C20   C     C_1   0.498093 0.174193 0.499252 0.038163
C21   C     C_1   0.499625 0.825865 0.499946 0.047196
C22   C     C_3   0.523496 0.427347 0.970360 0.428938
C23   C     C_R   0.241202 0.549623 0.415200 0.484689
C24   C     C_3   0.477108 0.572659 0.029712 0.427825
C25   C     C_3   0.554453 0.493756 0.030218 0.432544
C26   C     C_3   0.446163 0.506264 0.969884 0.432861
C27   C     C_3   0.469477 0.433883 0.029010 -0.018863
C28   C     C_3   0.531131 0.566153 0.971050 -0.021823
C29   C     C_3   0.500254 0.499926 0.090282 -0.263964
C30   C     C_3   0.500326 0.500088 0.909757 -0.263247
C31   C     C_1   0.500134 0.499966 0.190015 0.231955
C32   C     C_1   0.500146 0.500037 0.809997 0.226198
C33   C     C_R   0.877896 0.562652 0.462409 0.624786
C34   C     C_R   0.768127 0.509533 0.562407 0.491176
C35   C     C_R   0.121572 0.428988 0.450684 0.580397
C36   C     C_R   0.883498 0.411261 0.460477 0.589030
C37   C     C_R   0.116364 0.579385 0.469125 0.624624
C38   C     C_R   0.942238 0.414589 0.441749 -0.194625
C39   C     C_R   0.057453 0.578404 0.450548 -0.207077
C40   C     C_R   0.969657 0.494682 0.442230 -0.152720
C41   C     C_R   0.029816 0.499068 0.441286 -0.146581
C42   C     C_R   0.937261 0.569988 0.449706 -0.203688
C43   C     C_R   0.062250 0.423781 0.435855 -0.193015
C44   C     C_R   0.974426 0.340504 0.423841 0.448785
C45   C     C_R   0.300546 0.554185 0.426660 0.026657
C46   C     C_R   0.025146 0.653916 0.443751 0.457313
C47   C     C_R   0.034206 0.345696 0.417983 0.461298
C48   C     C_R   0.965174 0.649872 0.444886 0.450990
C49   C     C_3   0.925232 0.249150 0.332355 -0.191465
C50   C     C_3   0.072181 0.745325 0.351760 -0.213991
C51   C     C_3   0.650710 0.472746 0.001100 -0.277312
C52   C     C_3   0.350035 0.527707 0.999756 -0.272337
C53   C     C_3   0.559324 0.293892 0.002439 -0.293698
C54   C     C_3   0.441280 0.706155 0.997778 -0.286983
C55   C     C_3   0.594661 0.686569 0.004253 -0.706898
C56   C     C_R   0.708409 0.515170 0.569734 0.024172
C57   C     C_3   0.405869 0.313590 0.995757 -0.709715
C58   C     C_3   0.081092 0.273785 0.308869 -0.222932
C59   C     C_3   0.917718 0.750168 0.363660 -0.176485
C60   C     C_3   0.207955 0.532112 0.273469 -0.387343
C61   C     C_3   0.828835 0.474051 0.676430 -0.276709
C62   C     C_3   0.349636 0.687617 0.405186 -0.713361
C63   C     C_3   0.673664 0.499912 0.721005 -0.706024
C64   C     C_3   0.330105 0.337338 0.600862 -0.257309
C65   C     C_3   0.650218 0.324607 0.384071 -0.279854
C66   C     C_3   0.175263 0.494001 0.685495 -0.717497
C67   C     C_R   0.326703 0.507934 0.496614 -0.300558
C68   C     C_3   0.792653 0.481032 0.266914 -0.758262
C69   C     C_3   0.641873 0.002127 0.398642 -0.717698
C70   C     C_3   0.355216 0.998355 0.599841 -0.715287
C71   C     C_3   0.622528 0.001640 0.638428 -0.319326
C72   C     C_3   0.374575 0.998250 0.360203 -0.326081
C73   C     C_3   0.514513 0.998916 0.254454 -0.744220
C74   C     C_3   0.482479 0.001111 0.744207 -0.741746
C75   C     C_R   0.673346 0.484927 0.499167 -0.320522
C76   C     C_R   0.293080 0.464630 0.560078 0.388486
H1    H     H_    0.904943 0.307206 0.303994 0.130207
H2    H     H_    0.348480 0.596631 0.014416 0.191985
H3    H     H_    0.357900 0.491823 0.062545 0.147514
H4    H     H_    0.307093 0.508686 0.974556 0.178867
H5    H     H_    0.520489 0.255834 0.017144 0.197028
H6    H     H_    0.575938 0.323537 0.065110 0.184874
H7    H     H_    0.592539 0.249324 0.978393 0.172640
H8    H     H_    0.424860 0.676586 0.934944 0.183416
H9    H     H_    0.480087 0.744381 0.983379 0.196677
H10   H     H_    0.407940 0.750552 0.021753 0.173547
H11   H     H_    0.587361 0.624380 0.881509 0.221488
H12   H     H_    0.891332 0.199806 0.336433 0.195362
H13   H     H_    0.608282 0.747961 0.974765 0.219380
H14   H     H_    0.633416 0.651823 0.026512 0.256831
H15   H     H_    0.567285 0.699955 0.063098 0.269392
H16   H     H_    0.413050 0.375929 0.118413 0.222378
H17   H     H_    0.392172 0.252232 0.025238 0.217324
H18   H     H_    0.433281 0.300130 0.936972 0.270037
H19   H     H_    0.367159 0.348410 0.973422 0.258931
H20   H     H_    0.044722 0.287610 0.262901 0.095412
H21   H     H_    0.098048 0.210388 0.290871 0.190880
H22   H     H_    0.115684 0.321008 0.297220 0.164327
H23   H     H_    0.958372 0.225070 0.286143 0.139226
H24   H     H_    0.903733 0.696160 0.320303 0.113421
H25   H     H_    0.952557 0.786349 0.330937 0.147095
H26   H     H_    0.880661 0.793583 0.369878 0.199435
H27   H     H_    0.176936 0.481391 0.291588 0.169779
H28   H     H_    0.249342 0.503443 0.252743 0.158368
H29   H     H_    0.190136 0.566192 0.214805 0.194298
H30   H     H_    0.799723 0.418659 0.686580 0.143264
H31   H     H_    0.842107 0.496942 0.743640 0.184960
H32   H     H_    0.868148 0.453653 0.641221 0.181462
H33   H     H_    0.318633 0.610299 0.303700 0.256972
H34   H     H_    0.040198 0.728336 0.299141 0.087746
H35   H     H_    0.310762 0.727073 0.414544 0.246745
H36   H     H_    0.379068 0.720827 0.358669 0.224777
H37   H     H_    0.371970 0.680147 0.470467 0.219317
H38   H     H_    0.704445 0.610835 0.664494 0.268016
H39   H     H_    0.714699 0.483266 0.754263 0.224300
H40   H     H_    0.651443 0.440795 0.699343 0.249152
H41   H     H_    0.646106 0.532865 0.770217 0.213584
H42   H     H_    0.348428 0.301293 0.657823 0.196592
H43   H     H_    0.362228 0.336644 0.546206 0.149334
H44   H     H_    0.290434 0.303761 0.578750 0.158181
H45   H     H_    0.111901 0.708445 0.340365 0.208914
H46   H     H_    0.625090 0.323979 0.447094 0.135620
H47   H     H_    0.689097 0.284565 0.391776 0.144388
H48   H     H_    0.623071 0.295596 0.331025 0.197727
H49   H     H_    0.215573 0.381299 0.654270 0.263836
H50   H     H_    0.146583 0.460869 0.733177 0.228226
H51   H     H_    0.149870 0.543213 0.650295 0.256592
H52   H     H_    0.210635 0.524864 0.723709 0.248072
H53   H     H_    0.762911 0.363057 0.306118 0.257407
H54   H     H_    0.751258 0.508079 0.243754 0.267907
H55   H     H_    0.815073 0.453058 0.208636 0.219257
H56   H     H_    0.082977 0.813462 0.343449 0.190316
H57   H     H_    0.820012 0.532500 0.294898 0.240028
H58   H     H_    0.614172 0.116218 0.453879 0.210492
H59   H     H_    0.674328 0.033137 0.355523 0.220040
H60   H     H_    0.623057 0.947715 0.361283 0.269051
H61   H     H_    0.663558 0.978373 0.459815 0.261352
H62   H     H_    0.382724 0.884182 0.544532 0.220680
H63   H     H_    0.322698 0.967544 0.642995 0.229414
H64   H     H_    0.333576 0.022129 0.538638 0.258202
H65   H     H_    0.374121 0.052748 0.637127 0.262110
H66   H     H_    0.605227 0.012756 0.706282 0.175448
H67   H     H_    0.643980 0.511163 0.939755 0.148626
H68   H     H_    0.624368 0.062714 0.601404 0.141098
H69   H     H_    0.667215 0.979229 0.646653 0.200037
H70   H     H_    0.373164 0.936925 0.396832 0.144014
H71   H     H_    0.391621 0.987653 0.292096 0.176830
H72   H     H_    0.329756 0.020272 0.352602 0.197864
H73   H     H_    0.475466 0.892858 0.311295 0.222540
H74   H     H_    0.513501 0.966061 0.188690 0.221483
H75   H     H_    0.556601 0.031026 0.261324 0.268121
H76   H     H_    0.480217 0.047450 0.255575 0.253154
H77   H     H_    0.521532 0.107195 0.687435 0.223384
H78   H     H_    0.651205 0.404345 0.983755 0.193167
H79   H     H_    0.483448 0.033963 0.809974 0.220625
H80   H     H_    0.516784 0.952589 0.743128 0.254364
H81   H     H_    0.440396 0.968997 0.737277 0.270569
H82   H     H_    0.693749 0.489202 0.027858 0.178463
N1    N     N_R   0.852917 0.484438 0.469113 -0.322221
N2    N     N_2   0.782678 0.415895 0.333108 -0.271183
N3    N     N_2   0.598257 0.063132 0.421784 -0.303326
N4    N     N_2   0.398723 0.937128 0.576782 -0.296035
N5    N     N_2   0.506652 0.937505 0.325248 -0.286212
N6    N     N_2   0.490371 0.062528 0.673430 -0.290041
N7    N     N_R   0.146858 0.505674 0.467799 -0.317777
N8    N     N_1   0.500020 0.500000 0.268010 -0.089683
N9    N     N_1   0.499980 0.500000 0.731990 -0.092363
N10   N     N_2   0.563618 0.637804 0.937636 -0.301025
N11   N     N_2   0.436893 0.362324 0.062423 -0.302154
N12   N     N_2   0.334028 0.605730 0.368247 -0.255936
N13   N     N_2   0.683856 0.555512 0.645714 -0.254453
N14   N     N_2   0.198187 0.433296 0.622622 -0.259185
O1    O     O_R   0.500000 0.376780 0.574460 -0.613909
O2    O     O_2   0.153888 0.358166 0.450520 -0.530243
O3    O     O_2   0.856962 0.335913 0.472432 -0.529512
O4    O     O_2   0.142946 0.652600 0.491844 -0.500940
O5    O     O_3   0.948685 0.261267 0.418796 -0.526593
O6    O     O_3   0.051122 0.732936 0.439344 -0.529993
O7    O     O_3   0.609920 0.489202 0.068094 -0.587438
O8    O     O_3   0.390565 0.510681 0.932492 -0.587238
O9    O     O_3   0.547955 0.353150 0.933980 -0.608662
O10   O     O_3   0.452596 0.646794 0.066153 -0.607889
O11   O     O_3   0.064393 0.272340 0.399639 -0.523219
O12   O     O_R   0.500000 0.623220 0.425540 -0.607061
O13   O     O_3   0.934721 0.724906 0.450390 -0.523927
O14   O     O_3   0.215448 0.590792 0.343986 -0.589778
O15   O     O_3   0.802286 0.541714 0.630585 -0.575804
O16   O     O_3   0.318512 0.420832 0.629851 -0.576413
O17   O     O_3   0.664618 0.408023 0.358002 -0.565482
O18   O     O_3   0.590697 0.937662 0.594243 -0.585154
O19   O     O_3   0.406345 0.062324 0.404379 -0.590135
O20   O     O_R   0.500010 0.376780 0.425520 -0.612329
O21   O     O_R   0.499990 0.623220 0.574480 -0.611560
O22   O     O_R   0.416150 0.499970 0.574490 -0.567817
O23   O     O_R   0.583850 0.500030 0.425510 -0.559801
O24   O     O_R   0.416160 0.499980 0.425550 -0.608928
O25   O     O_R   0.583840 0.500020 0.574450 -0.608150
O26   O     O_2   0.845027 0.632587 0.469097 -0.496554
Zn1   Zn    Zn3+2 0.499990 0.500000 0.599450 1.006587
Zn2   Zn    Zn3+2 0.500010 0.500000 0.400550 1.014514

loop_
_geom_bond_atom_site_label_1
_geom_bond_atom_site_label_2
_ccdc_geom_bond_type
C30   C32   S    
C51   H78   S    
C34   C56   A    
C23   C45   A    
C73   H74   S    
O1    Zn1   S    
C12   O21   A    
C46   O6    S    
C58   H22   S    
C2    O17   S    
C50   H34   S    
O24   Zn2   S    
C45   N12   S    
C54   H8    S    
C6    N1    S    
C39   C41   A    
C60   H28   S    
C4    N2    S    
C25   C28   S    
C15   C19   S    
C50   H45   S    
C1    O1    A    
C26   C27   S    
C64   H43   S    
C33   C42   A    
C66   N14   S    
C68   H57   S    
C50   O6    S    
C69   N3    S    
C55   H14   S    
C56   N13   S    
C63   H41   S    
C51   O7    S    
C3    N14   S    
C23   O14   S    
C27   C29   S    
C8    O19   S    
C61   O15   S    
C64   H42   S    
C66   H51   S    
C53   H5    S    
C65   H48   S    
C61   H32   S    
H49   N14   S    
C58   H20   S    
C24   C29   S    
C55   H15   S    
C36   N1    A    
C32   N9    T    
C7    C14   S    
C62   H35   S    
H11   N10   S    
C66   H52   S    
O12   Zn2   S    
C22   C25   S    
C1    C11   S    
C45   C67   A    
C54   O10   S    
C7    O18   S    
C17   O25   A    
H73   N5    S    
C5    N7    S    
C52   H3    S    
C35   C43   A    
C27   N11   S    
C72   O19   S    
C57   N11   S    
C76   O16   S    
C44   C47   A    
C70   H64   S    
C63   H39   S    
C40   C42   A    
C70   H63   S    
C69   H59   S    
C56   C75   A    
C57   H17   S    
C73   H75   S    
C25   C29   S    
C59   H24   S    
C41   C43   A    
C49   H12   S    
C58   H21   S    
C55   N10   S    
C52   H2    S    
C70   N4    S    
H16   N11   S    
C49   O5    S    
C69   H61   S    
H38   N13   S    
C62   N12   S    
C46   C48   A    
C11   C20   T    
H77   N6    S    
C24   O10   S    
C59   H25   S    
C2    C75   A    
C62   H37   S    
C4    C6    A    
C10   C14   S    
C54   H10   S    
O20   Zn2   S    
C37   N7    A    
C72   H72   S    
C8    C18   S    
C6    C34   A    
C53   H6    S    
C68   H55   S    
C2    C4    A    
C68   H54   S    
C52   O8    S    
C58   O11   S    
C38   C44   A    
C16   O24   A    
C53   O9    S    
C49   H23   S    
C63   N13   S    
O22   Zn1   S    
C5    C23   A    
C31   N8    T    
C10   C19   S    
C29   C31   S    
C13   C21   T    
H62   N4    S    
C16   C67   S    
C42   C48   A    
C65   H46   S    
O25   Zn1   S    
C9    N3    S    
C3    C76   A    
C59   H26   S    
C64   O16   S    
C50   H56   S    
C39   C46   A    
C63   H40   S    
C47   O11   S    
C40   C41   A    
C71   H69   S    
C65   O17   S    
C26   C30   S    
C69   H60   S    
C7    C19   S    
C57   H18   S    
C71   H66   S    
C73   H76   S    
C57   H19   S    
C22   C27   S    
C17   O23   A    
C68   N2    S    
C60   H27   S    
C61   H30   S    
H33   N12   S    
O23   Zn2   S    
C10   N4    S    
C15   N5    S    
C7    C9    S    
C70   H65   S    
C60   O14   S    
C22   C30   S    
C74   H81   S    
C19   C21   S    
C35   O2    S    
C14   C18   S    
C8    C10   S    
C24   C28   S    
C24   C26   S    
C3    C5    A    
C44   O5    S    
C54   H9    S    
C25   O7    S    
C26   O8    S    
C8    C15   S    
C72   H71   S    
C51   H82   S    
C64   H44   S    
H58   N3    S    
C53   H7    S    
C74   N6    S    
C36   C38   A    
C9    C15   S    
C48   O13   S    
C73   N5    S    
O21   Zn1   S    
C37   O4    S    
C38   C40   A    
C12   O12   A    
C33   O26   S    
C72   H70   S    
C28   C30   S    
C35   N7    A    
C49   H1    S    
C74   H79   S    
C59   O13   S    
C18   C20   S    
C22   O9    S    
C65   H47   S    
C71   O18   S    
C14   N6    S    
C34   O15   S    
C55   H13   S    
N8    Zn2   S    
C16   O22   A    
C28   N10   S    
C1    O20   A    
C66   H50   S    
C9    C18   S    
C62   H36   S    
C12   C13   S    
C36   O3    S    
C37   C39   A    
C51   H67   S    
C61   H31   S    
C17   C75   S    
N9    Zn1   S    
C74   H80   S    
C67   C76   A    
C52   H4    S    
C43   C47   A    
H53   N2    S    
C60   H29   S    
C33   N1    A    
C71   H68   S    
