data_mof_unit_8875.cif
_audit_creation_date              2012-12-11T14:39:26-0500
_audit_creation_method            fapswitch 2.2
_symmetry_space_group_name_H-M    P1
_symmetry_Int_Tables_number       1
_space_group_crystal_system       triclinic
_cell_length_a                    7.204501
_cell_length_b                    14.138667
_cell_length_c                    16.306004
_cell_angle_alpha                 90.094139
_cell_angle_beta                  97.067153
_cell_angle_gamma                 89.545278
_cell_volume                      1648.29161482

loop_
_atom_site_label
_atom_site_type_symbol
_atom_type_description
_atom_site_fract_x
_atom_site_fract_y
_atom_site_fract_z
_atom_type_partial_charge
O1    O     O_R   0.525340 0.338340 0.164530 -0.530258
O2    O     O_R   0.474660 0.661660 0.835470 -0.529912
O3    O     O_R   0.974660 0.838340 0.835470 -0.534236
O4    O     O_R   0.025340 0.161660 0.164530 -0.533538
O5    O     O_R   0.253520 0.352000 0.336710 -0.542236
O6    O     O_R   0.746480 0.648000 0.663290 -0.542228
O7    O     O_R   0.246480 0.852000 0.663290 -0.541999
O8    O     O_R   0.753520 0.148000 0.336710 -0.541963
O9    O     O_R   0.083330 0.168380 0.337300 -0.532985
O10   O     O_R   0.916670 0.831620 0.662700 -0.534888
O11   O     O_R   0.416670 0.668380 0.662700 -0.534265
O12   O     O_R   0.583330 0.331620 0.337300 -0.534481
C1    C     C_R   0.431832 0.368712 0.363823 0.688514
C2    C     C_R   0.568167 0.631231 0.636223 0.688511
C3    C     C_R   0.067483 0.868720 0.636295 0.687473
C4    C     C_R   0.932499 0.131365 0.363800 0.693332
O13   O     O_R   0.195840 0.349670 0.165140 -0.547294
O14   O     O_R   0.804160 0.650330 0.834860 -0.544841
O15   O     O_R   0.304160 0.849670 0.834860 -0.544528
O16   O     O_R   0.695840 0.150330 0.165140 -0.545510
C5    C     C_R   0.357505 0.373087 0.138918 0.730397
C6    C     C_R   0.642432 0.626722 0.860935 0.731837
C7    C     C_R   0.139719 0.874890 0.859754 0.740338
C8    C     C_R   0.857854 0.131651 0.135188 0.743218
O17   O     O_3   0.387830 0.193120 0.250910 -0.375942
O18   O     O_3   0.612170 0.806880 0.749090 -0.377825
O19   O     O_3   0.112170 0.693120 0.749090 -0.373449
O20   O     O_3   0.887830 0.306880 0.250910 -0.375444
V1    V     V_3+5 0.113010 0.264540 0.250910 1.394999
V2    V     V_3+5 0.886990 0.735460 0.749090 1.395463
V3    V     V_3+5 0.386990 0.764540 0.749090 1.395500
V4    V     V_3+5 0.613010 0.235460 0.250910 1.397625
H1    H     H_    0.779926 0.809278 0.266835 0.112913
H2    H     H_    0.217329 0.190887 0.733678 0.114233
H3    H     H_    0.720736 0.308283 0.733192 0.116658
H4    H     H_    0.278711 0.691586 0.266943 0.115405
C9    C     C_R   0.071287 0.195201 0.527888 -0.143448
C10   C     C_R   0.928278 0.804910 0.472374 -0.143207
C11   C     C_R   0.429681 0.695642 0.472264 -0.143561
C12   C     C_R   0.570048 0.304253 0.527836 -0.143491
C13   C     C_R   0.136789 0.227953 0.606712 -0.103875
C14   C     C_R   0.861974 0.772176 0.393654 -0.103821
C15   C     C_R   0.362635 0.728593 0.393616 -0.104434
C16   C     C_R   0.636901 0.271287 0.606508 -0.104316
C17   C     C_R   0.167467 0.165047 0.672445 -0.133270
C18   C     C_R   0.830583 0.835106 0.327977 -0.135561
C19   C     C_R   0.329915 0.665608 0.328031 -0.133230
C20   C     C_R   0.669661 0.334275 0.672090 -0.133100
C21   C     C_R   0.133096 0.068929 0.659783 -0.144339
C22   C     C_R   0.865307 0.931212 0.340569 -0.141454
C23   C     C_R   0.363877 0.569223 0.340656 -0.145163
C24   C     C_R   0.635908 0.430678 0.659441 -0.145252
C25   C     C_R   0.068225 0.033507 0.580194 0.065176
C26   C     C_R   0.931112 0.966620 0.420051 0.065761
C27   C     C_R   0.430334 0.533626 0.420075 0.065368
C28   C     C_R   0.569570 0.466282 0.580009 0.065355
C29   C     C_R   0.036482 0.097783 0.513017 0.054481
C30   C     C_R   0.963175 0.902335 0.487199 0.054810
C31   C     C_R   0.464048 0.597961 0.487105 0.055195
C32   C     C_R   0.535840 0.401943 0.512978 0.055183
C33   C     C_R   0.031815 0.935982 0.567054 -0.174569
C34   C     C_R   0.968016 0.064129 0.433118 -0.176225
C35   C     C_R   0.466274 0.435837 0.433206 -0.174822
C36   C     C_R   0.533703 0.564078 0.566864 -0.174766
H5    H     H_    0.047253 0.247267 0.479130 0.117827
H6    H     H_    0.952723 0.752820 0.521095 0.118452
H7    H     H_    0.455232 0.747743 0.520917 0.118047
H8    H     H_    0.544490 0.252160 0.479176 0.117721
H9    H     H_    0.162947 0.302624 0.616880 0.129641
H10   H     H_    0.835639 0.697513 0.383529 0.129735
H11   H     H_    0.336771 0.803463 0.383475 0.130043
H12   H     H_    0.662611 0.196408 0.616669 0.129419
H13   H     H_    0.156824 0.023029 0.713127 0.100340
H14   H     H_    0.841007 0.977122 0.287252 0.101910
H15   H     H_    0.338342 0.523232 0.287438 0.099786
H16   H     H_    0.661468 0.476680 0.712652 0.099556
C37   C     C_2   0.137532 0.948959 0.924515 -0.344064
C38   C     C_2   0.856880 0.067429 0.062896 -0.339746
C39   C     C_2   0.348365 0.436044 0.066207 -0.328441
C40   C     C_2   0.651539 0.563375 0.933400 -0.329416
C41   C     C_2   0.980572 0.997696 0.940759 0.157114
C42   C     C_2   0.992385 0.066413 0.010594 0.173205
C43   C     C_2   0.498666 0.483344 0.043858 0.176592
C44   C     C_2   0.501167 0.516109 0.955718 0.175574
H17   H     H_    0.740644 0.018654 0.051991 0.109361
H18   H     H_    0.269764 0.962535 0.962219 0.114736
H19   H     H_    0.781348 0.566147 0.974669 0.112134
H20   H     H_    0.218711 0.432935 0.024861 0.110332
C45   C     C_3   0.149475 0.137821 0.015835 -0.710519
H21   H     H_    0.221697 0.135955 0.959464 0.176802
H22   H     H_    0.093095 0.210728 0.020457 0.195837
H23   H     H_    0.255542 0.122005 0.069470 0.217127
C46   C     C_3   0.793908 0.990798 0.886925 -0.687900
H24   H     H_    0.696995 0.048335 0.901192 0.175234
H25   H     H_    0.813080 0.998651 0.820716 0.201107
H26   H     H_    0.725834 0.922534 0.897700 0.215549
C47   C     C_3   0.339032 0.490271 0.890964 -0.725195
H27   H     H_    0.307047 0.413930 0.895652 0.178506
H28   H     H_    0.213412 0.533057 0.900292 0.207868
H29   H     H_    0.371640 0.499675 0.826741 0.204255
C48   C     C_3   0.660732 0.509295 0.108615 -0.726355
H30   H     H_    0.693121 0.585561 0.103702 0.178198
H31   H     H_    0.627819 0.500307 0.172841 0.204361
H32   H     H_    0.786202 0.466260 0.099529 0.207248

loop_
_geom_bond_atom_site_label_1
_geom_bond_atom_site_label_2
_ccdc_geom_bond_type
O1    C5    A    
C46   H24   S    
C12   C32   A    
C27   C31   A    
O13   V1    S    
O3    C7    A    
C40   C44   D    
O15   V3    S    
C41   C42   S    
C29   C34   A    
C31   C36   A    
C22   C26   A    
C42   C45   S    
C32   C35   A    
C44   C47   S    
O20   V1    S    
O9    C4    A    
C23   H15   S    
C10   C14   A    
C40   H19   S    
O10   C3    A    
C22   H14   S    
O16   V4    S    
O4    C8    A    
O11   C2    A    
C14   H10   S    
H4    C19   S    
C14   C18   A    
O10   V2    S    
C10   C30   A    
C25   C33   A    
O16   C8    A    
C9    H5    S    
O2    C6    A    
C28   C36   A    
O14   V2    S    
C37   C41   D    
C45   H22   S    
O5    C1    A    
O4    V1    S    
O9    V1    S    
C30   C33   A    
O7    C3    A    
O11   V3    S    
O18   V3    S    
O8    C4    A    
O12   V4    S    
O19   V2    S    
H1    C18   S    
C4    C34   S    
H3    C20   S    
C39   H20   S    
C47   H28   S    
C47   H27   S    
O5    V1    S    
O7    V3    S    
O8    V4    S    
C48   H30   S    
C10   H6    S    
C25   C29   A    
C19   C23   A    
C26   C34   A    
O1    V4    S    
O13   C5    A    
C28   C32   A    
C27   C35   A    
O2    V3    S    
O3    V2    S    
O15   C7    A    
O6    C2    A    
C41   C46   S    
C38   C42   D    
C43   C44   S    
C1    C35   S    
C17   C21   A    
C11   C31   A    
C5    C39   S    
C3    C33   S    
H2    C17   S    
C7    C37   S    
C45   H23   S    
C2    C36   S    
C38   H17   S    
C8    C38   S    
O6    V2    S    
C37   H18   S    
C48   H32   S    
C21   H13   S    
C47   H29   S    
C13   H9    S    
C26   C30   A    
C15   H11   S    
C43   C48   S    
O14   C6    A    
C11   H7    S    
C24   H16   S    
C11   C15   A    
C46   H26   S    
C18   C22   A    
C6    C40   S    
C39   C43   D    
C46   H25   S    
O17   V4    S    
C21   C25   A    
C16   H12   S    
C23   C27   A    
C9    C13   A    
C16   C20   A    
C12   C16   A    
O12   C1    A    
C48   H31   S    
C12   H8    S    
C13   C17   A    
C45   H21   S    
C20   C24   A    
C15   C19   A    
C9    C29   A    
C24   C28   A    
