data_mof_unit_29786.cif
_audit_creation_date              2013-03-05T16:43:31-0500
_audit_creation_method            fapswitch 2.2
_symmetry_space_group_name_H-M    P1
_symmetry_Int_Tables_number       1
_space_group_crystal_system       triclinic
_cell_length_a                    10.507102
_cell_length_b                    10.669373
_cell_length_c                    9.886812
_cell_angle_alpha                 89.614908
_cell_angle_beta                  89.013572
_cell_angle_gamma                 90.529151
_cell_volume                      1108.11530062

loop_
_atom_site_label
_atom_site_type_symbol
_atom_site_description
_atom_site_fract_x
_atom_site_fract_y
_atom_site_fract_z
_atom_type_partial_charge
O1    O     O_R   0.500020 0.316790 0.614690 -0.608369
O2    O     O_R   0.500000 0.316760 0.385350 -0.629026
C1    C     C_R   0.505163 0.260023 0.500134 0.874982
O3    O     O_R   0.313960 0.499990 0.614650 -0.600956
O4    O     O_R   0.313940 0.499950 0.385310 -0.633643
C2    C     C_R   0.257350 0.501526 0.500962 0.939970
Zn1   Zn    Zn3+2 0.500010 0.500020 0.653130 0.999718
Zn2   Zn    Zn3+2 0.499990 0.499980 0.346870 1.008390
O5    O     O_R   0.500000 0.683240 0.614650 -0.603370
O6    O     O_R   0.499980 0.683210 0.385310 -0.600289
O7    O     O_R   0.686060 0.500050 0.614690 -0.621167
O8    O     O_R   0.686040 0.500010 0.385350 -0.579067
C3    C     C_R   0.504917 0.740000 0.499530 0.934245
C4    C     C_R   0.742557 0.500248 0.498810 0.923272
C5    C     C_3   0.043372 0.392704 0.450390 -0.131948
C6    C     C_3   0.962903 0.487292 0.370255 -0.205525
H1    H     H_    0.928853 0.474860 0.265432 0.199558
H2    H     H_    0.083654 0.303919 0.411174 0.169355
C7    C     C_3   0.877410 0.500566 0.496303 -0.135303
C8    C     C_3   0.955363 0.406226 0.576256 -0.183665
C9    C     C_3   0.036850 0.516721 0.628255 -0.146810
C10   C     C_3   0.957219 0.609309 0.546928 0.677308
C11   C     C_3   0.044724 0.597844 0.421740 -0.227959
C12   C     C_3   0.122278 0.503053 0.502212 -0.088408
H3    H     H_    0.914461 0.328061 0.638263 0.195828
H4    H     H_    0.068195 0.531820 0.733372 0.176265
H5    H     H_    0.085333 0.676519 0.360301 0.177141
C13   C     C_R   0.531905 0.063274 0.621734 -0.017804
C14   C     C_R   0.528483 0.128947 0.499901 -0.055031
C15   C     C_R   0.550513 0.066066 0.377531 -0.191402
H6    H     H_    0.558268 0.115791 0.281803 0.178305
C16   C     C_R   0.550008 0.936356 0.377178 -0.165934
H7    H     H_    0.557597 0.888115 0.281345 0.199306
C17   C     C_R   0.527422 0.871444 0.499165 -0.043273
C18   C     C_R   0.531059 0.935294 0.621436 0.020740
C19   C     C_3   0.444102 0.927416 0.742684 0.486500
C20   C     C_3   0.444597 0.069336 0.742132 -0.404831
H8    H     H_    0.489043 0.884424 0.832550 0.085700
H9    H     H_    0.351176 0.110349 0.716431 0.277831
H10   H     H_    0.492043 0.110595 0.831300 0.180861
C21   C     C_R   0.420423 0.421794 0.073686 0.078500
N1    N     N_R   0.499140 0.499140 0.142800 -0.157675
C22   C     C_R   0.585151 0.570533 0.069691 0.640482
C23   C     C_R   0.584721 0.570924 0.925879 -0.220222
H11   H     H_    0.651228 0.630399 0.869953 0.195098
N2    N     N_R   0.499140 0.499180 0.857150 -0.156933
C24   C     C_R   0.422177 0.419221 0.931101 0.117539
C25   C     C_3   0.279760 0.414809 0.929451 0.120032
C26   C     C_3   0.278895 0.422339 0.083088 -0.513558
H12   H     H_    0.237612 0.497376 0.878633 0.125005
H13   H     H_    0.241484 0.512886 0.121230 0.193984
H14   H     H_    0.239958 0.338529 0.137419 0.241089
F1    F     F_    0.669173 0.644666 0.135042 -0.652242
N3    N     N_R   0.231774 0.294344 0.880558 0.228312
O9    O     O_R   0.256765 0.190224 0.943828 -0.397284
O10   O     O_R   0.160771 0.290820 0.774327 -0.409917
F2    F     F_    0.907594 0.720089 0.595849 -0.644831
F3    F     F_    0.325749 0.877589 0.712587 -0.618876

loop_
_geom_bond_atom_site_label_1
_geom_bond_atom_site_label_2
_geom_bond_distance
_ccdc_geom_bond_type
O4    Zn2   1.985010 S    
Zn1   O7    1.985010 S    
C11   C12   1.531853 S    
C14   C15   1.404124 A    
C11   H5    1.110520 S    
C5    H2    1.110630 S    
C19   C20   1.514131 S    
C21   N1    1.358836 A    
C7    C8    1.528303 S    
C15   H6    1.083358 S    
Zn2   O8    1.997940 S    
C26   H14   1.111183 S    
C2    C12   1.419300 S    
C16   H7    1.083385 S    
C13   C14   1.390619 A    
C10   F2    1.383194 S    
C25   H12   1.110647 S    
O2    C1    1.284818 A    
C21   C24   1.409969 A    
C3    C17   1.420035 S    
C20   H9    1.111116 S    
O1    Zn1   1.994054 S    
C9    C10   1.533033 S    
C8    C9    1.546561 S    
C25   N3    1.464451 S    
C1    C14   1.422036 S    
O4    C2    1.279957 A    
C13   C20   1.492365 S    
O3    Zn1   1.997939 S    
C5    C6    1.545682 S    
C19   H8    1.111645 S    
C25   C26   1.521516 S    
C9    H4    1.107956 S    
O8    C4    1.278258 A    
C6    C11   1.547213 S    
C19   F3    1.385729 S    
C6    C7    1.531724 S    
C22   C23   1.421906 A    
C5    C8    1.545884 S    
O7    C4    1.281212 A    
N3    O10   1.299264 A    
O3    C2    1.280793 A    
C8    H3    1.110621 S    
C20   H10   1.111663 S    
C15   C16   1.383905 A    
Zn1   N2    2.016931 S    
C24   C25   1.497063 S    
C7    C10   1.517923 S    
C23   H11   1.081897 S    
Zn2   O6    1.994054 S    
C17   C18   1.392511 A    
N1    C22   1.369960 A    
C9    C12   1.531739 S    
C21   C26   1.488426 S    
Zn1   O5    1.989008 S    
O5    C3    1.285683 A    
N3    O9    1.302324 A    
C5    C12   1.529949 S    
C23   N2    1.368055 A    
C26   H13   1.112133 S    
N2    C24   1.369239 A    
C4    C7    1.416667 S    
C22   F1    1.355015 S    
C10   C11   1.535304 S    
O2    Zn2   1.989007 S    
C18   C19   1.496124 S    
C13   C18   1.365434 A    
Zn2   N1    2.017855 S    
C6    H1    1.110575 S    
O1    C1    1.288502 A    
O6    C3    1.286743 A    
C16   C17   1.402299 A    
