data_mof_unit_7283.cif
_audit_creation_date              2013-03-05T16:35:44-0500
_audit_creation_method            fapswitch 2.2
_symmetry_space_group_name_H-M    P1
_symmetry_Int_Tables_number       1
_space_group_crystal_system       triclinic
_cell_length_a                    19.621478
_cell_length_b                    9.074105
_cell_length_c                    7.970392
_cell_angle_alpha                 90.002006
_cell_angle_beta                  89.978303
_cell_angle_gamma                 89.513977
_cell_volume                      1419.05602775

loop_
_atom_site_label
_atom_site_type_symbol
_atom_site_description
_atom_site_fract_x
_atom_site_fract_y
_atom_site_fract_z
_atom_type_partial_charge
O1    O     O_R   0.500000 0.288390 0.642760 -0.572688
O2    O     O_R   0.500000 0.711610 0.357240 -0.572695
O3    O     O_R   0.500000 0.711610 0.642760 -0.572871
O4    O     O_R   0.500000 0.288390 0.357240 -0.572499
C1    C     C_R   0.500029 0.220789 0.499999 0.810319
C2    C     C_R   0.499971 0.779211 0.500002 0.810504
O5    O     O_R   0.400140 0.500000 0.642830 -0.523906
O6    O     O_R   0.599860 0.500000 0.357170 -0.520635
O7    O     O_R   0.599860 0.500000 0.642830 -0.523820
O8    O     O_R   0.400140 0.500000 0.357170 -0.520652
C3    C     C_R   0.367113 0.499728 0.500389 0.870873
C4    C     C_R   0.632891 0.499911 0.500350 0.870928
Cu1   Cu    Cu3+1 0.500000 0.500000 0.669080 1.144618
Cu2   Cu    Cu3+1 0.500000 0.500000 0.330920 1.146088
C5    C     C_1   0.500009 0.065580 0.499998 -0.117267
C6    C     C_1   0.499990 0.934420 0.500002 -0.117475
N1    N     N_1   0.500000 0.500000 0.076820 0.031359
N2    N     N_1   0.500000 0.500000 0.923180 0.032370
C7    C     C_R   0.253384 0.529962 0.649491 0.186874
C8    C     C_R   0.747648 0.534251 0.358555 0.187526
C9    C     C_R   0.746422 0.467330 0.649481 0.186363
C10   C     C_R   0.252603 0.462691 0.358679 0.187634
C11   C     C_R   0.181900 0.535377 0.651129 0.276427
C12   C     C_R   0.819064 0.543360 0.361694 0.287449
C13   C     C_R   0.817873 0.459812 0.651020 0.275255
C14   C     C_R   0.181271 0.451314 0.361957 0.287841
C15   C     C_R   0.144915 0.492562 0.507678 -0.223579
C16   C     C_R   0.855115 0.501194 0.507418 -0.222710
C17   C     C_R   0.290159 0.497794 0.502625 -0.339810
C18   C     C_R   0.709859 0.500357 0.502585 -0.339176
N3    N     N_R   0.033850 0.492945 0.363044 -0.215640
N4    N     N_R   0.966073 0.498756 0.654905 -0.215913
N5    N     N_R   0.966211 0.495951 0.362954 -0.215333
N6    N     N_R   0.033822 0.495729 0.654982 -0.216012
C19   C     C_R   0.930726 0.499104 0.508696 0.463930
C20   C     C_R   0.069269 0.492914 0.508861 0.462596
N7    N     N_R   0.288519 0.548379 0.802304 0.180207
O9    O     O_R   0.316306 0.430651 0.866120 -0.285372
O10   O     O_R   0.313695 0.677197 0.836631 -0.340356
N8    N     N_R   0.713895 0.547386 0.203416 0.172127
O11   O     O_R   0.690517 0.425862 0.140423 -0.281803
O12   O     O_R   0.684661 0.672673 0.166840 -0.345402
N9    N     N_R   0.711147 0.449862 0.802321 0.180083
O13   O     O_R   0.683908 0.568262 0.866027 -0.285724
O14   O     O_R   0.685277 0.321689 0.836657 -0.339680
N10   N     N_R   0.286443 0.450439 0.203476 0.172767
O15   O     O_R   0.309294 0.572510 0.140611 -0.282439
O16   O     O_R   0.316220 0.325783 0.166667 -0.345307
O17   O     O_3   0.148823 0.572165 0.798879 -0.545783
C21   C     C_3   0.146605 0.727405 0.816531 0.126378
H1    H     H_    0.100632 0.772276 0.752005 0.130160
H2    H     H_    0.191921 0.783389 0.761907 0.116694
C22   C     C_3   0.144290 0.766496 0.003120 -0.302138
H3    H     H_    0.184155 0.702637 0.071162 0.278785
H4    H     H_    0.155364 0.885223 0.019365 0.150588
C23   C     C_3   0.074836 0.735378 0.080135 -0.726966
H5    H     H_    0.036322 0.812074 0.026839 0.207993
H6    H     H_    0.077111 0.753575 0.217747 0.229826
H7    H     H_    0.059419 0.619983 0.055074 0.317604
O18   O     O_3   0.853564 0.583444 0.217078 -0.551319
C24   C     C_3   0.846674 0.737271 0.189052 0.109495
H8    H     H_    0.894540 0.792475 0.227821 0.138622
H9    H     H_    0.804726 0.790871 0.262357 0.104479
C25   C     C_3   0.832549 0.765148 0.002467 -0.251895
H10   H     H_    0.799949 0.676329 0.952288 0.298129
H11   H     H_    0.804059 0.870439 0.986972 0.165466
C26   C     C_3   0.897850 0.771683 0.899330 -0.813619
H12   H     H_    0.926457 0.872829 0.931549 0.210250
H13   H     H_    0.885031 0.775573 0.763701 0.238112
H14   H     H_    0.930091 0.672867 0.923770 0.311231
O19   O     O_3   0.850751 0.422316 0.798735 -0.545840
C27   C     C_3   0.852109 0.267078 0.816399 0.126716
H15   H     H_    0.897342 0.220777 0.749928 0.129047
H16   H     H_    0.806055 0.212576 0.763754 0.118290
C28   C     C_3   0.855381 0.228018 0.002897 -0.300176
H17   H     H_    0.816687 0.293812 0.072740 0.278307
H18   H     H_    0.843185 0.109891 0.019822 0.150685
C29   C     C_3   0.925724 0.255726 0.076522 -0.729630
H19   H     H_    0.963134 0.178174 0.020089 0.208124
H20   H     H_    0.924503 0.236158 0.213966 0.230395
H21   H     H_    0.941832 0.370804 0.052134 0.316828
O20   O     O_3   0.147113 0.410193 0.217307 -0.551187
C30   C     C_3   0.154842 0.256508 0.189582 0.110269
H22   H     H_    0.107436 0.199991 0.229411 0.138216
H23   H     H_    0.197348 0.204303 0.262147 0.105304
C31   C     C_3   0.168582 0.228621 0.002819 -0.253644
H24   H     H_    0.201202 0.317272 0.952244 0.297517
H25   H     H_    0.196898 0.123135 0.986934 0.165107
C32   C     C_3   0.103062 0.222523 0.900610 -0.810539
H26   H     H_    0.074359 0.121653 0.933439 0.209942
H27   H     H_    0.115597 0.218328 0.764802 0.237392
H28   H     H_    0.071023 0.321616 0.925301 0.311408

loop_
_geom_bond_atom_site_label_1
_geom_bond_atom_site_label_2
_geom_bond_distance
_ccdc_geom_bond_type
C10   C17   1.401915 A    
C28   H17   1.111174 S    
O3    C2    1.292675 A    
C8    C18   1.401951 A    
C22   H3    1.111027 S    
C13   C16   1.410345 A    
O5    C3    1.307464 A    
C14   C15   1.411654 A    
Cu1   N2    2.025276 S    
O1    C1    1.292658 A    
C8    N8    1.407509 S    
C29   H20   1.110068 S    
C11   O17   1.383899 S    
C5    C6    1.190159 T    
C23   H5    1.107804 S    
C24   H9    1.117240 S    
O7    Cu1   1.970461 S    
C7    N7    1.410404 S    
C9    N9    1.410475 S    
C8    C12   1.404675 A    
C16   C19   1.483591 S    
C21   H2    1.116075 S    
N3    N5    1.327234 A    
C13   O19   1.383822 S    
C11   C15   1.410759 A    
C32   H27   1.110524 S    
O3    Cu1   1.931604 S    
O6    C4    1.312609 A    
C4    C18   1.510389 S    
N8    O12   1.302142 A    
C14   O20   1.386527 S    
Cu1   Cu2   2.695269 S    
Cu2   N1    2.025276 S    
O2    C2    1.292658 A    
C27   C28   1.529388 S    
O7    C4    1.307332 A    
C21   H1    1.112717 S    
C22   H4    1.108434 S    
N10   O16   1.302128 A    
C21   C22   1.529462 S    
C31   H25   1.109887 S    
C26   H12   1.110056 S    
C25   C26   1.523650 S    
C27   H16   1.115834 S    
O8    Cu2   1.970463 S    
C31   H24   1.108074 S    
O4    C1    1.292675 A    
O18   C24   1.418937 S    
C26   H13   1.110478 S    
C25   H11   1.109768 S    
C24   C25   1.533488 S    
C7    C11   1.403114 A    
N9    O13   1.299139 A    
N4    C19   1.356329 A    
N7    O9    1.299064 A    
N9    O14   1.301997 A    
C30   H22   1.112158 S    
C12   O18   1.386631 S    
N1    N2    1.224572 T    
C32   H28   1.110289 S    
C28   H18   1.108491 S    
N8    O11   1.298929 A    
C10   N10   1.407695 S    
O17   C21   1.415960 S    
O1    Cu1   1.931590 S    
C7    C17   1.404244 A    
C22   C23   1.523044 S    
C9    C13   1.403109 A    
N10   O15   1.298984 A    
O6    Cu2   1.970618 S    
C30   H23   1.117232 S    
C29   H19   1.107837 S    
C12   C16   1.411337 A    
C27   H15   1.112758 S    
C31   C32   1.523643 S    
C15   C20   1.484289 S    
C9    C18   1.404392 A    
C23   H7    1.110511 S    
C26   H14   1.110241 S    
C25   H10   1.107974 S    
O19   C27   1.415699 S    
N7    O10   1.301967 A    
C29   H21   1.110710 S    
N5    C19   1.354258 A    
C23   H6    1.110148 S    
N6    C20   1.356419 A    
O4    Cu2   1.931605 S    
C24   H8    1.112066 S    
O2    Cu2   1.931590 S    
C28   C29   1.522865 S    
C1    C5    1.408384 S    
O8    C3    1.312433 A    
C2    C6    1.408389 S    
O5    Cu1   1.970620 S    
C30   C31   1.533322 S    
C3    C17   1.510306 S    
O20   C30   1.418790 S    
C10   C14   1.404550 A    
N3    C20   1.354387 A    
C32   H26   1.109992 S    
N4    N6    1.329402 A    
