data_mof_unit_55569.cif
_audit_creation_date              2012-12-10T20:51:47-0500
_audit_creation_method            fapswitch 2.2
_symmetry_space_group_name_H-M    P1
_symmetry_Int_Tables_number       1
_space_group_crystal_system       triclinic
_cell_length_a                    8.103776
_cell_length_b                    8.932685
_cell_length_c                    16.850684
_cell_angle_alpha                 89.329135
_cell_angle_beta                  92.749448
_cell_angle_gamma                 90.04713
_cell_volume                      1218.30764538

loop_
_atom_site_label
_atom_site_type_symbol
_atom_type_description
_atom_site_fract_x
_atom_site_fract_y
_atom_site_fract_z
_atom_type_partial_charge
C1    C     C_R   0.499934 0.217982 0.500031 0.937390
C2    C     C_R   0.575345 0.430954 0.136152 0.152912
C3    C     C_R   0.483294 0.597323 0.896979 0.234818
C4    C     C_R   0.447518 0.513505 0.096446 0.247157
C5    C     C_R   0.629327 0.634831 0.858576 0.152477
C6    C     C_R   0.334311 0.597184 0.139342 0.154011
C7    C     C_R   0.645863 0.593148 0.779695 -0.272505
C8    C     C_R   0.347052 0.591186 0.221884 -0.257748
C9    C     C_1   0.499924 0.065186 0.500012 -0.196182
C10   C     C_1   0.500075 0.934808 0.499994 -0.195919
C11   C     C_3   0.698752 0.342406 0.091176 -0.403651
C12   C     C_R   0.500066 0.782016 0.499974 0.938509
C13   C     C_3   0.626522 0.192645 0.064260 -0.856780
C14   C     C_3   0.181343 0.499560 0.886385 -0.408773
C15   C     C_3   0.150277 0.334650 0.905703 -0.841970
C16   C     C_3   0.771123 0.714061 0.901907 -0.405688
C17   C     C_3   0.727520 0.875687 0.920416 -0.864722
C18   C     C_3   0.199361 0.693465 0.100528 -0.395874
C19   C     C_3   0.031748 0.616336 0.103698 -0.900722
C20   C     C_R   0.518208 0.498671 0.653733 0.889696
C21   C     C_R   0.481074 0.502530 0.346584 0.890415
C22   C     C_R   0.517815 0.517573 0.739053 -0.102014
C23   C     C_R   0.472310 0.508254 0.261049 -0.095192
C24   C     C_R   0.372715 0.482580 0.776697 -0.246726
C25   C     C_R   0.588319 0.431268 0.218730 -0.269546
C26   C     C_R   0.350860 0.524876 0.854290 0.160275
H1    H     H_    0.685299 0.367506 0.250133 0.163781
H2    H     H_    0.153775 0.266325 0.851184 0.253294
H3    H     H_    0.244174 0.291434 0.950232 0.267782
H4    H     H_    0.026313 0.322211 0.930418 0.242375
H5    H     H_    0.162306 0.567636 0.939316 0.220788
H6    H     H_    0.086008 0.537472 0.841002 0.190170
H7    H     H_    0.691464 0.937748 0.864755 0.263535
H8    H     H_    0.624684 0.880389 0.961490 0.268203
H9    H     H_    0.837114 0.931282 0.949113 0.244107
H10   H     H_    0.805776 0.651805 0.957475 0.209028
H11   H     H_    0.881884 0.716518 0.865612 0.196291
H12   H     H_    0.271596 0.427569 0.744108 0.175072
H13   H     H_    0.029662 0.514048 0.066872 0.259184
H14   H     H_    0.005006 0.584943 0.165753 0.268891
H15   H     H_    0.933567 0.694135 0.080854 0.255547
H16   H     H_    0.194340 0.801679 0.132282 0.202422
H17   H     H_    0.224188 0.723249 0.038389 0.211485
H18   H     H_    0.755938 0.623834 0.749210 0.163128
H19   H     H_    0.260102 0.653152 0.255839 0.168595
H20   H     H_    0.587562 0.126174 0.116266 0.259234
H21   H     H_    0.518795 0.209670 0.021943 0.265534
H22   H     H_    0.722085 0.128757 0.034068 0.248096
H23   H     H_    0.737908 0.407644 0.038778 0.212866
H24   H     H_    0.812207 0.320321 0.129258 0.204372
N1    N     N_1   0.073640 0.500030 0.499990 -0.037142
N2    N     N_1   0.926360 0.499970 0.500010 -0.036792
N3    N     N_2   0.482526 0.616931 0.979879 -0.216426
N4    N     N_2   0.430842 0.503292 0.013779 -0.184811
O1    O     O_R   0.636850 0.285340 0.500000 -0.615444
O2    O     O_R   0.363150 0.714660 0.500000 -0.615707
O3    O     O_R   0.363100 0.285350 0.500000 -0.615038
O4    O     O_R   0.636900 0.714650 0.500000 -0.614871
O5    O     O_R   0.652140 0.498630 0.616140 -0.620430
O6    O     O_R   0.347860 0.501370 0.383860 -0.620229
O7    O     O_R   0.378390 0.498650 0.616130 -0.625587
O8    O     O_R   0.621610 0.501350 0.383870 -0.621394
Zn1   Zn    Zn3+2 0.682780 0.499990 0.500010 0.983842
Zn2   Zn    Zn3+2 0.317220 0.500010 0.499990 0.982602

loop_
_geom_bond_atom_site_label_1
_geom_bond_atom_site_label_2
_ccdc_geom_bond_type
O7    Zn2   S    
C2    C4    A    
O2    Zn2   S    
O8    Zn1   S    
C11   H23   S    
C1    O3    A    
C13   H22   S    
C7    C22   A    
C11   C13   S    
C9    C10   T    
C16   H11   S    
C24   H12   S    
C15   H4    S    
C16   H10   S    
C14   H5    S    
O6    Zn2   S    
C12   O4    A    
C21   C23   S    
C1    O1    A    
C5    C7    A    
C11   H24   S    
N3    N4    D    
C14   C26   S    
C20   O5    A    
C3    N3    S    
C15   H2    S    
C12   O2    A    
C17   H7    S    
C21   O6    A    
C2    C11   S    
C19   H13   S    
C24   C26   A    
C15   H3    S    
C2    C25   A    
C10   C12   S    
C18   H16   S    
C13   H20   S    
C6    C18   S    
C22   C24   A    
C25   H1    S    
C17   H8    S    
N1    N2    T    
C19   H15   S    
C20   O7    A    
C8    C23   A    
C1    C9    S    
O3    Zn2   S    
C4    C6    A    
C18   C19   S    
C19   H14   S    
C14   H6    S    
O4    Zn1   S    
C13   H21   S    
C14   C15   S    
C5    C16   S    
C6    C8    A    
C17   H9    S    
C21   O8    A    
C23   C25   A    
C18   H17   S    
O5    Zn1   S    
C7    H18   S    
C3    C26   A    
C4    N4    S    
N1    Zn2   S    
C8    H19   S    
C20   C22   S    
C16   C17   S    
C3    C5    A    
N2    Zn1   S    
O1    Zn1   S    
