data_mof_unit_23093.cif
_audit_creation_date              2012-12-10T17:33:06-0500
_audit_creation_method            fapswitch 2.2
_symmetry_space_group_name_H-M    P1
_symmetry_Int_Tables_number       1
_space_group_crystal_system       triclinic
_cell_length_a                    15.518915
_cell_length_b                    15.510822
_cell_length_c                    17.936644
_cell_angle_alpha                 91.138248
_cell_angle_beta                  109.859939
_cell_angle_gamma                 68.907886
_cell_volume                      3762.82885885

loop_
_atom_site_label
_atom_site_type_symbol
_atom_type_description
_atom_site_fract_x
_atom_site_fract_y
_atom_site_fract_z
_atom_type_partial_charge
C1    C     C_R   0.464631 0.739984 0.532879 0.870567
C2    C     C_R   0.624002 0.450508 0.084207 -0.167809
C3    C     C_R   0.686166 0.399954 0.045527 -0.282011
C4    C     C_R   0.535647 0.259226 0.469957 0.766520
C5    C     C_R   0.651726 0.405028 0.962719 0.173763
C6    C     C_R   0.553465 0.464966 0.917048 0.094554
C7    C     C_R   0.716278 0.353467 0.924959 -0.199139
C8    C     C_R   0.685289 0.362184 0.842206 -0.207770
C9    C     C_R   0.522129 0.467751 0.833361 -0.279935
C10   C     C_R   0.465021 0.943434 0.646726 -0.314281
C11   C     C_R   0.454324 0.834551 0.549157 -0.090014
C12   C     C_R   0.334630 0.662278 0.159651 -0.272449
C13   C     C_R   0.551530 0.137207 0.379424 -0.191551
C14   C     C_R   0.541923 0.055060 0.353902 -0.160047
C15   C     C_R   0.521545 0.999133 0.399799 -0.183453
C16   C     C_R   0.757918 0.447313 0.533029 0.801111
C17   C     C_R   0.514678 0.022352 0.474927 0.104126
C18   C     C_R   0.532406 0.102914 0.503555 0.081897
C19   C     C_R   0.491082 0.968375 0.522761 0.088941
C20   C     C_R   0.488982 0.994376 0.598788 0.109877
C21   C     C_R   0.514708 0.068804 0.628098 -0.217624
C22   C     C_R   0.538928 0.120459 0.582317 -0.194557
C23   C     C_R   0.474330 0.524567 0.160658 0.383429
C24   C     C_R   0.471175 0.888428 0.498518 -0.349355
C25   C     C_R   0.450967 0.861550 0.623538 0.467647
C26   C     C_R   0.544036 0.163626 0.452847 -0.071458
C27   C     C_R   0.027810 0.382235 0.647664 -0.238507
C28   C     C_R   0.242134 0.552797 0.469774 0.780009
C29   C     C_R   0.862332 0.427619 0.550383 -0.008292
C30   C     C_R   0.067700 0.621484 0.379147 -0.187201
C31   C     C_R   0.970803 0.626543 0.353714 -0.157197
C32   C     C_R   0.941213 0.580063 0.399861 -0.183626
C33   C     C_R   0.007491 0.530501 0.475307 0.096566
C34   C     C_R   0.458063 0.553485 0.080937 -0.038990
C35   C     C_R   0.104663 0.531568 0.503721 0.085100
C36   C     C_R   0.980882 0.479860 0.523579 0.078839
C37   C     C_R   0.050710 0.434169 0.599618 0.136150
C38   C     C_R   0.141967 0.443227 0.628814 -0.231927
C39   C     C_R   0.167456 0.493203 0.582654 -0.192476
C40   C     C_R   0.561022 0.440512 0.711638 0.776256
C41   C     C_R   0.886736 0.474483 0.499910 -0.306939
C42   C     C_R   0.933816 0.378548 0.624031 0.174240
C43   C     C_R   0.136413 0.571809 0.452694 -0.076600
C44   C     C_R   0.440592 0.558487 0.287437 0.821169
C45   C     C_R   0.369950 0.629121 0.038285 0.120566
C46   C     C_R   0.416284 0.582338 0.201514 -0.131713
C47   C     C_R   0.588398 0.419181 0.796712 0.020510
C48   C     C_R   0.309760 0.683661 0.078178 -0.218340
C49   C     C_3   0.511276 0.769660 0.742131 0.102920
C50   C     C_3   0.493116 0.698839 0.785906 -0.795818
C51   C     C_3   0.910952 0.324140 0.679115 -0.439273
C52   C     C_3   0.896160 0.237867 0.643899 -0.868105
C53   C     C_3   0.501108 0.370554 0.174969 0.131115
C54   C     C_3   0.581616 0.274374 0.205101 -0.815442
C55   C     C_R   0.524210 0.506584 0.041361 0.068812
C56   C     C_R   0.491231 0.520741 0.956711 0.065096
C57   C     C_R   0.399531 0.593060 0.915329 -0.230434
C58   C     C_R   0.342136 0.648561 0.956061 -0.208117
H1    H     H_    0.274156 0.705617 0.922607 0.143723
H2    H     H_    0.447795 0.509207 0.794894 0.124851
H3    H     H_    0.193721 0.412469 0.688388 0.148252
H4    H     H_    0.082760 0.346498 0.704922 0.134395
H5    H     H_    0.828483 0.510600 0.444718 0.139523
H6    H     H_    0.089852 0.653558 0.339539 0.160715
H7    H     H_    0.865806 0.584897 0.374664 0.130710
H8    H     H_    0.918877 0.664226 0.296304 0.143121
H9    H     H_    0.236571 0.502529 0.610658 0.170144
H10   H     H_    0.737236 0.325852 0.813559 0.129171
H11   H     H_    0.762170 0.357436 0.080738 0.152333
H12   H     H_    0.791730 0.308822 0.959483 0.136373
H13   H     H_    0.243588 0.743281 0.046365 0.149003
H14   H     H_    0.288020 0.706873 0.189362 0.187117
H15   H     H_    0.372347 0.611729 0.851760 0.146746
H16   H     H_    0.657396 0.448475 0.147958 0.208979
H17   H     H_    0.521725 0.823664 0.782093 0.131771
H18   H     H_    0.580267 0.733023 0.729428 0.156997
H19   H     H_    0.479324 0.645542 0.746455 0.254918
H20   H     H_    0.558643 0.664132 0.840513 0.213032
H21   H     H_    0.427740 0.733959 0.803268 0.247166
H22   H     H_    0.831464 0.257483 0.587285 0.256551
H23   H     H_    0.517978 0.086233 0.687586 0.147683
H24   H     H_    0.963208 0.192413 0.632406 0.271257
H25   H     H_    0.882876 0.198087 0.686784 0.242974
H26   H     H_    0.972377 0.300907 0.737942 0.204922
H27   H     H_    0.844166 0.368748 0.691276 0.216992
H28   H     H_    0.466981 0.374625 0.108842 0.128934
H29   H     H_    0.443997 0.379350 0.201937 0.133100
H30   H     H_    0.619585 0.268678 0.270641 0.269302
H31   H     H_    0.548730 0.220490 0.191328 0.192042
H32   H     H_    0.636746 0.262249 0.175644 0.252343
H33   H     H_    0.460315 0.965664 0.703362 0.145170
H34   H     H_    0.474220 0.862586 0.442913 0.148904
H35   H     H_    0.560965 0.182039 0.339981 0.159660
H36   H     H_    0.512228 0.938082 0.374686 0.129950
H37   H     H_    0.546935 0.036113 0.296656 0.142294
H38   H     H_    0.564685 0.173186 0.610529 0.168837
O1    O     O_3   0.500000 0.500000 0.500000 -0.482442
O2    O     O_R   0.596500 0.492780 0.688380 -0.646020
O3    O     O_R   0.388780 0.611210 0.325000 -0.660437
O4    O     O_R   0.499860 0.410860 0.661600 -0.643999
O5    O     O_R   0.514860 0.485140 0.325020 -0.585772
O6    O     O_3   0.428947 0.809411 0.671015 -0.620552
O7    O     O_3   0.543721 0.437958 0.197755 -0.607198
O8    O     O_R   0.707110 0.418540 0.472990 -0.633162
O9    O     O_R   0.267620 0.606720 0.435250 -0.642246
O10   O     O_R   0.540230 0.674660 0.578090 -0.645989
O11   O     O_R   0.485030 0.300080 0.513670 -0.638694
O12   O     O_R   0.403610 0.721990 0.472930 -0.639804
O13   O     O_R   0.571130 0.303270 0.435320 -0.647017
O14   O     O_R   0.717650 0.497270 0.578120 -0.652471
O15   O     O_R   0.307610 0.477470 0.513630 -0.637196
Zn1   Zn    Zn3+2 0.572030 0.427990 0.434470 0.979181
Zn2   Zn    Zn3+2 0.587090 0.540470 0.584680 0.961622
Zn3   Zn    Zn3+2 0.449010 0.423430 0.546420 0.961942
Zn4   Zn    Zn3+2 0.391880 0.608100 0.434430 0.970975

loop_
_geom_bond_atom_site_label_1
_geom_bond_atom_site_label_2
_ccdc_geom_bond_type
C40   C47   S    
C54   H30   S    
C55   C56   A    
C30   H6    S    
C29   C42   A    
C31   H8    S    
C19   C20   A    
C18   C26   A    
C12   C48   A    
C50   H21   S    
C51   H27   S    
C15   H36   S    
C16   O14   A    
C7    C8    A    
C53   C54   S    
O5    Zn1   S    
O12   Zn4   S    
C36   C37   A    
C3    H11   S    
C53   O7    S    
C54   H32   S    
C2    C55   A    
C40   O2    A    
C30   C31   A    
C44   O3    A    
C25   O6    S    
C11   C25   A    
C24   H34   S    
C11   C24   A    
C33   C36   A    
C56   C57   A    
C57   H15   S    
C17   C19   A    
C16   O8    A    
C23   O7    S    
C10   C20   A    
C1    C11   S    
C49   H17   S    
C53   H28   S    
O1    Zn4   S    
C35   C43   A    
C2    H16   S    
C1    O10   A    
C38   H3    S    
C12   H14   S    
C34   C55   A    
C23   C46   A    
C21   C22   A    
C36   C41   A    
C39   H9    S    
C7    H12   S    
C50   H20   S    
C44   C46   S    
C28   O15   A    
C38   C39   A    
C4    O11   A    
C45   C58   A    
O10   Zn2   S    
C51   C52   S    
O4    Zn3   S    
C54   H31   S    
C12   C46   A    
O13   Zn1   S    
C49   O6    S    
C5    C7    A    
O1    Zn1   S    
O2    Zn2   S    
C16   C29   S    
C13   H35   S    
C52   H25   S    
C35   C39   A    
O11   Zn3   S    
C37   C38   A    
C27   H4    S    
C31   C32   A    
C28   O9    A    
C23   C34   A    
C17   C18   A    
C49   H18   S    
C53   H29   S    
C34   C45   A    
C52   H24   S    
O14   Zn2   S    
C10   C25   A    
C21   H23   S    
C10   H33   S    
C9    C47   A    
C30   C43   A    
C41   H5    S    
C48   H13   S    
O1    Zn2   S    
C50   H19   S    
C14   H37   S    
O8    Zn1   S    
C45   C48   A    
C15   C17   A    
C29   C41   A    
C18   C22   A    
C22   H38   S    
O9    Zn4   S    
C6    C56   A    
C3    C5    A    
C40   O4    A    
C4    C26   S    
C44   O5    A    
C8    H10   S    
C4    O13   A    
C42   C51   S    
C28   C43   S    
C9    H2    S    
C32   C33   A    
C2    C3    A    
C58   H1    S    
C8    C47   A    
C52   H22   S    
O3    Zn4   S    
C27   C42   A    
C57   C58   A    
C5    C6    A    
C27   C37   A    
C33   C35   A    
C19   C24   A    
O15   Zn3   S    
C13   C26   A    
C1    O12   A    
C6    C9    A    
C20   C21   A    
C49   C50   S    
C14   C15   A    
O1    Zn3   S    
C13   C14   A    
C51   H26   S    
C32   H7    S    
