data_mof_unit_13043.cif
_audit_creation_date              2012-12-11T14:49:50-0500
_audit_creation_method            fapswitch 2.2
_symmetry_space_group_name_H-M    P1
_symmetry_Int_Tables_number       1
_space_group_crystal_system       triclinic
_cell_length_a                    11.498518
_cell_length_b                    11.543349
_cell_length_c                    19.111057
_cell_angle_alpha                 89.098816
_cell_angle_beta                  90.618198
_cell_angle_gamma                 118.708723
_cell_volume                      2224.52602058

loop_
_atom_site_label
_atom_site_type_symbol
_atom_type_description
_atom_site_fract_x
_atom_site_fract_y
_atom_site_fract_z
_atom_type_partial_charge
C1    C     C_R   0.528788 0.457132 0.644784 0.549097
C2    C     C_R   0.458791 0.527522 0.353665 0.555372
C3    C     C_R   0.472767 0.935454 0.146415 0.614454
C4    C     C_R   0.111827 0.567337 0.360544 0.536603
C5    C     C_R   0.449613 0.041479 0.528537 -0.016352
C6    C     C_R   0.588213 0.577980 0.961966 -0.064586
C7    C     C_R   0.019602 0.441508 0.539520 0.001639
C8    C     C_R   0.433484 0.037596 0.966456 -0.055083
C9    C     C_R   0.581541 0.584997 0.534107 -0.032391
C10   C     C_R   0.043750 0.450212 0.963313 0.083769
C11   C     C_R   0.021611 0.440723 0.036562 0.002586
C12   C     C_R   0.936231 0.474229 0.852777 0.616379
C13   C     C_R   0.587295 0.579172 0.461389 -0.036217
C14   C     C_R   0.445882 0.054653 0.040429 -0.048700
C15   C     C_R   0.019335 0.438343 0.466830 -0.055296
C16   C     C_R   0.591549 0.569014 0.034720 -0.037823
C17   C     C_R   0.465389 0.059454 0.456331 0.027754
C18   C     C_R   0.522182 0.992312 0.426129 -0.057817
C19   C     C_R   0.473612 0.490827 0.071241 -0.014705
C20   C     C_R   0.061612 0.557119 0.433461 -0.088201
C21   C     C_R   0.509869 0.995297 0.074558 0.007273
C22   C     C_R   0.477028 0.492315 0.425706 -0.067428
C23   C     C_R   0.570155 0.117075 0.639881 0.531979
C24   C     C_R   0.063149 0.557029 0.067089 -0.083616
C25   C     C_R   0.989773 0.516232 0.925137 -0.034364
C26   C     C_R   0.495697 0.471738 0.570744 -0.075680
C27   C     C_R   0.549450 0.072890 0.933280 -0.097600
C28   C     C_R   0.953122 0.501636 0.568695 -0.092019
C29   C     C_R   0.492371 0.474946 0.925367 -0.060411
C30   C     C_R   0.565787 0.079627 0.565680 -0.113076
C31   C     C_R   0.644786 0.010045 0.461091 0.201277
C32   C     C_R   0.362801 0.383683 0.033448 0.191828
C33   C     C_R   0.029810 0.653193 0.466128 0.220608
C34   C     C_R   0.527312 0.458202 0.853462 0.555283
C35   C     C_R   0.620070 0.002183 0.037496 0.236702
C36   C     C_R   0.381279 0.374315 0.460074 0.188787
C37   C     C_R   0.042964 0.655290 0.028911 0.229985
C38   C     C_R   0.995156 0.631207 0.958377 0.175929
C39   C     C_R   0.383562 0.367427 0.534180 0.187617
C40   C     C_R   0.644564 0.051000 0.969490 0.220163
C41   C     C_R   0.967302 0.621183 0.533845 0.178314
C42   C     C_R   0.371611 0.379952 0.959287 0.198251
C43   C     C_R   0.669601 0.061337 0.532016 0.168584
C44   C     C_1   0.345011 0.917049 0.554230 0.384016
C45   C     C_R   0.899354 0.461126 0.640054 0.529237
C46   C     C_1   0.627614 0.701384 0.925257 0.411815
C47   C     C_1   0.147559 0.484990 0.571837 0.318146
C48   C     C_1   0.349441 0.910091 0.935790 0.398853
C49   C     C_1   0.574695 0.697299 0.560746 0.330812
C50   C     C_1   0.182467 0.515256 0.944698 0.271932
C51   C     C_1   0.900734 0.353967 0.074407 0.342378
C52   C     C_1   0.702195 0.589270 0.426972 0.355456
C53   C     C_1   0.495647 0.185385 0.067106 0.210369
C54   C     C_1   0.905412 0.340587 0.430303 0.330022
C55   C     C_1   0.715442 0.635709 0.072432 0.342947
C56   C     C_R   0.566809 0.113868 0.859625 0.582512
C57   C     C_1   0.532485 0.194631 0.432112 0.271160
C58   C     C_R   0.458380 0.527693 0.145115 0.569161
C59   C     C_R   0.473025 0.929408 0.355467 0.572001
C60   C     C_R   0.112888 0.568703 0.139942 0.581016
Cr1   Cr    Cr6+3 0.776430 0.541680 0.750000 1.143107
Cr2   Cr    Cr6+3 0.765250 0.223570 0.750000 1.164877
Cr3   Cr    Cr6+3 0.458320 0.234750 0.750000 1.156814
Cr4   Cr    Cr6+3 0.541680 0.776430 0.250000 1.174112
Cr5   Cr    Cr6+3 0.223570 0.765250 0.250000 1.157740
Cr6   Cr    Cr6+3 0.234750 0.458320 0.250000 1.188884
H1    H     H_    0.850212 0.014339 0.310601 0.373913
H2    H     H_    0.045822 0.933035 0.620460 0.391207
H3    H     H_    0.140350 0.281845 0.806394 0.369887
H4    H     H_    0.807846 0.916758 0.625468 0.366484
H5    H     H_    0.062053 0.053966 0.075255 0.391705
H6    H     H_    0.069004 0.891120 0.321192 0.354865
H7    H     H_    0.883169 0.964543 0.017428 0.431496
H8    H     H_    0.285707 0.130461 0.315447 0.366156
H9    H     H_    0.229376 0.017467 0.028215 0.388787
H10   H     H_    0.876718 0.814589 0.831572 0.368961
H11   H     H_    0.133726 0.201173 0.675297 0.362739
H12   H     H_    0.727698 0.292425 0.980391 0.301528
N1    N     N_1   0.265339 0.815847 0.575645 -0.209378
N2    N     N_1   0.815233 0.267917 0.398013 -0.189251
N3    N     N_1   0.813053 0.687626 0.104109 -0.155661
N4    N     N_1   0.589245 0.302418 0.412001 -0.269132
N5    N     N_1   0.650795 0.794585 0.891848 -0.164494
N6    N     N_1   0.250975 0.525450 0.597685 -0.223162
N7    N     N_1   0.288522 0.809051 0.909273 -0.195202
N8    N     N_1   0.561885 0.782816 0.583236 -0.261578
N9    N     N_1   0.293216 0.573118 0.929587 -0.256112
N10   N     N_1   0.807054 0.287484 0.106988 -0.234247
N11   N     N_1   0.788271 0.590970 0.395744 -0.178441
N12   N     N_1   0.542771 0.289650 0.090721 -0.278841
O1    O     O_R   0.916700 0.566820 0.669930 -0.435436
O2    O     O_R   0.566820 0.916700 0.330070 -0.445186
O3    O     O_R   0.083300 0.650120 0.169930 -0.428504
O4    O     O_R   0.349880 0.433180 0.330070 -0.434430
O5    O     O_R   0.649840 0.534790 0.674920 -0.463630
O6    O     O_R   0.884950 0.350160 0.825080 -0.417083
O7    O     O_R   0.465210 0.115050 0.674920 -0.447244
O8    O     O_R   0.649840 0.534790 0.825080 -0.463748
O9    O     O_R   0.884950 0.350160 0.674920 -0.456192
O10   O     O_R   0.465210 0.115050 0.825080 -0.476781
O11   O     O_R   0.534790 0.649840 0.174920 -0.444247
O12   O     O_R   0.650120 0.083300 0.830070 -0.431533
O13   O     O_R   0.350160 0.884950 0.325080 -0.474840
O14   O     O_R   0.115050 0.465210 0.174920 -0.450116
O15   O     O_R   0.534790 0.649840 0.325080 -0.471728
O16   O     O_R   0.350160 0.884950 0.174920 -0.436806
O17   O     O_R   0.115050 0.465210 0.325080 -0.465562
O18   O     O_3   0.666667 0.333333 0.750000 -0.404189
O19   O     O_3   0.333333 0.666667 0.250000 -0.402557
O20   O     O_2   0.895450 0.011302 0.449504 -0.057644
O21   O     O_2   0.701793 0.833260 0.401833 -0.270294
O22   O     O_3   0.809083 0.058148 0.337261 -0.454908
O23   O     O_R   0.433180 0.349880 0.669930 -0.431585
O24   O     O_2   0.274163 0.196634 0.137818 -0.269816
O25   O     O_2   0.137568 0.299270 0.109293 -0.223167
O26   O     O_3   0.111587 0.116517 0.036818 -0.420583
O27   O     O_2   0.051397 0.911255 0.462276 -0.049363
O28   O     O_2   0.219154 0.873064 0.419290 -0.314909
O29   O     O_3   0.006861 0.807272 0.344926 -0.444484
O30   O     O_2   0.777966 0.952079 0.127136 -0.239332
O31   O     O_2   0.580198 0.778390 0.066684 -0.333374
O32   O     O_3   0.794720 0.914728 0.997062 -0.445551
O33   O     O_2   0.262588 0.111028 0.453338 -0.195945
O34   O     O_R   0.916700 0.566820 0.830070 -0.448669
O35   O     O_2   0.146314 0.216795 0.395892 -0.190735
O36   O     O_3   0.347607 0.218320 0.334600 -0.479668
O37   O     O_2   0.093493 0.849288 0.125042 -0.230803
O38   O     O_2   0.259966 0.808498 0.064565 -0.378945
O39   O     O_3   0.166327 0.940371 0.002279 -0.409974
O40   O     O_2   0.932841 0.819133 0.972160 -0.218685
O41   O     O_2   0.094827 0.860073 0.880569 -0.193097
O42   O     O_3   0.852945 0.728283 0.854263 -0.461632
O43   O     O_2   0.124855 0.162328 0.533497 -0.095266
O44   O     O_2   0.283777 0.133490 0.602938 -0.260093
O45   O     O_R   0.650120 0.083300 0.669930 -0.449438
O46   O     O_3   0.193071 0.283246 0.649307 -0.469208
O47   O     O_2   0.895127 0.165825 0.009872 -0.222950
O48   O     O_2   0.856698 0.126042 0.885393 -0.162210
O49   O     O_3   0.785846 0.291852 0.942749 -0.619342
O50   O     O_2   0.849084 0.770839 0.518237 -0.206128
O51   O     O_2   0.849104 0.718193 0.637334 -0.276061
O52   O     O_3   0.069865 0.880008 0.589416 -0.405239
O53   O     O_2   0.223073 0.146517 0.893316 -0.191280
O54   O     O_2   0.100712 0.248224 0.942213 -0.157164
O55   O     O_3   0.220918 0.348104 0.830764 -0.485679
O56   O     O_R   0.433180 0.349880 0.830070 -0.434627
O57   O     O_2   0.929824 0.186195 0.527507 -0.215949
O58   O     O_2   0.868206 0.143265 0.645741 -0.258112
O59   O     O_3   0.830133 0.949423 0.576597 -0.398180
O60   O     O_R   0.566820 0.916700 0.169930 -0.432844
O61   O     O_R   0.083300 0.650120 0.330070 -0.428636
O62   O     O_R   0.349880 0.433180 0.169930 -0.427139
S1    S     S_3+6 0.766703 0.977754 0.415058 0.149854
S2    S     S_3+6 0.927116 0.742692 0.571980 0.090862
S3    S     S_3+6 0.225304 0.275277 0.907358 0.111523
S4    S     S_3+6 0.824594 0.090400 0.573808 0.093939
S5    S     S_3+6 0.222335 0.247926 0.079135 0.080305
S6    S     S_3+6 0.074323 0.812935 0.424527 0.145460
S7    S     S_3+6 0.697602 0.910944 0.060461 0.065801
S8    S     S_3+6 0.279354 0.226509 0.410859 0.109043
S9    S     S_3+6 0.136389 0.817207 0.057247 0.063972
S10   S     S_3+6 0.969314 0.759376 0.914882 0.115917
S11   S     S_3+6 0.243155 0.232870 0.579010 0.113612
S12   S     S_3+6 0.806135 0.157759 0.950626 0.079763

loop_
_geom_bond_atom_site_label_1
_geom_bond_atom_site_label_2
_ccdc_geom_bond_type
Cr2   O6    S    
C29   C42   A    
H3    O55   S    
C11   C24   A    
Cr1   O8    S    
Cr6   O17   S    
H12   O49   S    
O35   S8    D    
Cr4   O15   S    
Cr3   O10   S    
C31   C43   A    
O25   S5    D    
Cr1   O34   S    
C14   C21   A    
O49   S12   S    
O59   S4    S    
C40   S12   S    
C16   C19   A    
C26   C39   A    
Cr2   O18   S    
O33   S8    D    
C28   C41   A    
O44   S11   D    
Cr1   O18   S    
C9    C13   A    
O55   S3    S    
C2    C22   S    
O30   S7    D    
O32   S7    S    
H2    O52   S    
H11   O46   S    
C55   N3    T    
C42   S3    S    
Cr3   O56   S    
C1    O5    A    
Cr6   O4    S    
C60   O3    A    
O40   S10   D    
Cr5   O3    S    
O37   S9    D    
C52   N11   T    
Cr4   O11   S    
H4    O59   S    
C1    O23   A    
C45   O1    A    
C19   C32   A    
O43   S11   D    
C11   C51   S    
C31   S1    S    
C58   O62   A    
C9    C26   A    
C17   C18   A    
C54   N2    T    
C44   N1    T    
C19   C58   S    
C32   C42   A    
C15   C20   A    
C4    O17   A    
C28   C45   S    
C23   C30   S    
Cr6   O14   S    
C2    O4    A    
C9    C49   S    
C15   C54   S    
C45   O9    A    
C27   C56   S    
O41   S10   D    
C6    C16   A    
C29   C34   S    
C7    C28   A    
Cr2   O9    S    
Cr4   O60   S    
C7    C47   S    
Cr2   O45   S    
Cr5   O61   S    
C8    C48   S    
O24   S5    D    
Cr6   O62   S    
C37   C38   A    
C25   C38   A    
C13   C52   S    
H1    O22   S    
O53   S3    D    
C12   O34   A    
C27   C40   A    
C24   C60   S    
C6    C29   A    
C24   C37   A    
O39   S9    S    
C58   O11   A    
C47   N6    T    
O52   S2    S    
O57   S4    D    
O21   S1    D    
Cr5   O19   S    
C50   N9    T    
C20   C33   A    
C10   C25   A    
C23   O7    A    
C5    C44   S    
C41   S2    S    
O22   S1    S    
O31   S7    D    
C1    C26   S    
C30   C43   A    
C3    C21   S    
Cr5   O13   S    
C39   S11   S    
C43   S4    S    
C10   C50   S    
Cr5   O16   S    
C33   S6    S    
C37   S9    S    
C32   S5    S    
C4    O61   A    
C3    O60   A    
C8    C14   A    
C6    C46   S    
O27   S6    D    
C57   N4    T    
C49   N8    T    
C36   C39   A    
C51   N10   T    
O47   S12   D    
Cr1   O5    S    
C21   C35   A    
C4    C20   S    
O36   S8    S    
C22   C36   A    
C2    O15   A    
C23   O45   A    
C12   C25   S    
C33   C41   A    
O54   S3    D    
C3    O16   A    
C16   C55   S    
C59   O13   A    
O26   S5    S    
Cr3   O7    S    
O20   S1    D    
H10   O42   S    
C34   O56   A    
Cr4   O19   S    
H8    O36   S    
O29   S6    S    
H6    O29   S    
C7    C15   A    
O38   S9    D    
C34   O8    A    
C13   C22   A    
C35   C40   A    
C59   O2    A    
Cr6   O19   S    
O51   S2    D    
O42   S10   S    
H5    O26   S    
C35   S7    S    
O28   S6    D    
C10   C11   A    
C36   S8    S    
C56   O12   A    
C46   N5    T    
Cr3   O23   S    
Cr1   O1    S    
C18   C59   S    
C38   S10   S    
C14   C53   S    
C5    C17   A    
H7    O32   S    
C5    C30   A    
O50   S2    D    
C53   N12   T    
C8    C27   A    
C56   O10   A    
C48   N7    T    
C12   O6    A    
O48   S12   D    
C18   C31   A    
O58   S4    D    
Cr4   O2    S    
Cr3   O18   S    
C60   O14   A    
H9    O39   S    
C17   C57   S    
Cr2   O12   S    
O46   S11   S    
