data_mof_unit_68424.cif
_audit_creation_date              2012-12-10T17:49:38-0500
_audit_creation_method            fapswitch 2.2
_symmetry_space_group_name_H-M    P1
_symmetry_Int_Tables_number       1
_space_group_crystal_system       triclinic
_cell_length_a                    10.55897
_cell_length_b                    10.693076
_cell_length_c                    10.004198
_cell_angle_alpha                 91.679712
_cell_angle_beta                  91.012037
_cell_angle_gamma                 93.678343
_cell_volume                      1126.52509729

loop_
_atom_site_label
_atom_site_type_symbol
_atom_type_description
_atom_site_fract_x
_atom_site_fract_y
_atom_site_fract_z
_atom_type_partial_charge
C1    C     C_R   0.514720 0.261670 0.498580 0.956306
C2    C     C_3   0.962311 0.625643 0.460981 0.288602
C3    C     C_3   0.037487 0.536761 0.373663 0.536040
C4    C     C_3   0.123905 0.517308 0.496410 -0.509180
C5    C     C_R   0.618848 0.126453 0.728828 0.445905
C6    C     C_R   0.606997 0.076497 0.855198 0.388545
C7    C     C_R   0.536213 0.962736 0.871263 0.238757
C8    C     C_R   0.478720 0.899969 0.758796 0.559192
C9    C     C_R   0.500452 0.944854 0.628188 -0.246656
C10   C     C_R   0.552671 0.067410 0.617132 -0.288544
C11   C     C_R   0.533521 0.128473 0.495912 -0.250224
C12   C     C_R   0.258503 0.507729 0.498960 1.060205
C13   C     C_R   0.501314 0.059229 0.378352 0.539798
C14   C     C_R   0.465428 0.933884 0.384267 0.360925
C15   C     C_R   0.474309 0.873578 0.507478 -0.201425
C16   C     C_R   0.292746 0.370939 0.128227 0.485092
C17   C     C_R   0.175925 0.353775 0.055435 0.245318
C18   C     C_R   0.178831 0.362811 0.917775 0.425040
C19   C     C_R   0.295266 0.372909 0.855872 0.459226
C20   C     C_R   0.399758 0.438149 0.924166 -0.201115
C21   C     C_R   0.398458 0.438767 0.068265 -0.148977
C22   C     C_R   0.597687 0.554001 0.074524 0.585949
C23   C     C_R   0.488747 0.739362 0.502232 0.903524
C24   C     C_R   0.596763 0.555600 0.932280 0.644697
C25   C     C_R   0.742208 0.504125 0.501202 1.035084
C26   C     C_3   0.038061 0.404536 0.537884 0.389849
C27   C     C_3   0.952164 0.423691 0.416142 0.455915
C28   C     C_3   0.877394 0.511911 0.503067 -0.503506
C29   C     C_3   0.963052 0.493347 0.625510 0.542082
C30   C     C_3   0.048172 0.606761 0.583572 0.248039
N1    N     N_R   0.498800 0.498800 0.142780 -0.138984
N2    N     N_R   0.498760 0.498720 0.857170 -0.128584
O1    O     O_R   0.500000 0.316780 0.614690 -0.548919
O2    O     O_R   0.499990 0.316750 0.385360 -0.511620
O3    O     O_R   0.313960 0.499980 0.614650 -0.531061
O4    O     O_R   0.313940 0.499960 0.385310 -0.585983
O5    O     O_R   0.500010 0.683250 0.614640 -0.564289
O6    O     O_R   0.500000 0.683220 0.385310 -0.592040
O7    O     O_R   0.686060 0.500040 0.614690 -0.537895
O8    O     O_R   0.686040 0.500020 0.385350 -0.525886
Zn1   Zn    Zn3+2 0.500010 0.500020 0.653130 1.144727
Zn2   Zn    Zn3+2 0.499990 0.499980 0.346870 1.127836
F1    F     F_    0.895218 0.329328 0.334357 -0.614514
O9    O     O_3   0.517839 0.912674 0.996011 -0.519732
C31   C     C_3   0.636082 0.887796 0.054691 -0.001854
H1    H     H_    0.703152 0.849711 0.981368 0.123909
H2    H     H_    0.619461 0.816544 0.131231 0.223227
H3    H     H_    0.680088 0.972371 0.108248 0.211447
F2    F     F_    0.391920 0.803626 0.780149 -0.599606
O10   O     O_3   0.429600 0.870406 0.265718 -0.544786
C32   C     C_3   0.297667 0.841215 0.264983 -0.151849
H4    H     H_    0.244561 0.927129 0.277202 0.092096
H5    H     H_    0.270816 0.773349 0.343299 0.137179
H6    H     H_    0.269075 0.796274 0.166776 0.222723
F3    F     F_    0.700015 0.606775 0.143547 -0.604405
O11   O     O_3   0.310866 0.314367 0.249282 -0.521754
C33   C     C_3   0.233639 0.203931 0.269596 -0.102802
H7    H     H_    0.139583 0.226514 0.307331 0.217591
H8    H     H_    0.275859 0.152639 0.351767 0.150646
H9    H     H_    0.227319 0.140327 0.179412 0.119745
O12   O     O_3   0.062289 0.329451 0.121131 -0.510035
C34   C     C_3   0.991275 0.222460 0.066166 0.023305
H10   H     H_    0.050361 0.153574 0.014865 0.036916
H11   H     H_    0.916176 0.251933 0.997005 0.273040
H12   H     H_    0.942866 0.172268 0.148245 0.177508
F4    F     F_    0.073233 0.335371 0.842199 -0.608659
O13   O     O_3   0.307473 0.306457 0.737424 -0.506253
C35   C     C_3   0.284307 0.176333 0.756715 -0.172303
H13   H     H_    0.305888 0.124949 0.663072 0.174052
H14   H     H_    0.182923 0.150867 0.776394 0.195102
H15   H     H_    0.345261 0.143696 0.838744 0.109321
F5    F     F_    0.695916 0.613885 0.869941 -0.619313
F6    F     F_    0.083639 0.290797 0.570192 -0.644180
F7    F     F_    0.914614 0.474900 0.751313 -0.533398
O14   O     O_3   0.111241 0.701255 0.666068 -0.562123
C36   C     C_3   0.022273 0.760020 0.745582 -0.101500
H16   H     H_    0.985834 0.696639 0.824123 0.243146
H17   H     H_    0.942358 0.793112 0.684979 0.157430
H18   H     H_    0.070775 0.843620 0.796980 0.155301
O15   O     O_3   0.904522 0.735703 0.425598 -0.560651
C37   C     C_3   0.996592 0.823396 0.378487 -0.246334
H19   H     H_    0.031180 0.791815 0.279754 0.204291
H20   H     H_    0.076456 0.842588 0.451699 0.160683
H21   H     H_    0.951814 0.913184 0.363900 0.174594
F8    F     F_    0.079622 0.560868 0.246464 -0.605624
F9    F     F_    0.499196 0.113335 0.257090 -0.582925
O16   O     O_3   0.705559 0.226794 0.714125 -0.539703
C38   C     C_3   0.816205 0.181370 0.658324 -0.138898
H22   H     H_    0.813294 0.190612 0.548101 0.184549
H23   H     H_    0.833665 0.082618 0.683136 0.095585
H24   H     H_    0.898139 0.238830 0.700529 0.295525
F10   F     F_    0.661982 0.141423 0.961896 -0.617475

loop_
_geom_bond_atom_site_label_1
_geom_bond_atom_site_label_2
_ccdc_geom_bond_type
C8    C9    A    
O16   C38   S    
C16   C21   A    
N1    Zn2   S    
C3    F8    S    
O4    Zn2   S    
C19   C20   A    
O2    Zn2   S    
C36   H18   S    
C24   N2    A    
C37   H19   S    
C1    O1    A    
C7    C8    A    
O7    Zn1   S    
C31   H1    S    
C25   C28   S    
C21   N1    A    
C26   C27   S    
C29   C30   S    
C28   C29   S    
C36   H17   S    
O6    Zn2   S    
C25   O8    A    
C5    C6    A    
C33   H8    S    
C26   F6    S    
O11   C33   S    
C18   C19   A    
C34   H11   S    
C17   O12   S    
C35   H13   S    
C1    C11   S    
C13   F9    S    
N2    Zn1   S    
C19   O13   S    
C12   O4    A    
C9    C10   A    
C15   C23   S    
C13   C14   A    
C37   H20   S    
C1    O2    A    
O10   C32   S    
C31   H2    S    
C22   N1    A    
C32   H4    S    
C36   H16   S    
C16   C17   A    
C33   H9    S    
C29   F7    S    
C23   O5    A    
O13   C35   S    
C32   H5    S    
O14   C36   S    
C16   O11   S    
C34   H10   S    
C38   H24   S    
C17   C18   A    
C7    O9    S    
C20   C21   A    
C12   O3    A    
C6    C7    A    
C38   H23   S    
C22   C24   A    
C4    C12   S    
C3    C4    S    
C37   H21   S    
O9    C31   S    
C24   F5    S    
C20   N2    A    
C31   H3    S    
C34   H12   S    
O15   C37   S    
C4    C26   S    
C22   F3    S    
C18   F4    S    
C23   O6    A    
C2    C30   S    
C32   H6    S    
O1    Zn1   S    
C3    C27   S    
C2    C3    S    
C9    C15   A    
C5    C10   A    
C25   O7    A    
C30   O14   S    
C11   C13   A    
C33   H7    S    
C14   O10   S    
C35   H15   S    
C6    F10   S    
O8    Zn2   S    
O5    Zn1   S    
O12   C34   S    
O3    Zn1   S    
C2    O15   S    
C10   C11   A    
C5    O16   S    
C27   F1    S    
C38   H22   S    
C26   C29   S    
C35   H14   S    
C27   C28   S    
C14   C15   A    
C2    C28   S    
C8    F2    S    
C4    C30   S    
