data_mof_unit_63967.cif
_audit_creation_date              2012-12-10T17:30:04-0500
_audit_creation_method            fapswitch 2.2
_symmetry_space_group_name_H-M    P1
_symmetry_Int_Tables_number       1
_space_group_crystal_system       triclinic
_cell_length_a                    18.556998
_cell_length_b                    18.837852
_cell_length_c                    18.592216
_cell_angle_alpha                 109.496105
_cell_angle_beta                  109.28772
_cell_angle_gamma                 109.360936
_cell_volume                      5019.72793611

loop_
_atom_site_label
_atom_site_type_symbol
_atom_type_description
_atom_site_fract_x
_atom_site_fract_y
_atom_site_fract_z
_atom_type_partial_charge
C1    C     C_R   0.619383 0.619292 0.499013 0.793735
C2    C     C_3   0.180052 0.419901 0.198854 -0.200224
C3    C     C_3   0.219524 0.476880 0.299003 -0.143955
C4    C     C_3   0.311694 0.499493 0.310983 -0.015810
C5    C     C_3   0.765126 0.756122 0.597395 -0.007932
C6    C     C_3   0.837969 0.830350 0.599278 0.571912
C7    C     C_3   0.728430 0.647563 0.445730 -0.349129
C8    C     C_3   0.650618 0.734047 0.459373 -0.488700
C9    C     C_3   0.690226 0.687459 0.500502 0.060808
C10   C     C_3   0.812282 0.809862 0.501279 0.119526
C11   C     C_3   0.800444 0.718742 0.445710 -0.029980
C12   C     C_R   0.379838 0.499751 0.379789 0.785067
C13   C     C_3   0.720628 0.802535 0.455497 -0.513305
C14   C     C_3   0.658022 0.409970 0.679343 -0.395223
C15   C     C_3   0.728029 0.408230 0.750712 -0.364966
C16   C     C_3   0.779434 0.530834 0.684655 -0.002733
C17   C     C_3   0.714792 0.566187 0.782561 -0.411021
C18   C     C_3   0.692122 0.501821 0.689283 0.120334
C19   C     C_3   0.811974 0.499185 0.811326 0.130488
C20   C     C_3   0.846421 0.522033 0.751857 -0.421332
C21   C     C_3   0.789092 0.568837 0.854930 0.004358
C22   C     C_3   0.250274 0.229531 0.408259 -0.404533
C23   C     C_R   0.378943 0.380307 0.499339 0.763346
C24   C     C_3   0.182316 0.156759 0.409798 -0.412688
C25   C     C_3   0.357421 0.285969 0.570122 0.369257
C26   C     C_3   0.250744 0.342786 0.525660 -0.421650
C27   C     C_3   0.312016 0.311522 0.501911 0.165197
C28   C     C_3   0.190177 0.189653 0.501718 0.101212
C29   C     C_3   0.283475 0.215490 0.570196 -0.328307
C30   C     C_3   0.180087 0.271473 0.526402 -0.398731
C31   C     C_R   0.000516 0.619497 0.120989 0.771198
C32   C     C_R   0.121459 0.500020 0.120986 0.772643
C33   C     C_R   0.001041 0.380771 0.880528 0.807682
C34   C     C_R   0.621839 0.501482 0.620376 0.762545
C35   C     C_R   0.880979 0.498314 0.879397 0.760707
C36   C     C_R   0.000680 0.880392 0.380151 0.781174
C37   C     C_R   0.879965 0.879203 0.499468 0.769039
C38   C     C_R   0.998403 0.118690 0.620010 0.856930
C39   C     C_R   0.120357 0.120396 0.500622 0.783001
C40   C     C_3   0.921813 0.647225 0.206374 0.193851
C41   C     C_3   0.919566 0.719622 0.275922 -0.070947
C42   C     C_3   0.088913 0.738713 0.277892 0.248957
C43   C     C_3   0.986876 0.752466 0.160358 -0.421432
C44   C     C_3   0.999847 0.687619 0.190351 0.014234
C45   C     C_3   0.322466 0.579696 0.301350 -0.160503
C46   C     C_3   0.998845 0.809852 0.310851 0.049779
C47   C     C_3   0.085203 0.806124 0.349721 -0.395948
C48   C     C_3   0.993647 0.827762 0.234029 -0.367240
C49   C     C_3   0.033208 0.258713 0.849987 -0.043714
C50   C     C_3   0.038951 0.190815 0.780295 0.262994
C51   C     C_3   0.907525 0.251072 0.733576 -0.471209
C52   C     C_3   0.062205 0.351183 0.777672 -0.414917
C53   C     C_3   0.002421 0.312658 0.812496 0.047299
C54   C     C_3   0.998910 0.187979 0.689889 0.084103
C55   C     C_3   0.904271 0.177164 0.661151 -0.050515
C56   C     C_3   0.229006 0.556946 0.288055 -0.180178
C57   C     C_3   0.058726 0.277892 0.703897 0.082904
C58   C     C_3   0.190373 0.499963 0.188855 0.011657
C59   C     C_3   0.282496 0.522261 0.201772 0.218747
C60   C     C_3   0.273267 0.442325 0.211816 -0.166020
Cu1   Cu    Cu3+1 0.500160 0.437540 0.437660 0.916497
Cu2   Cu    Cu3+1 0.499840 0.562460 0.562340 0.917486
Cu3   Cu    Cu3+1 0.938720 0.437560 0.001120 0.954536
Cu4   Cu    Cu3+1 0.063680 0.562470 0.001100 0.927072
Cu5   Cu    Cu3+1 0.062620 0.000040 0.562660 0.971475
Cu6   Cu    Cu3+1 0.937380 0.999960 0.437350 0.911068
H1    H     H_    0.209659 0.603786 0.318084 0.122985
H2    H     H_    0.753692 0.610076 0.471104 0.180852
H3    H     H_    0.593850 0.686085 0.391844 0.179910
H4    H     H_    0.625306 0.766093 0.498671 0.186147
H5    H     H_    0.723420 0.865923 0.485144 0.192371
H6    H     H_    0.699623 0.783239 0.385315 0.198249
H7    H     H_    0.674864 0.599996 0.376563 0.161032
H8    H     H_    0.776183 0.705240 0.376648 0.144382
H9    H     H_    0.639505 0.360606 0.613392 0.181677
H10   H     H_    0.382043 0.645020 0.344036 0.127566
H11   H     H_    0.597879 0.391315 0.685559 0.159997
H12   H     H_    0.700264 0.386595 0.788991 0.186257
H13   H     H_    0.744728 0.359339 0.718963 0.147574
H14   H     H_    0.860251 0.471105 0.718478 0.174165
H15   H     H_    0.736473 0.632719 0.791672 0.148535
H16   H     H_    0.654328 0.546600 0.788509 0.196344
H17   H     H_    0.848731 0.633860 0.889849 0.145320
H18   H     H_    0.808761 0.600895 0.705932 0.147126
H19   H     H_    0.909755 0.584476 0.791806 0.163579
H20   H     H_    0.287573 0.204755 0.381421 0.188154
H21   H     H_    0.215092 0.246750 0.361520 0.159531
H22   H     H_    0.115113 0.134621 0.358767 0.182711
H23   H     H_    0.193195 0.100106 0.392895 0.154092
H24   H     H_    0.290043 0.156320 0.555814 0.160577
H25   H     H_    0.288334 0.403319 0.590141 0.184285
H26   H     H_    0.217743 0.358859 0.476494 0.159279
H27   H     H_    0.113645 0.255193 0.479240 0.181809
H28   H     H_    0.292302 0.395542 0.181007 0.147299
H29   H     H_    0.186586 0.296323 0.592741 0.168683
H30   H     H_    0.289071 0.238907 0.636360 0.175114
H31   H     H_    0.859944 0.612470 0.142405 0.167324
H32   H     H_    0.927923 0.708884 0.332695 0.158820
H33   H     H_    0.100415 0.693122 0.299808 0.053066
H34   H     H_    0.089173 0.788472 0.401864 0.127801
H35   H     H_    0.036983 0.779536 0.142491 0.230589
H36   H     H_    0.120768 0.354399 0.155888 0.146678
H37   H     H_    0.921445 0.718488 0.100622 0.137679
H38   H     H_    0.936501 0.836822 0.206610 0.183816
H39   H     H_    0.053563 0.889171 0.258801 0.170937
H40   H     H_    0.143462 0.871432 0.381689 0.206604
H41   H     H_    0.982507 0.223648 0.863634 0.197643
H42   H     H_    0.109349 0.209318 0.801856 0.179884
H43   H     H_    0.861946 0.224338 0.756225 0.202853
H44   H     H_    0.194838 0.458102 0.340346 0.127418
H45   H     H_    0.039660 0.389311 0.750881 0.143422
H46   H     H_    0.131001 0.397175 0.832341 0.209028
H47   H     H_    0.030072 0.279095 0.641511 0.106493
H48   H     H_    0.884111 0.288346 0.705945 0.142281
H49   H     H_    0.883175 0.183977 0.601472 0.164043
H50   H     H_    0.734171 0.784561 0.631766 0.160515
O1    O     O_R   0.591300 0.538410 0.447360 -0.597025
O2    O     O_R   0.053760 0.643910 0.092060 -0.573622
O3    O     O_R   0.039800 0.447260 0.092470 -0.580638
O4    O     O_R   0.145330 0.552750 0.092450 -0.585543
O5    O     O_R   0.948640 0.356110 0.910160 -0.602751
O6    O     O_R   0.054170 0.461590 0.910140 -0.592513
O7    O     O_R   0.857070 0.447280 0.909760 -0.589396
O8    O     O_R   0.962600 0.552760 0.909740 -0.604659
O9    O     O_R   0.053170 0.908900 0.462020 -0.607140
O10   O     O_R   0.947410 0.908840 0.356190 -0.586785
O11   O     O_R   0.961720 0.908880 0.552900 -0.526728
O12   O     O_R   0.591030 0.643900 0.552660 -0.595755
O13   O     O_R   0.855960 0.908820 0.447080 -0.613437
O14   O     O_R   0.052590 0.091170 0.643810 -0.548012
O15   O     O_R   0.946830 0.091100 0.537990 -0.619898
O16   O     O_R   0.144040 0.091190 0.552920 -0.592942
O17   O     O_R   0.038280 0.091120 0.447100 -0.595195
O18   O     O_R   0.408770 0.447260 0.356000 -0.590275
O19   O     O_R   0.408500 0.552750 0.461290 -0.585263
O20   O     O_R   0.408970 0.356100 0.447340 -0.594079
O21   O     O_R   0.408700 0.461590 0.552640 -0.591135
O22   O     O_R   0.591500 0.447250 0.538710 -0.582354
O23   O     O_R   0.591230 0.552740 0.644000 -0.600431
O24   O     O_R   0.948230 0.538430 0.092080 -0.544719
O25   O     O_3   0.920645 0.836162 0.639679 -0.706834
H51   H     H_    0.945270 0.864408 0.704307 0.332790
C61   C     C_3   0.884075 0.710423 0.470385 -0.807066
H52   H     H_    0.937235 0.761836 0.472673 0.240845
H53   H     H_    0.908560 0.711129 0.533747 0.280597
H54   H     H_    0.868438 0.647305 0.419345 0.210998
C62   C     C_3   0.769587 0.485446 0.593208 -0.857862
H55   H     H_    0.732738 0.413834 0.562651 0.248259
H56   H     H_    0.736391 0.506053 0.549431 0.245225
H57   H     H_    0.835542 0.504787 0.598914 0.223445
C63   C     C_3   0.764309 0.560604 0.924341 -0.892347
H58   H     H_    0.704450 0.497714 0.894980 0.249615
H59   H     H_    0.818974 0.566949 0.978767 0.228617
H60   H     H_    0.751208 0.613582 0.953359 0.226548
C64   C     C_3   0.319624 0.548337 0.147264 -0.875801
H61   H     H_    0.386998 0.557362 0.170779 0.224470
H62   H     H_    0.277211 0.496949 0.077186 0.237639
H63   H     H_    0.322487 0.610127 0.153958 0.245733
C65   C     C_3   0.414367 0.248666 0.545521 -0.880194
H64   H     H_    0.373989 0.186757 0.482184 0.225019
H65   H     H_    0.465895 0.295218 0.541363 0.240586
H66   H     H_    0.448064 0.234489 0.596080 0.225769
C66   C     C_3   0.419143 0.365228 0.664660 -0.880906
H67   H     H_    0.451275 0.345820 0.710620 0.226763
H68   H     H_    0.472091 0.417458 0.667314 0.234755
H69   H     H_    0.382673 0.392318 0.690458 0.224119
O26   O     O_3   0.924587 0.584242 0.230460 -0.720976
H70   H     H_    0.974139 0.613901 0.291076 0.307205
C67   C     C_3   0.828567 0.713138 0.238369 -0.895853
H71   H     H_    0.776759 0.647339 0.215925 0.237928
H72   H     H_    0.823928 0.759968 0.289234 0.248504
H73   H     H_    0.814003 0.724158 0.181461 0.239996
O27   O     O_3   0.159255 0.782127 0.267178 -0.716221
H74   H     H_    0.186323 0.745062 0.256300 0.324186
C68   C     C_3   0.120703 0.314067 0.937949 -0.959279
H75   H     H_    0.137330 0.271258 0.960833 0.233609
H76   H     H_    0.175570 0.352051 0.931035 0.253305
H77   H     H_    0.115295 0.359048 0.989650 0.243508
O28   O     O_3   0.996527 0.109352 0.772149 -0.778698
H78   H     H_    0.034710 0.111484 0.825797 0.321433
C69   C     C_3   0.832217 0.088323 0.634766 -0.839088
H79   H     H_    0.828326 0.035054 0.581792 0.234859
H80   H     H_    0.843277 0.078392 0.692113 0.283927
H81   H     H_    0.767256 0.084926 0.608747 0.221006
O29   O     O_3   0.144046 0.291260 0.725486 -0.757508
H82   H     H_    0.175633 0.344226 0.723794 0.319341
C70   C     C_3   0.801586 0.715619 0.649472 -0.906909
H83   H     H_    0.835308 0.684979 0.622515 0.259147
H84   H     H_    0.848371 0.765736 0.719598 0.227052
H85   H     H_    0.747566 0.666483 0.648490 0.221780
C71   C     C_3   0.845394 0.917945 0.653151 -0.947563
H86   H     H_    0.870366 0.935890 0.723349 0.241928
H87   H     H_    0.891558 0.969134 0.649085 0.292846
H88   H     H_    0.780969 0.915584 0.629227 0.207579

loop_
_geom_bond_atom_site_label_1
_geom_bond_atom_site_label_2
_ccdc_geom_bond_type
C61   H54   S    
C33   O5    A    
C49   C53   S    
C8    C13   S    
C22   H20   S    
C64   H62   S    
C67   H71   S    
C14   C18   S    
C36   O9    A    
C1    O12   A    
C32   C58   S    
C24   H23   S    
C43   H35   S    
Cu5   O14   S    
C49   H41   S    
O27   H74   S    
C15   C19   S    
C8    H3    S    
C50   C54   S    
C23   O20   A    
C45   H10   S    
Cu5   O11   S    
C35   O8    A    
C66   H68   S    
C10   C13   S    
C30   H27   S    
C65   H64   S    
C5    C6    S    
C2    C60   S    
Cu1   O22   S    
C14   H11   S    
C15   H12   S    
C39   O16   A    
C2    H36   S    
C3    H44   S    
C26   H26   S    
C61   H52   S    
C48   H38   S    
C34   O23   A    
C16   H18   S    
Cu4   O2    S    
C25   C29   S    
C61   H53   S    
C17   H16   S    
Cu3   O24   S    
C63   H60   S    
C49   C50   S    
C70   H85   S    
C62   H55   S    
C7    H2    S    
C46   C47   S    
C15   H13   S    
C21   H17   S    
C45   C56   S    
C56   C58   S    
C8    C9    S    
C40   O26   S    
C12   O19   A    
C6    C71   S    
C25   C65   S    
C41   C46   S    
C65   H65   S    
C36   C46   S    
C23   C27   S    
Cu2   O23   S    
C4    C12   S    
C17   H15   S    
C43   C48   S    
C57   O29   S    
C16   C20   S    
Cu6   O13   S    
C21   C63   S    
C59   C60   S    
C51   H43   S    
C12   O18   A    
C64   H63   S    
C50   H42   S    
C67   H72   S    
C4    C60   S    
C42   C44   S    
C32   O4    A    
C29   H24   S    
Cu3   O5    S    
Cu1   O18   S    
C68   H77   S    
C4    C45   S    
C69   H80   S    
C33   C53   S    
C46   C48   S    
C51   H48   S    
C31   C44   S    
C20   H14   S    
Cu1   O1    S    
C71   H86   S    
C7    H7    S    
C66   H69   S    
C1    C9    S    
C68   H76   S    
C10   C11   S    
O26   H70   S    
C59   C64   S    
C57   H47   S    
C13   H5    S    
C52   H45   S    
C26   H25   S    
C69   H79   S    
C41   C67   S    
C34   O22   A    
C17   C21   S    
C47   H34   S    
Cu3   Cu4   S    
C51   C53   S    
Cu5   O9    S    
Cu2   O19   S    
C7    C11   S    
C43   C44   S    
C71   H87   S    
C31   O2    A    
C5    C9    S    
C30   H29   S    
Cu6   O17   S    
C18   C34   S    
C3    C56   S    
C48   H39   S    
C38   C54   S    
C63   H58   S    
C47   H40   S    
C20   H19   S    
C62   H57   S    
C14   C15   S    
C17   C18   S    
C55   C69   S    
C65   H66   S    
C1    O1    A    
C22   H21   S    
C6    O25   S    
C24   H22   S    
C16   C18   S    
C40   C41   S    
C26   C30   S    
C22   C27   S    
C16   C62   S    
C5    H50   S    
C26   C27   S    
C33   O6    A    
C67   H73   S    
C22   C24   S    
C5    C70   S    
C32   O3    A    
C3    C4    S    
C38   O14   A    
C49   C68   S    
Cu5   O16   S    
C52   C53   S    
C42   O27   S    
Cu6   O15   S    
C39   O17   A    
C69   H81   S    
C7    C9    S    
C54   C55   S    
C28   C29   S    
C62   H56   S    
Cu3   O3    S    
C23   O21   A    
C36   O10   A    
C24   C28   S    
C11   H8    S    
C6    C10   S    
C29   H30   S    
Cu3   O7    S    
C2    C58   S    
C13   H6    S    
C10   C37   S    
C25   C27   S    
C56   H1    S    
C28   C39   S    
C8    H4    S    
Cu4   O4    S    
C38   O15   A    
C19   C20   S    
C35   O7    A    
C50   O28   S    
C58   C59   S    
C71   H88   S    
C70   H83   S    
C40   H31   S    
C68   H75   S    
Cu4   O8    S    
O25   H51   S    
C14   H9    S    
Cu2   O12   S    
O29   H82   S    
C55   H49   S    
C25   C66   S    
Cu4   O6    S    
C28   C30   S    
C37   O13   A    
C2    C3    S    
C51   C55   S    
C42   C47   S    
C63   H59   S    
Cu2   O21   S    
Cu1   Cu2   S    
C43   H37   S    
C70   H84   S    
C66   H67   S    
C52   C57   S    
O28   H78   S    
Cu6   O10   S    
C40   C44   S    
C45   C59   S    
Cu5   Cu6   S    
C64   H61   S    
C52   H46   S    
C41   H32   S    
C19   C35   S    
C37   O11   A    
C31   O24   A    
C42   H33   S    
C11   C61   S    
Cu1   O20   S    
C19   C21   S    
C54   C57   S    
C60   H28   S    
