data_mof_unit_13177.cif
_audit_creation_date              2012-12-10T17:54:16-0500
_audit_creation_method            fapswitch 2.2
_symmetry_space_group_name_H-M    P1
_symmetry_Int_Tables_number       1
_space_group_crystal_system       triclinic
_cell_length_a                    27.442947
_cell_length_b                    10.760222
_cell_length_c                    9.871972
_cell_angle_alpha                 92.670394
_cell_angle_beta                  91.279672
_cell_angle_gamma                 92.915848
_cell_volume                      2907.28905501

loop_
_atom_site_label
_atom_site_type_symbol
_atom_type_description
_atom_site_fract_x
_atom_site_fract_y
_atom_site_fract_z
_atom_type_partial_charge
Br1   Br    Br    0.878517 0.939331 0.642623 -0.383510
Br2   Br    Br    0.488563 0.107443 0.195717 -0.559300
Br3   Br    Br    0.449722 0.801275 0.826964 -0.433497
Br4   Br    Br    0.100311 0.139441 0.454620 -0.453466
Br5   Br    Br    0.655182 0.402880 0.237605 -0.492298
Br6   Br    Br    0.965906 0.198911 0.799646 -0.495623
Br7   Br    Br    0.354029 0.610920 0.230685 -0.471887
C1    C     C_R   0.504003 0.260222 0.497026 0.890173
C2    C     C_R   0.971525 0.431279 0.657348 0.009782
C3    C     C_R   0.980061 0.658396 0.652303 0.016135
C4    C     C_R   0.405657 0.500712 0.498374 0.912255
C5    C     C_R   0.950435 0.547278 0.647882 0.019566
C6    C     C_R   0.941452 0.328329 0.693904 0.243206
C7    C     C_R   0.891090 0.331282 0.678324 -0.112290
C8    C     C_R   0.870111 0.440052 0.638629 -0.065779
C9    C     C_R   0.899340 0.551160 0.634016 -0.103678
C10   C     C_R   0.877788 0.664986 0.612277 -0.131134
C11   C     C_R   0.827801 0.660220 0.573854 0.566752
C12   C     C_R   0.278248 0.449409 0.617282 -0.127153
C13   C     C_R   0.820237 0.442174 0.610470 0.546298
C14   C     C_R   0.729191 0.498260 0.427029 -0.154061
C15   C     C_R   0.678714 0.482522 0.406479 0.254634
C16   C     C_R   0.496201 0.739783 0.503802 0.925068
C17   C     C_R   0.668134 0.573511 0.633780 -0.236976
C18   C     C_R   0.718421 0.587842 0.654767 0.221278
C19   C     C_R   0.749025 0.549366 0.550529 0.242044
C20   C     C_R   0.021019 0.422188 0.625808 0.022819
C21   C     C_R   0.051357 0.531587 0.617967 0.079122
C22   C     C_R   0.031389 0.650211 0.635160 0.037725
C23   C     C_R   0.250208 0.490581 0.510664 0.269907
C24   C     C_R   0.038585 0.307886 0.580080 -0.191604
C25   C     C_R   0.112805 0.749024 0.607952 0.152039
C26   C     C_R   0.956357 0.771862 0.675067 0.053834
C27   C     C_R   0.906444 0.777350 0.638499 0.337352
C28   C     C_R   0.594332 0.502469 0.501884 0.908719
C29   C     C_R   0.062439 0.756037 0.618798 -0.193924
C30   C     C_R   0.552901 0.131352 0.714841 -0.116851
C31   C     C_R   0.559117 0.079446 0.840848 0.158794
C32   C     C_R   0.531542 0.971127 0.868428 -0.164082
C33   C     C_R   0.502641 0.907649 0.766143 0.261612
C34   C     C_R   0.101249 0.521919 0.585893 -0.127991
C35   C     C_R   0.504641 0.947693 0.631041 0.016372
C36   C     C_R   0.522535 0.069787 0.612678 -0.019852
C37   C     C_R   0.509599 0.126784 0.491935 -0.150092
C38   C     C_R   0.493475 0.052814 0.376826 0.261111
C39   C     C_R   0.484613 0.927551 0.388281 -0.201668
C40   C     C_R   0.169203 0.396117 0.524924 0.548869
C41   C     C_R   0.491282 0.873108 0.512210 -0.142436
C42   C     C_R   0.431086 0.347825 0.129393 -0.057693
C43   C     C_R   0.396676 0.272903 0.053731 -0.100312
C44   C     C_R   0.397608 0.269107 0.913523 -0.178142
C45   C     C_R   0.119217 0.403504 0.550397 -0.095480
C46   C     C_R   0.432419 0.341720 0.848392 -0.146599
C47   C     C_R   0.466363 0.423190 0.921948 0.195494
C48   C     C_R   0.466016 0.424696 0.066745 0.180944
C49   C     C_R   0.532503 0.572569 0.077376 -0.044024
C50   C     C_R   0.532434 0.572714 0.933981 -0.074326
C51   C     C_R   0.182523 0.616339 0.560620 0.524652
C52   C     C_R   0.272511 0.531947 0.392126 0.159855
C53   C     C_R   0.323904 0.537882 0.385896 0.237415
C54   C     C_R   0.328458 0.451743 0.609904 -0.238432
C55   C     C_3   0.242006 0.571348 0.273757 -0.741305
C56   C     C_R   0.086303 0.297919 0.539477 0.328824
C57   C     C_3   0.143126 0.870521 0.617400 -0.654229
C58   C     C_3   0.979712 0.877923 0.763469 -0.751661
C59   C     C_3   0.739070 0.639421 0.789827 -0.809067
C60   C     C_3   0.592562 0.143058 0.947983 -0.758247
C61   C     C_R   0.132721 0.630726 0.586409 -0.021800
C62   C     C_R   0.352024 0.497070 0.496235 -0.140495
C63   C     C_R   0.647731 0.519180 0.511612 -0.157032
H1    H     H_    0.348918 0.419473 0.695157 0.182237
H2    H     H_    0.370317 0.214116 0.104357 0.173783
H3    H     H_    0.371694 0.208102 0.854696 0.170307
H4    H     H_    0.431710 0.330146 0.740770 0.198284
H5    H     H_    0.558745 0.632351 0.884410 0.137002
H6    H     H_    0.753307 0.467053 0.348492 0.182793
H7    H     H_    0.868534 0.249583 0.700700 0.238230
H8    H     H_    0.014077 0.226355 0.564232 0.206738
H9    H     H_    0.251421 0.517574 0.180067 0.249446
H10   H     H_    0.202289 0.554232 0.287545 0.223282
H11   H     H_    0.249145 0.672339 0.259545 0.274541
H12   H     H_    0.644726 0.603880 0.714556 0.173645
H13   H     H_    0.120873 0.950737 0.644833 0.237155
H14   H     H_    0.171334 0.868512 0.699506 0.258929
H15   H     H_    0.160160 0.888124 0.518691 0.284940
H16   H     H_    0.012573 0.849982 0.819599 0.234717
H17   H     H_    0.989108 0.957927 0.700542 0.278405
H18   H     H_    0.954143 0.907400 0.842996 0.286333
H19   H     H_    0.709850 0.659656 0.862500 0.236476
H20   H     H_    0.762769 0.570923 0.835147 0.245939
H21   H     H_    0.760850 0.727494 0.776359 0.269588
H22   H     H_    0.613268 0.224531 0.908536 0.243685
H23   H     H_    0.048044 0.846386 0.610001 0.185236
H24   H     H_    0.571184 0.176577 0.034918 0.286407
H25   H     H_    0.619150 0.076645 0.983698 0.246895
H26   H     H_    0.572420 0.218625 0.695770 0.164295
H27   H     H_    0.260909 0.418268 0.708119 0.163285
H28   H     H_    0.531399 0.937996 0.970351 0.197027
H29   H     H_    0.474147 0.871500 0.297125 0.219993
H30   H     H_    0.558958 0.631902 0.136082 0.155319
H31   H     H_    0.431131 0.337733 0.236234 0.204805
N1    N     N_R   0.199100 0.501207 0.530590 -0.356874
N2    N     N_R   0.800527 0.550295 0.575260 -0.352779
N3    N     N_R   0.499540 0.498800 0.142780 -0.116733
N4    N     N_R   0.499520 0.498720 0.857170 -0.111964
O1    O     O_R   0.500000 0.316780 0.614690 -0.653620
O2    O     O_R   0.571250 0.499990 0.614680 -0.641455
O3    O     O_R   0.571240 0.499970 0.385350 -0.572382
O4    O     O_2   0.188590 0.285405 0.497719 -0.489920
O5    O     O_2   0.791515 0.337067 0.617209 -0.519709
O6    O     O_2   0.214711 0.715415 0.564820 -0.544127
O7    O     O_2   0.806318 0.762661 0.533961 -0.482413
O8    O     O_R   0.500000 0.316750 0.385360 -0.591457
O9    O     O_R   0.428760 0.500030 0.614650 -0.619289
O10   O     O_R   0.428750 0.500010 0.385320 -0.610634
O11   O     O_R   0.500000 0.683250 0.614640 -0.590080
O12   O     O_R   0.500000 0.683220 0.385310 -0.619102
Zn1   Zn    Zn3+2 0.500000 0.500020 0.653130 0.969927
Zn2   Zn    Zn3+2 0.500000 0.499980 0.346870 1.008239

loop_
_geom_bond_atom_site_label_1
_geom_bond_atom_site_label_2
_ccdc_geom_bond_type
C50   N4    A    
C14   C19   A    
C57   H15   S    
C46   H4    S    
C39   H29   S    
C12   H27   S    
C26   C58   S    
C58   H16   S    
C59   H20   S    
C13   N2    A    
C46   C47   A    
Br4   C56   S    
C24   H8    S    
C25   C29   A    
C55   H10   S    
C21   C22   A    
C11   O7    S    
O12   Zn2   S    
C42   H31   S    
C31   C32   A    
C8    C9    A    
C21   C34   A    
C2    C6    A    
C49   C50   A    
C7    H7    S    
C4    O9    A    
C43   H2    S    
C57   H14   S    
C14   H6    S    
C28   O3    A    
C44   H3    S    
C16   O11   A    
O8    Zn2   S    
C29   H23   S    
Br5   C15   S    
C5    C9    A    
C28   C63   S    
C9    C10   A    
C60   H24   S    
C51   N1    A    
C17   H12   S    
C59   H19   S    
C4    O10   A    
O2    Zn1   S    
C25   C61   A    
N3    Zn2   S    
C54   H1    S    
C33   C35   A    
C52   C53   A    
C40   N1    A    
C14   C15   A    
O1    Zn1   S    
C60   H25   S    
O3    Zn2   S    
Br1   C27   S    
C58   H17   S    
C34   C61   A    
Br2   C38   S    
C8    C13   A    
C39   C41   A    
C17   C63   A    
C51   O6    S    
C24   C56   A    
C55   H9    S    
C26   C27   A    
C17   C18   A    
C25   C57   S    
C32   C33   A    
C32   H28   S    
C43   C44   A    
C18   C19   A    
C42   C48   A    
C20   C24   A    
C48   N3    A    
C30   H26   S    
C44   C46   A    
C30   C36   A    
C40   C45   A    
C36   C37   A    
C57   H13   S    
C30   C31   A    
C19   N2    S    
C22   C29   A    
C23   C52   A    
C23   N1    S    
C10   C11   A    
C35   C41   A    
C49   N3    A    
O9    Zn1   S    
C3    C5    A    
C1    O8    A    
C13   O5    S    
C51   C61   A    
C55   H11   S    
Br3   C33   S    
O10   Zn2   S    
N4    Zn1   S    
C10   C27   A    
C49   H30   S    
Br7   C53   S    
C37   C38   A    
C2    C20   A    
C58   H18   S    
C54   C62   A    
C47   C48   A    
C52   C55   S    
C16   C41   S    
C34   C45   A    
C47   N4    A    
C18   C59   S    
C1    C37   S    
C45   C56   A    
C1    O1    A    
C16   O12   A    
C4    C62   S    
C59   H21   S    
C50   H5    S    
C40   O4    S    
Br6   C6    S    
C3    C22   A    
C53   C62   A    
C12   C54   A    
C60   H22   S    
O11   Zn1   S    
C3    C26   A    
C11   N2    A    
C2    C5    A    
C28   O2    A    
C38   C39   A    
C31   C60   S    
C42   C43   A    
C35   C36   A    
C20   C21   A    
C7    C8    A    
C6    C7    A    
C12   C23   A    
C15   C63   A    
