data_mof_unit_57741.cif
_audit_creation_date              2012-12-10T21:42:36-0500
_audit_creation_method            fapswitch 2.2
_symmetry_space_group_name_H-M    P1
_symmetry_Int_Tables_number       1
_space_group_crystal_system       triclinic
_cell_length_a                    10.803783
_cell_length_b                    16.114642
_cell_length_c                    16.946318
_cell_angle_alpha                 88.325553
_cell_angle_beta                  90.877195
_cell_angle_gamma                 93.678176
_cell_volume                      2942.7371482

loop_
_atom_site_label
_atom_site_type_symbol
_atom_type_description
_atom_site_fract_x
_atom_site_fract_y
_atom_site_fract_z
_atom_type_partial_charge
C1    C     C_R   0.498764 0.489524 0.652695 0.959532
C2    C     C_R   0.501100 0.441709 0.220167 -0.292654
C3    C     C_R   0.490863 0.555866 0.860729 0.668380
C4    C     C_R   0.484616 0.442420 0.139336 0.666672
C5    C     C_R   0.519336 0.482029 0.901781 0.172115
C6    C     C_R   0.459750 0.517269 0.098909 0.184402
C7    C     C_R   0.544258 0.411481 0.860395 -0.154609
C8    C     C_R   0.444102 0.589119 0.140723 -0.179668
C9    C     C_R   0.535840 0.412820 0.778600 -0.061227
C10   C     C_R   0.459392 0.587950 0.222198 -0.073091
C11   C     C_R   0.478141 0.763090 0.446065 -0.033741
C12   C     C_R   0.500326 0.510452 0.347252 0.955751
C13   C     C_R   0.522635 0.236952 0.553751 -0.036251
C14   C     C_R   0.476860 0.850074 0.449140 0.580719
C15   C     C_R   0.523584 0.149952 0.550736 0.572918
C16   C     C_R   0.740355 0.500932 0.502718 0.984179
C17   C     C_R   0.259635 0.499085 0.497210 0.982792
C18   C     C_R   0.514413 0.890579 0.519476 0.190940
C19   C     C_R   0.484930 0.109388 0.480635 0.191730
C20   C     C_R   0.552871 0.841083 0.583562 -0.242196
C21   C     C_R   0.445732 0.158851 0.416724 -0.243319
C22   C     C_R   0.553374 0.754528 0.577556 -0.038632
C23   C     C_R   0.126469 0.496319 0.493217 -0.298927
C24   C     C_R   0.445528 0.245426 0.422687 -0.037921
C25   C     C_R   0.781114 0.736425 0.347651 0.412926
C26   C     C_R   0.219110 0.262241 0.649869 0.328599
C27   C     C_R   0.821373 0.657986 0.370216 -0.131447
C28   C     C_R   0.178748 0.340896 0.628270 -0.119252
C29   C     C_R   0.887167 0.647736 0.441565 0.092472
C30   C     C_R   0.112227 0.351914 0.557305 0.101229
C31   C     C_R   0.904497 0.714635 0.492490 -0.170409
C32   C     C_R   0.094071 0.285516 0.505860 -0.171628
C33   C     C_R   0.859186 0.791784 0.471946 0.404410
C34   C     C_R   0.873501 0.503768 0.506583 -0.299177
C35   C     C_R   0.139291 0.208120 0.525506 0.414424
C36   C     C_R   0.798667 0.802786 0.399108 -0.286403
C37   C     C_R   0.200557 0.196356 0.597968 -0.295406
C38   C     C_R   0.067774 0.561078 0.452726 0.428409
C39   C     C_R   0.932253 0.439136 0.547170 0.430177
C40   C     C_R   0.058161 0.432142 0.535502 -0.139627
C41   C     C_R   0.941718 0.567873 0.464132 -0.136324
C42   C     C_R   0.503292 0.485283 0.738089 -0.152125
C43   C     C_R   0.489813 0.514500 0.261936 -0.132800
C44   C     C_R   0.481715 0.556771 0.779473 -0.292627
F1    F     F_    0.563279 0.107192 0.615466 -0.598023
F2    F     F_    0.437915 0.892880 0.384236 -0.599689
F3    F     F_    0.492121 0.370145 0.100905 -0.614098
F4    F     F_    0.474002 0.627255 0.898733 -0.617642
H1    H     H_    0.767354 0.863183 0.381600 0.242700
H2    H     H_    0.414960 0.282524 0.372799 0.181562
H3    H     H_    0.808107 0.606274 0.330919 0.183730
H4    H     H_    0.192891 0.392228 0.667944 0.182132
H5    H     H_    0.954493 0.706731 0.547851 0.189876
H6    H     H_    0.043637 0.294031 0.450748 0.188203
H7    H     H_    0.521795 0.383733 0.249990 0.201235
H8    H     H_    0.458520 0.613881 0.749002 0.202523
H9    H     H_    0.568262 0.355103 0.891784 0.220801
H10   H     H_    0.422984 0.646412 0.109851 0.209127
H11   H     H_    0.546463 0.795848 0.204871 0.401599
H12   H     H_    0.231911 0.135781 0.614781 0.243624
H13   H     H_    0.113326 0.181114 0.788980 0.369710
H14   H     H_    0.803791 0.992622 0.552205 0.418619
H15   H     H_    0.193690 0.008104 0.443156 0.419717
H16   H     H_    0.105256 0.704022 0.279245 0.406988
H17   H     H_    0.897163 0.296642 0.720821 0.397364
H18   H     H_    0.555790 0.357837 0.747191 0.227704
H19   H     H_    0.446735 0.643943 0.254003 0.221930
H20   H     H_    0.553897 0.267811 0.606893 0.218370
H21   H     H_    0.447659 0.732276 0.392743 0.222009
H22   H     H_    0.582633 0.869664 0.638294 0.232013
H23   H     H_    0.415148 0.130229 0.362170 0.231775
H24   H     H_    0.583251 0.717409 0.627618 0.182807
N1    N     N_2   0.524365 0.476549 0.984540 -0.075132
N2    N     N_2   0.453045 0.522809 0.016206 -0.069089
N3    N     N_R   0.515300 0.716920 0.509720 -0.152130
N4    N     N_R   0.484700 0.283080 0.490280 -0.150276
N5    N     N_2   0.515522 0.978888 0.529622 -0.039297
N6    N     N_2   0.483686 0.021072 0.470502 -0.039156
O1    O     O_R   0.494530 0.422540 0.612660 -0.611266
O2    O     O_2   0.715251 0.676877 0.205600 -0.299672
O3    O     O_3   0.575998 0.788065 0.260050 -0.554179
O4    O     O_2   0.413615 0.219243 0.736811 -0.248409
O5    O     O_2   0.279984 0.318536 0.794312 -0.290219
O6    O     O_3   0.199393 0.163328 0.788427 -0.441282
O7    O     O_2   0.848641 0.846446 0.618275 -0.299949
O8    O     O_2   0.020224 0.902590 0.536098 -0.192680
O9    O     O_3   0.801094 0.955201 0.506781 -0.519339
O10   O     O_2   0.977630 0.098281 0.460495 -0.195023
O11   O     O_2   0.149207 0.155020 0.378603 -0.298538
O12   O     O_R   0.505470 0.577460 0.387340 -0.611084
O13   O     O_3   0.196609 0.045008 0.488969 -0.519175
O14   O     O_2   0.196632 0.706814 0.425343 -0.292716
O15   O     O_2   0.254973 0.588739 0.348849 -0.338201
O16   O     O_3   0.057038 0.658316 0.307512 -0.528987
O17   O     O_2   0.745384 0.411934 0.651478 -0.335883
O18   O     O_2   0.803997 0.293422 0.575648 -0.294438
O19   O     O_3   0.944102 0.343139 0.692849 -0.544874
O20   O     O_R   0.504350 0.561840 0.618900 -0.641683
O21   O     O_R   0.495650 0.438160 0.381100 -0.642817
O22   O     O_R   0.678330 0.430350 0.496870 -0.554673
O23   O     O_R   0.321670 0.569650 0.503130 -0.554589
O24   O     O_R   0.688150 0.569660 0.503110 -0.639534
O25   O     O_R   0.311850 0.430340 0.496890 -0.639512
O26   O     O_2   0.800283 0.821360 0.211269 -0.202398
S1    S     S_3+6 0.719446 0.754741 0.252521 0.052029
S2    S     S_3+6 0.282313 0.243061 0.744448 0.068627
S3    S     S_3+6 0.884730 0.875129 0.536129 0.072184
S4    S     S_3+6 0.113208 0.125513 0.460538 0.071114
S5    S     S_3+6 0.148766 0.630186 0.383302 0.032007
S6    S     S_3+6 0.851677 0.370460 0.617109 0.030200
Zn1   Zn    Zn3+2 0.493440 0.406980 0.495830 1.010365
Zn2   Zn    Zn3+2 0.506560 0.593020 0.504170 1.009691

loop_
_geom_bond_atom_site_label_1
_geom_bond_atom_site_label_2
_ccdc_geom_bond_type
C27   C29   A    
N1    N2    D    
C14   C18   A    
O24   Zn2   S    
O8    S3    D    
C33   S3    S    
O12   Zn2   S    
C26   S2    S    
C25   S1    S    
C14   F2    S    
C10   H19   S    
O23   Zn2   S    
C15   C19   A    
N3    Zn2   S    
C17   C23   S    
C21   H23   S    
C12   O12   A    
C35   C37   A    
C12   C43   S    
C2    H7    S    
N4    Zn1   S    
O10   S4    D    
C11   C14   A    
O14   S5    D    
C23   C40   A    
C3    F4    S    
C33   C36   A    
O25   Zn1   S    
C22   H24   S    
C17   O23   A    
C9    H18   S    
C12   O21   A    
C35   S4    S    
C16   C34   S    
C39   S6    S    
O6    S2    S    
C31   C33   A    
C8    H10   S    
C20   H22   S    
C34   C41   A    
C42   C44   A    
C22   N3    A    
C32   H6    S    
O26   S1    D    
C27   H3    S    
C6    N2    S    
C24   H2    S    
O3    S1    S    
C3    C44   A    
O20   Zn2   S    
C34   C39   A    
C32   C35   A    
C38   C41   A    
C4    C6    A    
C39   C40   A    
C5    C7    A    
C16   O22   A    
C6    C8    A    
N5    N6    D    
O18   S6    D    
O2    S1    D    
H13   O6    S    
C19   N6    S    
C2    C4    A    
C44   H8    S    
C13   N4    A    
C2    C43   A    
O21   Zn1   S    
C9    C42   A    
C30   C40   S    
C31   H5    S    
C38   S5    S    
C16   O24   A    
C20   C22   A    
C13   C15   A    
C1    O1    A    
C15   F1    S    
C7    C9    A    
C13   H20   S    
C29   C41   S    
C10   C43   A    
O13   S4    S    
C24   N4    A    
H11   O3    S    
C3    C5    A    
O17   S6    D    
C1    O20   A    
C11   H21   S    
C26   C37   A    
C25   C27   A    
C23   C38   A    
H14   O9    S    
O16   S5    S    
C26   C28   A    
O5    S2    D    
O1    Zn1   S    
C28   C30   A    
C17   O25   A    
H16   O16   S    
C29   C31   A    
C11   N3    A    
C30   C32   A    
O19   S6    S    
C28   H4    S    
C18   N5    S    
O11   S4    D    
C18   C20   A    
O4    S2    D    
C5    N1    S    
C37   H12   S    
C25   C36   A    
H17   O19   S    
C1    C42   S    
O9    S3    S    
O22   Zn1   S    
C8    C10   A    
C21   C24   A    
H15   O13   S    
O7    S3    D    
C7    H9    S    
C36   H1    S    
O15   S5    D    
C19   C21   A    
C4    F3    S    
