data_mof_unit_28428.cif
_audit_creation_date              2012-12-10T16:46:03-0500
_audit_creation_method            fapswitch 2.2
_symmetry_space_group_name_H-M    P1
_symmetry_Int_Tables_number       1
_space_group_crystal_system       triclinic
_cell_length_a                    10.713349
_cell_length_b                    8.681537
_cell_length_c                    7.451249
_cell_angle_alpha                 102.862742
_cell_angle_beta                  94.591091
_cell_angle_gamma                 92.565315
_cell_volume                      672.071856838

loop_
_atom_site_label
_atom_site_type_symbol
_atom_type_description
_atom_site_fract_x
_atom_site_fract_y
_atom_site_fract_z
_atom_type_partial_charge
C1    C     C_R   0.496063 0.199740 0.453312 0.901277
C2    C     C_3   0.877315 0.499546 0.496846 0.153398
C3    C     C_3   0.940568 0.650582 0.631572 -0.383672
C4    C     C_3   0.917325 0.494780 0.300667 -0.387023
C5    C     C_2   0.494113 0.031875 0.427006 -0.374756
C6    C     C_2   0.505277 0.968119 0.573049 -0.352724
C7    C     C_R   0.259760 0.498415 0.501128 0.775201
C8    C     C_R   0.503672 0.800256 0.546707 0.875998
C9    C     C_R   0.739884 0.501033 0.498428 0.755810
C10   C     C_3   0.067321 0.347656 0.561618 -0.128351
C11   C     C_3   0.922786 0.351374 0.560316 -0.432671
C12   C     C_3   0.084340 0.650826 0.631960 -0.385368
C13   C     C_3   0.060194 0.493346 0.303383 -0.391522
C14   C     C_3   0.121373 0.497296 0.502083 0.076769
Cu1   Cu    Cu3+1 0.514070 0.517380 0.684380 0.953663
Cu2   Cu    Cu3+1 0.485930 0.482620 0.315620 0.950648
H1    H     H_    0.120037 0.756121 0.584641 0.181497
H2    H     H_    0.907258 0.758285 0.589929 0.157925
H3    H     H_    0.483595 0.960400 0.286214 0.178073
H4    H     H_    0.515742 0.039595 0.713844 0.185024
H5    H     H_    0.401608 0.377677 0.948256 0.256463
H6    H     H_    0.598680 0.622064 0.051720 0.219483
H7    H     H_    0.088567 0.241025 0.456850 0.151901
H8    H     H_    0.877840 0.242236 0.464821 0.147968
H9    H     H_    0.891869 0.351395 0.699620 0.166198
H10   H     H_    0.127521 0.662377 0.775448 0.165750
H11   H     H_    0.914772 0.655926 0.774511 0.171524
H12   H     H_    0.096518 0.597418 0.254167 0.177784
H13   H     H_    0.084375 0.384876 0.204456 0.179740
H14   H     H_    0.873636 0.387104 0.201042 0.176336
N1    N     N_2   0.464720 0.456420 0.038520 -0.217976
N2    N     N_2   0.535280 0.543580 0.961480 -0.225482
O1    O     O_R   0.509140 0.286130 0.619770 -0.571982
O2    O     O_R   0.485380 0.256770 0.308360 -0.582949
O3    O     O_R   0.329570 0.514650 0.655700 -0.581286
O4    O     O_R   0.305810 0.485300 0.344290 -0.587783
O5    O     O_R   0.514620 0.743230 0.691640 -0.585892
O6    O     O_R   0.490860 0.713870 0.380230 -0.584751
O7    O     O_R   0.694190 0.514700 0.655710 -0.594767
O8    O     O_R   0.670430 0.485350 0.344300 -0.598863
C15   C     C_2   0.124107 0.330773 0.748186 0.345204
H15   H     H_    0.112927 0.420494 0.871857 0.073504
O9    O     O_2   0.181975 0.215237 0.761566 -0.574076
H16   H     H_    0.885223 0.599897 0.251739 0.164754

loop_
_geom_bond_atom_site_label_1
_geom_bond_atom_site_label_2
_ccdc_geom_bond_type
C12   H1    S    
C2    C4    S    
C13   H12   S    
C5    H3    S    
C10   H7    S    
C15   O9    D    
C7    O4    A    
H6    N2    S    
N1    N2    D    
C3    H11   S    
C2    C3    S    
C1    O1    A    
Cu1   N2    S    
C13   C14   S    
Cu2   O4    S    
Cu2   N1    S    
H5    N1    S    
Cu1   O7    S    
C8    O6    A    
Cu2   O8    S    
C1    C5    S    
C2    C11   S    
C13   H13   S    
C12   H10   S    
C12   C14   S    
C1    O2    A    
C10   C11   S    
C7    C14   S    
C10   C14   S    
C5    C6    D    
C8    O5    A    
C11   H9    S    
Cu1   Cu2   S    
C11   H8    S    
C9    O7    A    
C6    H4    S    
C3    H2    S    
C15   H15   S    
Cu1   O3    S    
C4    C13   S    
Cu1   O5    S    
C6    C8    S    
C3    C12   S    
C4    H16   S    
Cu2   O2    S    
C2    C9    S    
C7    O3    A    
Cu1   O1    S    
C9    O8    A    
C4    H14   S    
Cu2   O6    S    
C10   C15   S    
