data_mof_unit_14712.cif
_audit_creation_date              2012-12-10T17:08:11-0500
_audit_creation_method            fapswitch 2.2
_symmetry_space_group_name_H-M    P1
_symmetry_Int_Tables_number       1
_space_group_crystal_system       triclinic
_cell_length_a                    18.28738
_cell_length_b                    18.293309
_cell_length_c                    34.267035
_cell_angle_alpha                 90.000295
_cell_angle_beta                  90.000598
_cell_angle_gamma                 89.758404
_cell_volume                      11463.4786602

loop_
_atom_site_label
_atom_site_type_symbol
_atom_type_description
_atom_site_fract_x
_atom_site_fract_y
_atom_site_fract_z
_atom_type_partial_charge
C1    C     C_R   1.000000 0.499999 0.894210 0.800359
C2    C     C_R   0.983932 0.564967 0.790931 0.110066
C3    C     C_R   0.604429 0.658663 0.062658 -0.150249
C4    C     C_R   0.658124 0.604477 0.062422 -0.168846
C5    C     C_R   0.576996 0.369307 0.011946 -0.151058
C6    C     C_R   0.341894 0.395547 0.062390 -0.168852
C7    C     C_R   0.423004 0.630702 0.011939 -0.151050
C8    C     C_R   0.869426 0.077140 0.511983 -0.148591
C9    C     C_R   0.895551 0.841325 0.562669 -0.150262
C10   C     C_R   0.130568 0.922869 0.511958 -0.148583
C11   C     C_R   0.104450 0.158677 0.562673 -0.150268
C12   C     C_R   0.158139 0.104483 0.562427 -0.168815
C13   C     C_R   0.435362 0.983166 0.790991 0.109630
C14   C     C_R   0.076999 0.869277 0.511999 -0.151042
C15   C     C_R   0.841861 0.895517 0.562427 -0.168828
C16   C     C_R   0.922990 0.130734 0.512022 -0.151067
C17   C     C_R   0.329271 0.725507 0.005375 0.097302
C18   C     C_R   0.264249 0.319012 0.021579 0.099853
C19   C     C_R   0.670730 0.274495 0.005373 0.097297
C20   C     C_R   0.735761 0.681002 0.021597 0.099806
C21   C     C_R   0.680995 0.735966 0.021672 0.098189
C22   C     C_R   0.725452 0.329232 0.005367 0.097399
C23   C     C_R   0.319015 0.264048 0.021654 0.098234
C24   C     C_R   0.016065 0.435031 0.790931 0.110067
C25   C     C_R   0.274549 0.670770 0.005367 0.097420
C26   C     C_R   0.829260 0.225522 0.505401 0.097339
C27   C     C_R   0.764231 0.818995 0.521598 0.099823
C28   C     C_R   0.170735 0.774484 0.505394 0.097329
C29   C     C_R   0.235767 0.181004 0.521597 0.099817
C30   C     C_R   0.181003 0.235970 0.521677 0.098206
C31   C     C_R   0.225456 0.829222 0.505372 0.097407
C32   C     C_R   0.818996 0.764029 0.521678 0.098208
C33   C     C_R   0.774541 0.170782 0.505380 0.097419
C34   C     C_R   0.200035 0.692146 0.002823 -0.072109
C35   C     C_R   0.064639 0.516832 0.290992 0.109631
C36   C     C_R   0.305865 0.197908 0.001564 -0.053442
C37   C     C_R   0.799966 0.307854 0.002823 -0.072101
C38   C     C_R   0.694134 0.802092 0.001562 -0.053422
C39   C     C_R   0.801994 0.694082 0.001536 -0.053656
C40   C     C_R   0.692150 0.200018 0.002837 -0.072755
C41   C     C_R   0.198004 0.305917 0.001537 -0.053669
C42   C     C_R   0.307851 0.799984 0.002836 -0.072746
C43   C     C_R   0.700032 0.192151 0.502815 -0.072082
C44   C     C_R   0.805864 0.697907 0.501563 -0.053422
C45   C     C_R   0.299966 0.807851 0.502816 -0.072088
C46   C     C_R   0.483931 0.064966 0.290932 0.110066
C47   C     C_R   0.194136 0.302092 0.501563 -0.053425
C48   C     C_R   0.301995 0.194082 0.501534 -0.053650
C49   C     C_R   0.192153 0.700012 0.502838 -0.072729
C50   C     C_R   0.698003 0.805917 0.501534 -0.053647
C51   C     C_R   0.807845 0.299991 0.502835 -0.072715
C52   C     C_R   0.180593 0.766049 0.002442 -0.205446
C53   C     C_R   0.239372 0.185777 0.982726 -0.204027
C54   C     C_R   0.819408 0.233952 0.002446 -0.205457
C55   C     C_R   0.760605 0.814200 0.982691 -0.204005
C56   C     C_R   0.814220 0.760549 0.982700 -0.204747
C57   C     C_R   0.935358 0.483178 0.290991 0.109635
C58   C     C_R   0.766080 0.180618 0.002454 -0.206353
C59   C     C_R   0.185757 0.239428 0.982734 -0.204787
C60   C     C_R   0.233919 0.819385 0.002449 -0.206342
C61   C     C_R   0.680591 0.266049 0.502410 -0.205448
C62   C     C_R   0.739397 0.685802 0.482690 -0.204005
C63   C     C_R   0.319407 0.733954 0.502422 -0.205449
C64   C     C_R   0.260603 0.314198 0.482690 -0.204010
C65   C     C_R   0.314218 0.260547 0.482699 -0.204763
C66   C     C_R   0.266082 0.680616 0.502429 -0.206356
C67   C     C_R   0.685781 0.739453 0.482699 -0.204767
C68   C     C_R   0.516067 0.935031 0.290931 0.110068
C69   C     C_R   0.733917 0.319386 0.502416 -0.206356
C70   C     C_R   0.436065 0.982438 0.831770 -0.242751
C71   C     C_R   0.016739 0.435713 0.831719 -0.242566
C72   C     C_R   0.563936 0.017561 0.831771 -0.242753
C73   C     C_R   0.983258 0.564285 0.831720 -0.242564
C74   C     C_R   0.936061 0.482448 0.331770 -0.242755
C75   C     C_R   0.516741 0.935712 0.331719 -0.242568
C76   C     C_R   0.063936 0.517557 0.331771 -0.242749
C77   C     C_R   0.483257 0.064283 0.331720 -0.242562
C78   C     C_R   0.202666 0.538950 0.210193 0.125904
C79   C     C_R   0.500000 1.000000 0.770406 0.054138
C80   C     C_R   0.230803 0.483076 0.186277 -0.170038
C81   C     C_R   0.298358 0.491498 0.167837 -0.160007
C82   C     C_R   0.339151 0.554915 0.173745 -0.107528
C83   C     C_R   0.312170 0.610288 0.197983 -0.125222
C84   C     C_R   0.244195 0.602408 0.216209 -0.154313
C85   C     C_R   0.462246 0.203166 0.209999 0.126789
C86   C     C_R   0.517742 0.230474 0.185681 -0.171368
C87   C     C_R   0.508786 0.297575 0.166756 -0.162827
C88   C     C_R   0.445303 0.338803 0.172664 -0.103241
C89   C     C_R   0.390394 0.312731 0.197343 -0.118887
C90   C     C_R   0.999999 0.499999 0.770349 0.053924
C91   C     C_R   0.398750 0.245182 0.215996 -0.154634
C92   C     C_R   0.797331 0.461073 0.210189 0.125906
C93   C     C_R   0.769207 0.516942 0.186264 -0.170040
C94   C     C_R   0.701655 0.508522 0.167820 -0.160005
C95   C     C_R   0.660850 0.445116 0.173732 -0.107537
C96   C     C_R   0.687816 0.389750 0.197979 -0.125225
C97   C     C_R   0.755789 0.397626 0.216208 -0.154309
C98   C     C_R   0.537759 0.796836 0.209995 0.126785
C99   C     C_R   0.482263 0.769527 0.185676 -0.171363
C100  C     C_R   0.491228 0.702435 0.166742 -0.162844
C101  C     C_R   0.999999 0.500006 0.270406 0.054136
C102  C     C_R   0.554721 0.661218 0.172642 -0.103246
C103  C     C_R   0.609629 0.687290 0.197324 -0.118857
C104  C     C_R   0.601263 0.754830 0.215985 -0.154640
C105  C     C_R   0.702663 0.038953 0.710192 0.125893
C106  C     C_R   0.730802 0.983078 0.686278 -0.170031
C107  C     C_R   0.798355 0.991502 0.667837 -0.160002
C108  C     C_R   0.839146 0.054920 0.673741 -0.107528
C109  C     C_R   0.812163 0.110293 0.697977 -0.125218
C110  C     C_R   0.744190 0.102412 0.716204 -0.154310
C111  C     C_R   0.962244 0.703165 0.709998 0.126790
C112  C     C_R   0.500000 1.000000 0.894226 0.800331
C113  C     C_R   0.499999 0.999999 0.270349 0.053923
C114  C     C_R   0.017739 0.730473 0.685679 -0.171361
C115  C     C_R   0.008780 0.797571 0.666751 -0.162845
C116  C     C_R   0.945295 0.838796 0.672657 -0.103255
C117  C     C_R   0.890388 0.812724 0.697338 -0.118863
C118  C     C_R   0.898747 0.745178 0.715994 -0.154636
C119  C     C_R   0.297337 0.961048 0.710190 0.125893
C120  C     C_R   0.269197 0.016924 0.686277 -0.170028
C121  C     C_R   0.201644 0.008502 0.667836 -0.159997
C122  C     C_R   0.160853 0.945083 0.673738 -0.107530
C123  C     C_R   0.187836 0.889709 0.697973 -0.125220
C124  C     C_R   0.629231 0.031560 0.770689 -0.265932
C125  C     C_R   0.255810 0.897588 0.716201 -0.154309
C126  C     C_R   0.037751 0.296834 0.709996 0.126787
C127  C     C_R   0.982257 0.269529 0.685675 -0.171359
C128  C     C_R   0.991217 0.202434 0.666744 -0.162850
C129  C     C_R   0.054701 0.161208 0.672650 -0.103265
C130  C     C_R   0.109607 0.187276 0.697334 -0.118858
C131  C     C_R   0.101248 0.254820 0.715992 -0.154634
C132  C     C_R   0.969826 0.629816 0.770610 -0.266537
C133  C     C_R   0.370770 0.968439 0.770687 -0.265931
C134  C     C_R   0.030171 0.370182 0.770609 -0.266536
C135  C     C_R   0.129232 0.531556 0.270689 -0.265933
C136  C     C_R   0.469825 0.129815 0.270610 -0.266536
C137  C     C_R   0.870765 0.468459 0.270686 -0.265935
C138  C     C_R   0.530175 0.870182 0.270608 -0.266537
C139  C     C_R   0.130970 0.529783 0.229845 -0.005567
C140  C     C_R   0.500000 0.999999 0.394210 0.800358
C141  C     C_R   0.471435 0.131474 0.229755 -0.005337
C142  C     C_R   0.869027 0.470234 0.229842 -0.005563
C143  C     C_R   0.528566 0.868526 0.229753 -0.005340
C144  C     C_R   0.630969 0.029785 0.729845 -0.005568
C145  C     C_R   0.971436 0.631474 0.729755 -0.005339
C146  C     C_R   0.369032 0.970214 0.729843 -0.005568
C147  C     C_R   0.028562 0.368525 0.729754 -0.005339
C148  C     C_R   0.065572 0.515854 0.208892 0.075368
C149  C     C_R   0.484711 0.065820 0.208830 0.075829
C150  C     C_R   0.934426 0.484157 0.208890 0.075366
C151  C     C_R   0.999999 0.500000 0.394226 0.800321
C152  C     C_R   0.515289 0.934181 0.208829 0.075828
C153  C     C_R   0.565572 0.015853 0.708891 0.075366
C154  C     C_R   0.984711 0.565820 0.708830 0.075829
C155  C     C_R   0.434429 0.984147 0.708891 0.075365
C156  C     C_R   0.015288 0.434180 0.708829 0.075828
C157  C     C_R   0.999999 0.500006 0.229389 0.027739
C158  C     C_R   0.500000 1.000000 0.229335 0.027470
C159  C     C_R   0.500000 1.000000 0.729390 0.027737
C160  C     C_R   0.999999 0.500000 0.729335 0.027471
C161  C     C_R   0.063558 0.518338 0.168001 -0.255327
C162  C     C_R   0.500000 0.999999 0.851926 -0.008608
C163  C     C_R   0.482068 0.063792 0.167947 -0.255493
C164  C     C_R   0.936443 0.481666 0.168000 -0.255332
C165  C     C_R   0.517934 0.936211 0.167946 -0.255484
C166  C     C_R   0.563557 0.018339 0.668001 -0.255323
C167  C     C_R   0.982067 0.563790 0.667947 -0.255490
C168  C     C_R   0.436443 0.981661 0.668000 -0.255322
C169  C     C_R   0.017934 0.436211 0.667947 -0.255489
C170  C     C_R   0.000001 0.500001 0.147991 -0.007210
C171  C     C_R   0.500001 0.000002 0.147955 -0.007598
C172  C     C_R   0.500000 0.000000 0.647991 -0.007214
C173  C     C_R   0.999999 0.499999 0.851887 -0.008247
C174  C     C_R   0.000001 0.500001 0.647955 -0.007594
C175  C     C_R   0.000001 0.500000 0.105732 0.795821
C176  C     C_R   0.500000 0.000001 0.105722 0.795867
C177  C     C_R   0.500000 0.000000 0.605732 0.795823
C178  C     C_R   0.000000 0.500000 0.605722 0.795860
C179  C     C_R   0.859798 0.639795 0.000144 0.777420
C180  C     C_R   0.361002 0.858888 0.000737 0.778477
C181  C     C_R   0.140199 0.360204 0.000143 0.777415
C182  C     C_R   0.638999 0.141113 0.000738 0.778478
C183  C     C_R   0.141125 0.638990 0.000736 0.779576
C184  C     C_R   0.999999 0.500000 0.351926 -0.008601
C185  C     C_R   0.639843 0.859861 0.000123 0.778265
C186  C     C_R   0.858876 0.361009 0.000735 0.779582
C187  C     C_R   0.360156 0.140140 0.000123 0.778253
C188  C     C_R   0.359800 0.139796 0.500142 0.777419
C189  C     C_R   0.861000 0.358889 0.500737 0.778464
C190  C     C_R   0.640199 0.860203 0.500142 0.777412
C191  C     C_R   0.138999 0.641111 0.500738 0.778471
C192  C     C_R   0.641125 0.138991 0.500734 0.779564
C193  C     C_R   0.139844 0.359861 0.500123 0.778258
C194  C     C_R   0.358875 0.861010 0.500734 0.779569
C195  C     C_R   0.499999 0.999998 0.351887 -0.008246
C196  C     C_R   0.860156 0.640139 0.500123 0.778248
C197  C     C_R   0.295868 0.596634 0.009269 -0.165974
C198  C     C_R   0.384631 0.276141 0.042389 -0.169267
C199  C     C_R   0.704132 0.403373 0.009271 -0.165939
C200  C     C_R   0.615385 0.723879 0.042416 -0.169247
C201  C     C_R   0.723338 0.615243 0.042120 -0.173026
C202  C     C_R   0.596563 0.295764 0.009282 -0.169525
C203  C     C_R   0.276678 0.384778 0.042094 -0.173036
C204  C     C_R   0.403435 0.704239 0.009285 -0.169569
C205  C     C_R   0.795861 0.096653 0.509286 -0.166029
C206  C     C_R   0.564639 0.016833 0.790992 0.109631
C207  C     C_R   0.884598 0.776110 0.542428 -0.169230
C208  C     C_R   0.204135 0.903353 0.509268 -0.166038
C209  C     C_R   0.115402 0.223891 0.542431 -0.169216
C210  C     C_R   0.223345 0.115243 0.542118 -0.173032
C211  C     C_R   0.096571 0.795744 0.509334 -0.169488
C212  C     C_R   0.776652 0.884754 0.542121 -0.173022
C213  C     C_R   0.903420 0.204265 0.509348 -0.169515
C214  C     C_R   0.369436 0.577111 0.011927 -0.148596
C215  C     C_R   0.395589 0.341360 0.062624 -0.150286
C216  C     C_R   0.630564 0.422899 0.011939 -0.148578
H1    H     H_    0.123650 0.782572 0.001102 0.158139
H2    H     H_    0.729283 0.634722 0.467633 0.138590
H3    H     H_    0.938867 0.890942 0.658140 0.110131
H4    H     H_    0.841252 0.844714 0.701978 0.136037
H5    H     H_    0.855610 0.725383 0.734843 0.132925
H6    H     H_    0.299758 0.066826 0.681809 0.137754
H7    H     H_    0.180923 0.051335 0.649075 0.126953
H8    H     H_    0.108309 0.939071 0.659611 0.113044
H9    H     H_    0.156155 0.840646 0.702633 0.136825
H10   H     H_    0.276236 0.854197 0.734795 0.133204
H11   H     H_    0.932375 0.300526 0.681153 0.136458
H12   H     H_    0.948868 0.182421 0.647511 0.124634
H13   H     H_    0.376347 0.717435 0.501071 0.158129
H14   H     H_    0.061130 0.109065 0.658131 0.110127
H15   H     H_    0.158743 0.155286 0.701974 0.136036
H16   H     H_    0.144384 0.274612 0.734843 0.132925
H17   H     H_    0.270716 0.365277 0.467634 0.138590
H18   H     H_    0.365344 0.270612 0.467663 0.138294
H19   H     H_    0.282634 0.623702 0.501077 0.158166
H20   H     H_    0.634656 0.729387 0.467661 0.138293
H21   H     H_    0.717367 0.376299 0.501057 0.158155
H22   H     H_    0.256407 0.553036 0.011028 0.145711
H23   H     H_    0.427456 0.235176 0.043446 0.111302
H24   H     H_    0.743595 0.446971 0.011030 0.145708
H25   H     H_    0.229237 0.134677 0.967696 0.138616
H26   H     H_    0.572556 0.764839 0.043469 0.111300
H27   H     H_    0.764017 0.572134 0.042938 0.112822
H28   H     H_    0.552969 0.256290 0.011063 0.146094
H29   H     H_    0.235998 0.427886 0.042914 0.112832
H30   H     H_    0.447023 0.743715 0.011061 0.146114
H31   H     H_    0.756404 0.053049 0.511023 0.145745
H32   H     H_    0.927423 0.735144 0.543488 0.111287
H33   H     H_    0.243593 0.946957 0.511005 0.145765
H34   H     H_    0.072579 0.264858 0.543492 0.111288
H35   H     H_    0.264019 0.072128 0.542928 0.112833
H36   H     H_    0.876351 0.217429 0.001109 0.158144
H37   H     H_    0.052984 0.756260 0.511128 0.146003
H38   H     H_    0.735977 0.927867 0.542933 0.112833
H39   H     H_    0.947003 0.243745 0.511142 0.145998
H40   H     H_    0.384971 0.520169 0.014446 0.146159
H41   H     H_    0.445964 0.349894 0.078545 0.130509
H42   H     H_    0.615027 0.479847 0.014465 0.146133
H43   H     H_    0.554056 0.650130 0.078583 0.130502
H44   H     H_    0.649218 0.553873 0.078045 0.127221
H45   H     H_    0.520030 0.384800 0.014483 0.145923
H46   H     H_    0.350801 0.446153 0.078010 0.127246
H47   H     H_    0.770722 0.865282 0.967635 0.138586
H48   H     H_    0.479969 0.615210 0.014475 0.145927
H49   H     H_    0.884961 0.020202 0.514509 0.146144
H50   H     H_    0.945921 0.849855 0.578598 0.130489
H51   H     H_    0.115032 0.979808 0.514478 0.146154
H52   H     H_    0.054083 0.150150 0.578606 0.130482
H53   H     H_    0.149233 0.053878 0.578047 0.127229
H54   H     H_    0.020035 0.884767 0.514562 0.145901
H55   H     H_    0.850766 0.946122 0.578047 0.127223
H56   H     H_    0.979950 0.115249 0.514589 0.145911
H57   H     H_    0.386816 0.969304 0.847921 0.131106
H58   H     H_    0.865348 0.770616 0.967664 0.138291
H59   H     H_    0.029269 0.386213 0.847869 0.130278
H60   H     H_    0.613185 0.030695 0.847922 0.131105
H61   H     H_    0.970728 0.613785 0.847870 0.130276
H62   H     H_    0.886810 0.469318 0.347921 0.131101
H63   H     H_    0.529273 0.886212 0.347869 0.130276
H64   H     H_    0.113187 0.530686 0.347923 0.131102
H65   H     H_    0.470725 0.113783 0.347870 0.130276
H66   H     H_    0.679130 0.042507 0.786745 0.152153
H67   H     H_    0.959340 0.679901 0.786653 0.151847
H68   H     H_    0.320871 0.957492 0.786743 0.152154
H69   H     H_    0.782633 0.123702 0.001121 0.158192
H70   H     H_    0.040656 0.320098 0.786652 0.151847
H71   H     H_    0.179131 0.542500 0.286746 0.152152
H72   H     H_    0.459338 0.179899 0.286654 0.151845
H73   H     H_    0.820864 0.457518 0.286742 0.152148
H74   H     H_    0.540663 0.820098 0.286651 0.151847
H75   H     H_    0.111216 0.533751 0.151217 0.147143
H76   H     H_    0.466872 0.111598 0.151139 0.147746
H77   H     H_    0.888787 0.466250 0.151215 0.147146
H78   H     H_    0.533130 0.888405 0.151137 0.147751
H79   H     H_    0.611214 0.033755 0.651217 0.147148
H80   H     H_    0.134611 0.229342 0.967723 0.138320
H81   H     H_    0.966871 0.611596 0.651138 0.147746
H82   H     H_    0.388786 0.966246 0.651216 0.147147
H83   H     H_    0.033130 0.388405 0.651138 0.147747
H84   H     H_    0.200241 0.433175 0.181806 0.137751
H85   H     H_    0.319077 0.448667 0.149073 0.126963
H86   H     H_    0.391696 0.560927 0.159619 0.113047
H87   H     H_    0.343853 0.659349 0.202646 0.136823
H88   H     H_    0.223771 0.645798 0.234805 0.133201
H89   H     H_    0.567625 0.199477 0.181159 0.136461
H90   H     H_    0.551137 0.317592 0.147526 0.124632
H91   H     H_    0.217365 0.876302 0.001112 0.158177
H92   H     H_    0.438877 0.390952 0.158149 0.110140
H93   H     H_    0.341258 0.344723 0.201984 0.136041
H94   H     H_    0.355611 0.225387 0.234845 0.132925
H95   H     H_    0.799779 0.566835 0.181790 0.137754
H96   H     H_    0.680949 0.551346 0.149049 0.126959
H97   H     H_    0.608308 0.439105 0.159603 0.113037
H98   H     H_    0.656124 0.340697 0.202646 0.136829
H99   H     H_    0.776202 0.354241 0.234811 0.133197
H100  H     H_    0.432375 0.800518 0.181158 0.136457
H101  H     H_    0.448878 0.682419 0.147511 0.124630
H102  H     H_    0.623652 0.282566 0.501051 0.158117
H103  H     H_    0.561154 0.609078 0.158120 0.110135
H104  H     H_    0.658771 0.655307 0.201959 0.136045
H105  H     H_    0.644402 0.774627 0.234834 0.132928
H106  H     H_    0.700242 0.933176 0.681809 0.137754
H107  H     H_    0.819075 0.948670 0.649075 0.126955
H108  H     H_    0.891689 0.060934 0.659613 0.113048
H109  H     H_    0.843844 0.159356 0.702637 0.136827
H110  H     H_    0.723764 0.145802 0.734799 0.133204
H111  H     H_    0.067622 0.699478 0.681158 0.136456
H112  H     H_    0.051128 0.817586 0.647519 0.124628
O1    O     O_3   0.000000 0.500000 0.999990 -0.486087
O2    O     O_R   0.000000 0.560750 0.412560 -0.632835
O3    O     O_R   0.439250 0.000000 0.412560 -0.632720
O4    O     O_R   0.000000 0.439250 0.412560 -0.632837
O5    O     O_R   0.000000 0.560690 0.087420 -0.636165
O6    O     O_R   0.439310 0.000000 0.087420 -0.636243
O7    O     O_R   0.000000 0.439310 0.087420 -0.636162
O8    O     O_R   0.560690 0.000000 0.087420 -0.636247
O9    O     O_R   0.500000 0.060690 0.587420 -0.636162
O10   O     O_R   0.939310 0.500000 0.587420 -0.636243
O11   O     O_R   0.500000 0.939310 0.587420 -0.636162
O12   O     O_3   0.500000 0.000000 0.999990 -0.486063
O13   O     O_R   0.060690 0.500000 0.587420 -0.636248
O14   O     O_R   0.853830 0.585440 0.977070 -0.641113
O15   O     O_R   0.414560 0.853830 0.977070 -0.644150
O16   O     O_R   0.146170 0.414560 0.977070 -0.641114
O17   O     O_R   0.585440 0.146170 0.977070 -0.644143
O18   O     O_R   0.146170 0.585440 0.977070 -0.643740
O19   O     O_R   0.585440 0.853830 0.977070 -0.640308
O20   O     O_R   0.853830 0.414560 0.977070 -0.643743
O21   O     O_R   0.414560 0.146170 0.977070 -0.640305
O22   O     O_R   0.353830 0.085440 0.477070 -0.641122
O23   O     O_3   0.500000 0.000000 0.499990 -0.486088
O24   O     O_R   0.914560 0.353830 0.477070 -0.644105
O25   O     O_R   0.646170 0.914560 0.477070 -0.641116
O26   O     O_R   0.085440 0.646170 0.477070 -0.644108
O27   O     O_R   0.646170 0.085440 0.477070 -0.643751
O28   O     O_R   0.085440 0.353830 0.477070 -0.640282
O29   O     O_R   0.353830 0.914560 0.477070 -0.643763
O30   O     O_R   0.914560 0.646170 0.477070 -0.640287
O31   O     O_R   0.085460 0.353830 0.022910 -0.633785
O32   O     O_R   0.646170 0.085460 0.022910 -0.636330
O33   O     O_R   0.914540 0.646170 0.022910 -0.633781
O34   O     O_3   1.000000 0.500000 0.499990 -0.486074
O35   O     O_R   0.353830 0.914540 0.022910 -0.636328
O36   O     O_R   0.914540 0.353830 0.022910 -0.636047
O37   O     O_R   0.353830 0.085460 0.022910 -0.633859
O38   O     O_R   0.085460 0.646170 0.022910 -0.636042
O39   O     O_R   0.646170 0.914540 0.022910 -0.633857
O40   O     O_R   0.585460 0.853830 0.522910 -0.633778
O41   O     O_R   0.146170 0.585460 0.522910 -0.636332
O42   O     O_R   0.414540 0.146170 0.522910 -0.633776
O43   O     O_R   0.853830 0.414540 0.522910 -0.636326
O44   O     O_R   0.414540 0.853830 0.522910 -0.636028
O45   O     O_R   0.060750 0.500000 0.912560 -0.632715
O46   O     O_R   0.853830 0.585460 0.522910 -0.633859
O47   O     O_R   0.585460 0.146170 0.522910 -0.636026
O48   O     O_R   0.146170 0.414540 0.522910 -0.633861
O49   O     O_R   0.500000 0.060750 0.912560 -0.632833
O50   O     O_R   0.939250 0.500000 0.912560 -0.632720
O51   O     O_R   0.500000 0.939250 0.912560 -0.632836
O52   O     O_R   0.560750 0.000000 0.412560 -0.632717
Zn1   Zn    Zn3+2 0.000000 0.586740 0.032740 0.967680
Zn2   Zn    Zn3+2 0.500000 0.913250 0.967240 0.967792
Zn3   Zn    Zn3+2 0.086750 0.500000 0.967240 0.967956
Zn4   Zn    Zn3+2 0.500000 0.086750 0.967240 0.967794
Zn5   Zn    Zn3+2 0.413250 0.000000 0.467240 0.967946
Zn6   Zn    Zn3+2 0.000000 0.413250 0.467240 0.967815
Zn7   Zn    Zn3+2 0.586750 0.000000 0.467240 0.967951
Zn8   Zn    Zn3+2 1.000000 0.586750 0.467240 0.967809
Zn9   Zn    Zn3+2 0.413260 0.000000 0.032740 0.967295
Zn10  Zn    Zn3+2 1.000000 0.413260 0.032740 0.967675
Zn11  Zn    Zn3+2 0.586740 0.000000 0.032740 0.967298
Zn12  Zn    Zn3+2 0.500000 0.086740 0.532740 0.967692
Zn13  Zn    Zn3+2 0.913260 0.500000 0.532740 0.967294
Zn14  Zn    Zn3+2 0.500000 0.913260 0.532740 0.967688
Zn15  Zn    Zn3+2 0.086740 0.500000 0.532740 0.967293
Zn16  Zn    Zn3+2 0.913250 0.500000 0.967240 0.967957

loop_
_geom_bond_atom_site_label_1
_geom_bond_atom_site_label_2
_ccdc_geom_bond_type
C131  H16   S    
C172  C177  S    
C105  C110  A    
C13   C79   A    
C126  C127  A    
O19   Zn2   S    
O2    Zn8   S    
C153  C166  A    
C108  H108  S    
C68   C138  A    
C55   C56   A    
C199  H24   S    
C176  O8    A    
C114  C115  A    
C151  C184  S    
C68   C75   A    
C135  C139  A    
C111  C118  A    
C99   H100  S    
O31   Zn10  S    
C20   C201  A    
C48   C188  S    
O10   Zn13  S    
C138  C143  A    
C13   C70   A    
C191  O41   A    
C108  C109  A    
C140  O3    A    
C2    C90   A    
C36   C53   A    
C187  O21   A    
C6    C215  A    
C42   C180  S    
C71   H59   S    
C169  C174  A    
C18   C203  A    
C48   C65   A    
C110  H110  S    
C188  O42   A    
C53   C59   A    
C27   C50   A    
C25   C34   A    
C189  O24   A    
C112  O49   A    
C106  H106  S    
C70   H57   S    
C122  H8    S    
C5    H45   S    
C30   C209  A    
C70   C162  A    
C164  H77   S    
C152  C165  A    
C183  O18   A    
O44   Zn14  S    
C166  H79   S    
C139  C148  A    
C44   C196  S    
C40   C58   A    
C76   H64   S    
C65   H18   S    
C29   C210  A    
C12   H53   S    
C9    C207  A    
C47   C64   A    
C72   C206  A    
C73   H61   S    
C155  C159  A    
C199  C216  A    
O52   Zn7   S    
C81   H85   S    
C136  C141  A    
C39   C56   A    
C202  H28   S    
C169  H83   S    
C95   H97   S    
C167  C174  A    
C83   H87   S    
C56   H58   S    
C154  C167  A    
C213  H39   S    
C42   C60   A    
C125  H10   S    
O20   Zn16  S    
C200  H26   S    
C43   C61   A    
C9    H50   S    
C24   C134  A    
C45   C194  S    
C120  H6    S    
C103  H104  S    
C13   C133  A    
C47   C193  S    
C8    H49   S    
C205  H31   S    
C24   C90   A    
C46   C77   A    
C126  C147  S    
C123  H9    S    
O1    Zn16  S    
C124  H66   S    
C190  O25   A    
O27   Zn7   S    
C17   C25   A    
C107  H107  S    
C130  C131  A    
C77   C195  A    
C6    C203  A    
O39   Zn11  S    
C4    C201  A    
C3    H43   S    
C134  H70   S    
C9    C15   A    
C8    C205  A    
O6    Zn9   S    
O50   Zn16  S    
C132  H67   S    
C88   C89   A    
C112  O51   A    
C23   C36   A    
C106  C107  A    
O23   Zn5   S    
C51   C69   A    
C197  C214  A    
C165  C171  A    
C137  C142  A    
C166  C172  A    
C150  C157  A    
C164  C170  A    
C128  C129  A    
C85   C86   A    
C28   C211  A    
O34   Zn8   S    
C33   C205  A    
C52   H1    S    
C185  O39   A    
C14   C211  A    
C26   C213  A    
C132  C145  A    
C187  O37   A    
C193  O48   A    
C53   H25   S    
C78   C80   A    
C74   C184  A    
C115  C116  A    
C126  C131  A    
C115  H112  S    
C10   C208  A    
C52   C60   A    
C84   H88   S    
C21   C38   A    
C188  O22   A    
O32   Zn11  S    
C11   H52   S    
C89   C91   A    
O46   Zn13  S    
C149  C158  A    
O13   Zn15  S    
C100  H101  S    
O14   Zn16  S    
C151  O4    A    
C114  H111  S    
C102  H103  S    
C212  H38   S    
C182  O32   A    
C92   C97   A    
C121  H7    S    
C67   H20   S    
O22   Zn5   S    
C49   C66   A    
C38   C55   A    
C214  H40   S    
O40   Zn14  S    
C156  C160  A    
O25   Zn7   S    
O49   Zn4   S    
C10   C14   A    
C35   C135  A    
O51   Zn2   S    
C196  O46   A    
C129  H14   S    
C192  O27   A    
C180  O35   A    
C116  H3    S    
C29   C30   A    
C28   C49   A    
C26   C33   A    
C83   C84   A    
C128  H12   S    
C168  H82   S    
C3    C200  A    
C57   C137  A    
C34   C183  S    
C6    H46   S    
O48   Zn15  S    
C20   C21   A    
C194  O29   A    
C2    C73   A    
C145  C154  A    
C43   C192  S    
C88   H92   S    
C161  C170  A    
C3    C4    A    
C96   H98   S    
C120  C121  A    
O9    Zn12  S    
C129  C130  A    
O34   Zn6   S    
C1    O50   A    
C74   H62   S    
O23   Zn14  S    
C46   C113  A    
C39   C179  S    
C150  C164  A    
C171  C176  S    
C50   C67   A    
O33   Zn1   S    
C66   H19   S    
C179  O33   A    
C215  H41   S    
C117  C118  A    
C60   H91   S    
O34   Zn15  S    
C27   C212  A    
C148  C157  A    
C180  O15   A    
C102  C103  A    
C140  C195  S    
C7    C214  A    
C19   C40   A    
O38   Zn1   S    
C4    H44   S    
C72   C162  A    
C77   H65   S    
O11   Zn14  S    
C82   H86   S    
O23   Zn7   S    
C87   C88   A    
C105  C144  S    
C167  H81   S    
C87   H90   S    
C134  C147  A    
C23   C198  A    
O8    Zn11  S    
C181  O31   A    
C161  H75   S    
O30   Zn8   S    
C79   C159  A    
O28   Zn6   S    
C123  C125  A    
C98   C99   A    
C190  O40   A    
C17   C42   A    
C186  O20   A    
C146  C155  A    
O43   Zn13  S    
C2    C132  A    
O41   Zn15  S    
C163  C171  A    
C174  C178  S    
C109  H109  S    
C51   C189  S    
C68   C113  A    
C63   H13   S    
C63   C66   A    
C101  C157  A    
C78   C139  S    
C127  H11   S    
C41   C181  S    
C194  O44   A    
C198  C215  A    
C16   H56   S    
C196  O30   A    
C40   C182  S    
C170  C175  S    
O12   Zn2   S    
C152  C158  A    
O12   Zn9   S    
C15   C212  A    
C154  C160  A    
O37   Zn9   S    
C177  O9    A    
C20   C39   A    
C86   C87   A    
O34   Zn13  S    
C178  O13   A    
C22   C37   A    
C119  C146  S    
C7    C204  A    
C197  H22   S    
C22   C199  A    
C37   C186  S    
C203  H29   S    
C155  C168  A    
C1    C173  S    
C137  H73   S    
C147  C156  A    
C121  C122  A    
C119  C125  A    
C179  O14   A    
C143  C152  A    
C127  C128  A    
C79   C206  A    
O5    Zn1   S    
C54   H36   S    
C182  O17   A    
C91   H94   S    
O7    Zn10  S    
C27   C32   A    
C72   H60   S    
C28   C31   A    
C35   C101  A    
C119  C120  A    
C14   H54   S    
O16   Zn3   S    
C133  H68   S    
C105  C106  A    
C34   C52   A    
O47   Zn12  S    
C140  O52   A    
C36   C187  S    
C64   C65   A    
C142  C150  A    
C12   C210  A    
C31   C208  A    
C138  H74   S    
C109  C110  A    
O1    Zn1   S    
C92   C93   A    
C111  C114  A    
C208  H33   S    
C183  O38   A    
C90   C160  A    
C94   C95   A    
C50   C190  S    
C168  C172  A    
O1    Zn10  S    
C178  O10   A    
C82   C83   A    
C31   C45   A    
O26   Zn8   S    
C103  C104  A    
C133  C146  A    
C185  O19   A    
C26   C51   A    
O15   Zn2   S    
C204  H30   S    
C193  O28   A    
C75   C195  A    
O12   Zn4   S    
C35   C76   A    
O12   Zn11  S    
C93   C94   A    
C98   C143  S    
C95   C96   A    
C216  H42   S    
C207  H32   S    
C177  O11   A    
C81   C82   A    
C85   C91   A    
C141  C149  A    
C1    O45   A    
C93   H95   S    
C94   H96   S    
C62   C67   A    
C55   H47   S    
C148  C161  A    
C62   H2    S    
C181  O16   A    
C186  O36   A    
C111  C145  S    
C156  C169  A    
C116  C117  A    
C117  H4    S    
C144  C153  A    
O4    Zn6   S    
C86   H89   S    
O18   Zn3   S    
C149  C163  A    
C113  C158  A    
C92   C142  S    
C175  O7    A    
C8    C16   A    
C57   C101  A    
C118  H5    S    
C192  O47   A    
C211  H37   S    
C15   H55   S    
C191  O26   A    
C61   H102  S    
C10   H51   S    
C59   H80   S    
C29   C48   A    
C18   C23   A    
C33   C43   A    
C30   C47   A    
C19   C22   A    
C41   C59   A    
C18   C41   A    
C176  O6    A    
C5    C202  A    
C175  O5    A    
C151  O2    A    
C44   C62   A    
O1    Zn3   S    
C5    C216  A    
C45   C63   A    
C19   C202  A    
C71   C173  A    
C75   H63   S    
C57   C74   A    
C189  O43   A    
C17   C204  A    
C104  H105  S    
O36   Zn10  S    
C78   C84   A    
O45   Zn3   S    
C99   C100  A    
C107  C108  A    
C96   C97   A    
C100  C102  A    
C32   C44   A    
C7    H48   S    
C32   C207  A    
C85   C141  S    
C37   C54   A    
C135  H71   S    
C21   C200  A    
C136  H72   S    
C210  H35   S    
C153  C159  A    
O24   Zn6   S    
C54   C58   A    
C61   C69   A    
O42   Zn12  S    
C124  C206  A    
C163  H76   S    
C80   C81   A    
C89   H93   S    
C11   C12   A    
C165  H78   S    
C49   C191  S    
C38   C185  S    
C112  C162  S    
C209  H34   S    
C201  H27   S    
O21   Zn4   S    
C64   H17   S    
O35   Zn9   S    
C11   C209  A    
C130  H15   S    
C98   C104  A    
O23   Zn12  S    
C73   C173  A    
C16   C213  A    
C25   C197  A    
C198  H23   S    
C80   H84   S    
C46   C136  A    
O3    Zn5   S    
C97   H99   S    
C124  C144  A    
C122  C123  A    
C76   C184  A    
C69   H21   S    
O17   Zn4   S    
C24   C71   A    
C58   H69   S    
O29   Zn5   S    
