data_mof_unit_59263.cif
_audit_creation_date              2013-03-05T16:34:15-0500
_audit_creation_method            fapswitch 2.2
_symmetry_space_group_name_H-M    P1
_symmetry_Int_Tables_number       1
_space_group_crystal_system       triclinic
_cell_length_a                    21.182754
_cell_length_b                    21.213073
_cell_length_c                    14.143793
_cell_angle_alpha                 90.003255
_cell_angle_beta                  90.002726
_cell_angle_gamma                 89.985907
_cell_volume                      6355.53165998

loop_
_atom_site_label
_atom_site_type_symbol
_atom_site_description
_atom_site_fract_x
_atom_site_fract_y
_atom_site_fract_z
_atom_type_partial_charge
O1    O     O_R   0.065470 0.434530 0.579480 -0.604479
O2    O     O_R   0.934530 0.565470 0.420520 -0.580939
O3    O     O_R   0.934530 0.565470 0.579480 -0.604654
O4    O     O_R   0.065470 0.434530 0.420520 -0.580945
O5    O     O_R   0.934530 0.434530 0.420520 -0.605964
O6    O     O_R   0.065470 0.565470 0.579480 -0.582009
O7    O     O_R   0.065470 0.565470 0.420520 -0.605912
O8    O     O_R   0.934530 0.434530 0.579480 -0.582188
O9    O     O_R   0.565470 0.934530 0.579480 -0.604911
O10   O     O_R   0.434530 0.065470 0.420520 -0.581140
O11   O     O_R   0.434530 0.065470 0.579480 -0.604775
O12   O     O_R   0.565470 0.934530 0.420520 -0.581092
O13   O     O_R   0.434530 0.934530 0.420520 -0.605691
O14   O     O_R   0.565470 0.065470 0.579480 -0.581960
O15   O     O_R   0.565470 0.065470 0.420520 -0.605781
O16   O     O_R   0.434530 0.934530 0.579480 -0.581824
C1    C     C_R   0.086117 0.413853 0.500001 1.028216
C2    C     C_R   0.913884 0.586146 0.500003 1.028189
C3    C     C_R   0.913875 0.413851 0.499998 1.029685
C4    C     C_R   0.086137 0.586137 0.500007 1.029176
C5    C     C_R   0.586113 0.913849 0.500003 1.028355
C6    C     C_R   0.413886 0.086150 0.500000 1.028567
C7    C     C_R   0.413872 0.913855 0.500001 1.029096
C8    C     C_R   0.586122 0.086148 0.500006 1.029717
Zn1   Zn    Zn3+2 0.000000 0.500000 0.606140 1.079220
Zn2   Zn    Zn3+2 0.000000 0.500000 0.393860 1.080086
Zn3   Zn    Zn3+2 0.500000 0.000000 0.606140 1.079355
Zn4   Zn    Zn3+2 0.500000 1.000000 0.393860 1.079935
C9    C     C_R   0.820908 0.271907 0.568714 -0.188630
C10   C     C_R   0.228172 0.679343 0.431827 -0.185507
C11   C     C_R   0.179310 0.727871 0.569059 -0.188874
C12   C     C_R   0.771743 0.320734 0.431972 -0.185277
C13   C     C_R   0.178632 0.271362 0.432386 -0.188737
C14   C     C_R   0.771196 0.678632 0.567305 -0.187047
C15   C     C_R   0.821407 0.728661 0.432419 -0.188647
C16   C     C_R   0.228737 0.321311 0.567442 -0.187000
C17   C     C_R   0.320841 0.772020 0.568959 -0.188892
C18   C     C_R   0.728329 0.179167 0.432108 -0.185414
C19   C     C_R   0.679031 0.228162 0.568609 -0.188647
C20   C     C_R   0.271846 0.820611 0.431884 -0.185639
C21   C     C_R   0.678557 0.771322 0.432329 -0.188620
C22   C     C_R   0.271303 0.178753 0.567437 -0.186805
C23   C     C_R   0.321429 0.228686 0.432403 -0.188686
C24   C     C_R   0.728680 0.821205 0.567425 -0.186909
H1    H     H_    0.821789 0.234039 0.620198 0.197395
H2    H     H_    0.266070 0.678712 0.380292 0.198265
H3    H     H_    0.178535 0.765615 0.620759 0.197125
H4    H     H_    0.733740 0.321465 0.380609 0.198326
H5    H     H_    0.177443 0.233082 0.381602 0.197513
H6    H     H_    0.732797 0.677462 0.617975 0.198179
H7    H     H_    0.822638 0.766973 0.381700 0.197546
H8    H     H_    0.267097 0.322456 0.618185 0.198124
H9    H     H_    0.321673 0.734245 0.620601 0.197132
H10   H     H_    0.766384 0.178371 0.380842 0.198494
H11   H     H_    0.678107 0.266091 0.619993 0.197450
H12   H     H_    0.233905 0.821257 0.380417 0.198429
H13   H     H_    0.677348 0.733058 0.381521 0.197545
H14   H     H_    0.232937 0.177622 0.618165 0.198067
H15   H     H_    0.322631 0.266964 0.381626 0.197584
H16   H     H_    0.767037 0.822310 0.618174 0.198020
C25   C     C_R   0.868396 0.316792 0.568027 0.288801
C26   C     C_R   0.183243 0.631907 0.432072 0.287065
C27   C     C_R   0.131819 0.683000 0.568346 0.289327
C28   C     C_R   0.816679 0.368165 0.432230 0.286805
C29   C     C_R   0.131156 0.316293 0.432917 0.287296
C30   C     C_R   0.816185 0.631222 0.566925 0.283986
C31   C     C_R   0.868895 0.683743 0.432998 0.287007
C32   C     C_R   0.183764 0.368735 0.567018 0.283975
C33   C     C_R   0.368305 0.816919 0.568246 0.289120
C34   C     C_R   0.683391 0.131737 0.432383 0.286347
C35   C     C_R   0.631543 0.183275 0.567934 0.288579
C36   C     C_R   0.316749 0.868072 0.432134 0.286714
C37   C     C_R   0.631101 0.816275 0.432897 0.287142
C38   C     C_R   0.316253 0.131307 0.567006 0.284204
C39   C     C_R   0.368884 0.183731 0.432924 0.287307
C40   C     C_R   0.683727 0.868649 0.567042 0.284524
C41   C     C_R   0.865842 0.365766 0.500038 -0.261153
C42   C     C_R   0.134205 0.634187 0.500081 -0.261055
C43   C     C_R   0.134162 0.365791 0.499995 -0.262552
C44   C     C_R   0.865839 0.634206 0.499998 -0.262650
C45   C     C_R   0.365837 0.865776 0.500066 -0.261201
C46   C     C_R   0.634159 0.134225 0.500064 -0.261334
C47   C     C_R   0.634132 0.865758 0.499999 -0.262440
C48   C     C_R   0.365858 0.134230 0.499992 -0.262462
C49   C     C_R   0.969676 0.451525 0.105073 0.379922
C50   C     C_R   0.978512 0.552992 0.894803 0.380601
C51   C     C_R   0.030375 0.548465 0.105105 0.380187
C52   C     C_R   0.021560 0.447013 0.894773 0.380310
C53   C     C_R   0.470893 0.950774 0.105102 0.379971
C54   C     C_R   0.477194 0.052450 0.894805 0.380454
C55   C     C_R   0.529107 0.049229 0.105120 0.380184
C56   C     C_R   0.522827 0.947554 0.894795 0.380284
C57   C     C_R   0.773807 0.273842 0.500444 0.007676
C58   C     C_R   0.226253 0.726096 0.500538 0.008039
C59   C     C_R   0.226200 0.273857 0.499883 0.007741
C60   C     C_R   0.773778 0.726117 0.499807 0.007707
C61   C     C_R   0.273842 0.773816 0.500520 0.008085
C62   C     C_R   0.726197 0.226144 0.500451 0.007718
C63   C     C_R   0.726126 0.773777 0.499825 0.007652
C64   C     C_R   0.273863 0.226209 0.499893 0.007657
C65   C     C_R   0.971673 0.452070 0.204537 -0.067832
C66   C     C_R   0.980325 0.552106 0.795314 -0.071697
C67   C     C_R   0.028347 0.547924 0.204564 -0.067555
C68   C     C_R   0.019701 0.447898 0.795294 -0.070877
C69   C     C_R   0.472894 0.951365 0.204564 -0.067581
C70   C     C_R   0.479060 0.051612 0.795327 -0.071018
C71   C     C_R   0.527105 0.048637 0.204581 -0.068227
C72   C     C_R   0.520946 0.948390 0.795319 -0.069829
H17   H     H_    0.949795 0.414018 0.243397 0.205257
H18   H     H_    0.965350 0.593282 0.756177 0.204435
H19   H     H_    0.050234 0.585966 0.243444 0.205438
H20   H     H_    0.034690 0.406731 0.756142 0.204701
H21   H     H_    0.452001 0.912779 0.243470 0.205179
H22   H     H_    0.463081 0.092420 0.756221 0.204469
H23   H     H_    0.548000 0.087221 0.243498 0.205035
H24   H     H_    0.536925 0.907582 0.756207 0.204594
N1    N     N_R   0.000000 0.500000 0.252470 -0.152970
N2    N     N_R   1.000000 0.500000 0.747530 -0.151497
N3    N     N_R   0.500000 1.000000 0.252470 -0.152901
N4    N     N_R   0.500000 0.000000 0.747530 -0.151823
C73   C     C_R   0.000020 0.500002 0.053257 -0.093133
C74   C     C_R   0.000036 0.500001 0.946551 -0.096870
C75   C     C_R   0.499999 0.000004 0.053285 -0.094410
C76   C     C_R   0.500014 0.000003 0.946576 -0.097192
O17   O     O_3   0.940796 0.401444 0.060016 -0.538864
C77   C     C_3   0.877737 0.417891 0.039552 0.087398
H25   H     H_    0.876081 0.454688 0.983657 0.125594
H26   H     H_    0.852476 0.435027 0.103784 0.175906
C78   C     C_3   0.843252 0.360054 0.002649 -0.642213
H27   H     H_    0.843457 0.322327 0.057101 0.261198
H28   H     H_    0.793602 0.372452 0.985617 0.208383
H29   H     H_    0.866734 0.342356 0.937617 0.277829
O18   O     O_3   0.958820 0.607189 0.940246 -0.537354
C79   C     C_3   0.893173 0.603367 0.955776 0.079538
H30   H     H_    0.881973 0.564542 0.005870 0.123278
H31   H     H_    0.867101 0.595988 0.888205 0.176732
C80   C     C_3   0.870470 0.664756 0.999641 -0.646696
H32   H     H_    0.880419 0.704727 0.951163 0.261228
H33   H     H_    0.818823 0.662304 0.012590 0.205513
H34   H     H_    0.894990 0.672960 0.067978 0.283592
O19   O     O_3   0.059347 0.598509 0.060094 -0.538614
C81   C     C_3   0.122340 0.581907 0.039438 0.087189
H35   H     H_    0.123836 0.545260 0.983305 0.125429
H36   H     H_    0.147593 0.564506 0.103518 0.175695
C82   C     C_3   0.156994 0.639731 0.002861 -0.641210
H37   H     H_    0.156960 0.677303 0.057563 0.261177
H38   H     H_    0.206588 0.627213 0.985667 0.208282
H39   H     H_    0.133521 0.657695 0.937986 0.278043
O20   O     O_3   0.041345 0.392814 0.940119 -0.537247
C83   C     C_3   0.106840 0.397101 0.956818 0.079667
H40   H     H_    0.117285 0.435514 0.007983 0.123328
H41   H     H_    0.133351 0.405419 0.889877 0.176033
C84   C     C_3   0.129822 0.335494 0.999647 -0.646156
H42   H     H_    0.120678 0.295939 0.950053 0.260856
H43   H     H_    0.181333 0.338334 0.013603 0.205465
H44   H     H_    0.104843 0.326327 0.067326 0.283891
O21   O     O_3   0.443262 0.899997 0.060040 -0.538510
C85   C     C_3   0.379819 0.914894 0.039565 0.085986
H45   H     H_    0.377241 0.951836 0.983957 0.125290
H46   H     H_    0.354093 0.931145 0.103896 0.176268
C86   C     C_3   0.346866 0.856321 0.002138 -0.641814
H47   H     H_    0.348013 0.818415 0.056283 0.260747
H48   H     H_    0.296924 0.867497 0.985121 0.208148
H49   H     H_    0.370843 0.839472 0.937004 0.279258
O22   O     O_3   0.456109 0.106163 0.940143 -0.537417
C87   C     C_3   0.390776 0.100225 0.957109 0.080309
H50   H     H_    0.381417 0.061674 0.008501 0.123461
H51   H     H_    0.364374 0.091069 0.890315 0.176801
C88   C     C_3   0.366281 0.161317 0.999722 -0.646607
H52   H     H_    0.374346 0.200985 0.949917 0.260858
H53   H     H_    0.314878 0.157193 0.013841 0.205669
H54   H     H_    0.391107 0.171264 0.067285 0.283224
O23   O     O_3   0.556750 0.099995 0.060062 -0.538463
C89   C     C_3   0.620238 0.085142 0.039840 0.085652
H55   H     H_    0.622939 0.048067 0.984437 0.125131
H56   H     H_    0.645905 0.069088 0.104334 0.176301
C90   C     C_3   0.653149 0.143671 0.002196 -0.642579
H57   H     H_    0.651880 0.181708 0.056134 0.260788
H58   H     H_    0.703128 0.132527 0.985383 0.208191
H59   H     H_    0.629227 0.160325 0.936905 0.278879
O24   O     O_3   0.543923 0.893834 0.940100 -0.537350
C91   C     C_3   0.609205 0.899887 0.957431 0.080387
H60   H     H_    0.618341 0.938267 0.009205 0.123608
H61   H     H_    0.635733 0.909372 0.890854 0.176503
C92   C     C_3   0.633783 0.838703 0.999631 -0.646483
H62   H     H_    0.625955 0.799207 0.949427 0.260740
H63   H     H_    0.685139 0.842925 0.014067 0.205640
H64   H     H_    0.608828 0.828418 0.066969 0.283291
N5    N     N_R   0.919690 0.310547 0.634015 0.222897
O25   O     O_R   0.908656 0.292002 0.720148 -0.371424
O26   O     O_R   0.977818 0.313272 0.604549 -0.370488
N6    N     N_R   0.189568 0.580936 0.365667 0.217234
O27   O     O_R   0.186603 0.522783 0.394596 -0.360523
O28   O     O_R   0.208792 0.592238 0.279942 -0.404894
N7    N     N_R   0.080686 0.689077 0.634618 0.222958
O29   O     O_R   0.091986 0.706861 0.721043 -0.371777
O30   O     O_R   0.022494 0.686861 0.605340 -0.370253
N8    N     N_R   0.810257 0.419232 0.366013 0.217248
O31   O     O_R   0.813351 0.477346 0.395095 -0.360400
O32   O     O_R   0.790858 0.408057 0.280336 -0.404663
N9    N     N_R   0.079472 0.309611 0.367695 0.225034
O33   O     O_R   0.021511 0.313246 0.397675 -0.366415
O34   O     O_R   0.089921 0.289815 0.282020 -0.378105
N10   N     N_R   0.809355 0.579593 0.632066 0.219373
O35   O     O_R   0.813083 0.521729 0.602037 -0.359222
O36   O     O_R   0.789104 0.589980 0.717524 -0.403197
N11   N     N_R   0.920652 0.690481 0.367928 0.224976
O37   O     O_R   0.978579 0.686798 0.398054 -0.366749
O38   O     O_R   0.910305 0.710370 0.282277 -0.377930
N12   N     N_R   0.190570 0.420352 0.632192 0.219454
O39   O     O_R   0.186948 0.478220 0.602160 -0.359469
O40   O     O_R   0.210685 0.409938 0.717716 -0.402777
N13   N     N_R   0.419488 0.810832 0.634440 0.223352
O41   O     O_R   0.408265 0.792919 0.720820 -0.372858
O42   O     O_R   0.477660 0.813161 0.605098 -0.369592
N14   N     N_R   0.689879 0.080582 0.366324 0.217631
O43   O     O_R   0.686673 0.022506 0.395542 -0.360197
O44   O     O_R   0.709446 0.091630 0.280702 -0.404300
N15   N     N_R   0.580199 0.189588 0.633824 0.223306
O45   O     O_R   0.591152 0.208386 0.719860 -0.372366
O46   O     O_R   0.522089 0.186668 0.604311 -0.369769
N16   N     N_R   0.310346 0.919087 0.365824 0.217635
O47   O     O_R   0.313362 0.977222 0.394832 -0.360083
O48   O     O_R   0.291004 0.907841 0.280139 -0.404521
N17   N     N_R   0.579398 0.809623 0.367704 0.224740
O49   O     O_R   0.521447 0.813233 0.397739 -0.367377
O50   O     O_R   0.589820 0.789880 0.281995 -0.377029
N18   N     N_R   0.309415 0.079689 0.632165 0.219172
O51   O     O_R   0.313068 0.021820 0.602136 -0.359586
O52   O     O_R   0.289216 0.090101 0.717642 -0.403357
N19   N     N_R   0.420563 0.190390 0.367691 0.224771
O53   O     O_R   0.410117 0.210250 0.282051 -0.377103
O54   O     O_R   0.478527 0.186691 0.397650 -0.367009
N20   N     N_R   0.690540 0.920217 0.632306 0.219175
O55   O     O_R   0.686902 0.978109 0.602387 -0.359360
O56   O     O_R   0.710697 0.909737 0.717789 -0.403389

loop_
_geom_bond_atom_site_label_1
_geom_bond_atom_site_label_2
_geom_bond_distance
_ccdc_geom_bond_type
C9    C57   1.389035 A    
C18   C34   1.385262 A    
O22   C87   1.410271 S    
C29   C43   1.416554 A    
C17   C33   1.385128 A    
O2    C2    1.283488 A    
N9    O34   1.301391 A    
N9    O33   1.301229 A    
C72   N4    1.360938 A    
C49   O17   1.381744 S    
C27   C42   1.416641 A    
Zn2   N1    1.999791 S    
C18   C62   1.389011 A    
C32   N12   1.438544 S    
Zn1   N2    1.999791 S    
C22   H14   1.084385 S    
C79   C80   1.520428 S    
C17   C61   1.389059 A    
C86   H47   1.110734 S    
N10   O36   1.301343 A    
C13   C29   1.385421 A    
C75   C76   1.509264 S    
C15   C60   1.389019 A    
O10   C6    1.283462 A    
C78   H28   1.110481 S    
C80   H33   1.110479 S    
C55   O23   1.381726 S    
C77   H25   1.111566 S    
O7    Zn2   1.998788 S    
O12   Zn4   1.998345 S    
C69   H21   1.081160 S    
C22   C64   1.388933 A    
N14   O44   1.301321 A    
C28   N8    1.438464 S    
C56   O24   1.381565 S    
C56   C76   1.416868 A    
C24   C63   1.388954 A    
C39   C48   1.416594 A    
C92   H63   1.110489 S    
O6    Zn1   1.998843 S    
C21   H13   1.084380 S    
C65   H17   1.081069 S    
C60   C63   1.428464 S    
O24   C91   1.410292 S    
C1    C43   1.440388 S    
C35   N15   1.438510 S    
O13   C7    1.283659 A    
O3    C2    1.283417 A    
C67   H19   1.081063 S    
C88   H52   1.110693 S    
O14   C8    1.283551 A    
C24   C40   1.385346 A    
C8    C46   1.440838 S    
C89   H55   1.111649 S    
C38   N18   1.438569 S    
C85   C86   1.520399 S    
C86   H48   1.110472 S    
C91   H60   1.111992 S    
C56   C72   1.407641 A    
O21   C85   1.410525 S    
C19   H11   1.084380 S    
C5    C47   1.440430 S    
C25   C41   1.416696 A    
C20   H12   1.084415 S    
C83   C84   1.520404 S    
C50   C74   1.416684 A    
C21   C63   1.389010 A    
O13   Zn4   1.998846 S    
C49   C73   1.417111 A    
N8    O31   1.301236 A    
O11   Zn3   1.998345 S    
O14   Zn3   1.998843 S    
C84   H43   1.110495 S    
C20   C36   1.385226 A    
C36   C45   1.416560 A    
C66   N2    1.360856 A    
C23   H15   1.084370 S    
C78   H29   1.110999 S    
C30   N10   1.438573 S    
O1    Zn1   1.998341 S    
O16   Zn3   1.998791 S    
C12   C57   1.389023 A    
C11   H3    1.084425 S    
C87   H51   1.114888 S    
O8    Zn1   1.998791 S    
C12   H4    1.084408 S    
C81   C82   1.520405 S    
C14   C30   1.385354 A    
C67   N1    1.361467 A    
N20   O56   1.301336 A    
C13   C59   1.389026 A    
C40   C47   1.416516 A    
C71   N3    1.361368 A    
N18   O51   1.301234 A    
C52   C68   1.407685 A    
C10   H2    1.084431 S    
C82   H37   1.110738 S    
C68   N2    1.360860 A    
N13   O42   1.301213 A    
C23   C39   1.385441 A    
C80   H34   1.110973 S    
C9    C25   1.385288 A    
C22   C38   1.385348 A    
O8    C3    1.283596 A    
C14   H6    1.084392 S    
C82   H38   1.110483 S    
N11   O37   1.301235 A    
Zn3   N4    1.999791 S    
O3    Zn1   1.998345 S    
C33   N13   1.438249 S    
N14   O43   1.301243 A    
C12   C28   1.385254 A    
O2    Zn2   1.998341 S    
C38   C48   1.416510 A    
C20   C61   1.389113 A    
C51   C73   1.417148 A    
C59   C64   1.428457 S    
C92   H64   1.110967 S    
C26   N6    1.438422 S    
C53   C75   1.417147 A    
C77   C78   1.520413 S    
C90   H58   1.110483 S    
N13   O41   1.301414 A    
O12   C5    1.283511 A    
C52   O20   1.381545 S    
C51   O19   1.381765 S    
N7    O29   1.301459 A    
C9    H1    1.084399 S    
C91   C92   1.520385 S    
N6    O28   1.301356 A    
C85   H45   1.111629 S    
C39   N19   1.438661 S    
C79   H31   1.114844 S    
C11   C27   1.385124 A    
N15   O46   1.301245 A    
C3    C41   1.440908 S    
C50   O18   1.381516 S    
O4    Zn2   1.998345 S    
C18   H10   1.084398 S    
C15   C31   1.385439 A    
C90   H59   1.110985 S    
C36   N16   1.438453 S    
O17   C77   1.410525 S    
N17   O49   1.301236 A    
N19   O54   1.301232 A    
C23   C64   1.389005 A    
C84   H44   1.110953 S    
N16   O48   1.301342 A    
C89   C90   1.520381 S    
C71   H23   1.081161 S    
C73   C74   1.509229 S    
C90   H57   1.110727 S    
C51   C67   1.407435 A    
O4    C1    1.283473 A    
C52   C74   1.416815 A    
O15   C8    1.283623 A    
C70   H22   1.081563 S    
N12   O39   1.301235 A    
O16   C7    1.283541 A    
N12   O40   1.301345 A    
C10   C26   1.385215 A    
C54   O22   1.381558 S    
C15   H7    1.084378 S    
C87   H50   1.112018 S    
C88   H54   1.110956 S    
C27   N7    1.438211 S    
C66   H18   1.081623 S    
N20   O55   1.301225 A    
O15   Zn4   1.998788 S    
C50   C66   1.407796 A    
N15   O45   1.301385 A    
C86   H49   1.111005 S    
C49   C65   1.407479 A    
C82   H39   1.110987 S    
O9    Zn3   1.998341 S    
C68   H20   1.081626 S    
C78   H27   1.110740 S    
C88   H53   1.110491 S    
O10   Zn4   1.998341 S    
C31   N11   1.438629 S    
C77   H26   1.115224 S    
C7    C45   1.440857 S    
C70   N4    1.360934 A    
C81   H35   1.111585 S    
C54   C76   1.416825 A    
N18   O52   1.301329 A    
C26   C42   1.416583 A    
C31   C44   1.416538 A    
C14   C60   1.388957 A    
C19   C62   1.389035 A    
Zn4   N3    1.999791 S    
C16   H8    1.084390 S    
C40   N20   1.438570 S    
C16   C32   1.385342 A    
C53   O21   1.381738 S    
C79   H30   1.112104 S    
O5    C3    1.283625 A    
C11   C58   1.389083 A    
C30   C44   1.416502 A    
C80   H32   1.110709 S    
O11   C6    1.283471 A    
O1    C1    1.283450 A    
C58   C61   1.428783 S    
C4    C42   1.440910 S    
C65   N1    1.361475 A    
N6    O27   1.301245 A    
C72   H24   1.081561 S    
N8    O32   1.301336 A    
C34   N14   1.438496 S    
C17   H9    1.084438 S    
C10   C58   1.389091 A    
O19   C81   1.410578 S    
C37   N17   1.438605 S    
C85   H46   1.115174 S    
C16   C59   1.388954 A    
O9    C5    1.283433 A    
C92   H62   1.110698 S    
O18   C79   1.410186 S    
O6    C4    1.283570 A    
C24   H16   1.084393 S    
C57   C62   1.428759 S    
C35   C46   1.416709 A    
N17   O50   1.301393 A    
C89   H56   1.115153 S    
C83   H41   1.114926 S    
N5    O25   1.301400 A    
C34   C46   1.416601 A    
C91   H61   1.114930 S    
C33   C45   1.416637 A    
C54   C70   1.407666 A    
C21   C37   1.385436 A    
O5    Zn2   1.998846 S    
C29   N9    1.438627 S    
N10   O35   1.301219 A    
C87   C88   1.520378 S    
C2    C44   1.440364 S    
O7    C4    1.283657 A    
C32   C43   1.416490 A    
C53   C69   1.407459 A    
N19   O53   1.301387 A    
N11   O38   1.301391 A    
C28   C41   1.416627 A    
C19   C35   1.385328 A    
C83   H40   1.112048 S    
C69   N3    1.361387 A    
C55   C75   1.417122 A    
C25   N5    1.438429 S    
N5    O26   1.301235 A    
C84   H42   1.110692 S    
O20   C83   1.410275 S    
O23   C89   1.410514 S    
C13   H5    1.084384 S    
N16   O47   1.301243 A    
C37   C47   1.416563 A    
C81   H36   1.115235 S    
C6    C48   1.440414 S    
N7    O30   1.301192 A    
C55   C71   1.407455 A    
