data_mof_unit_17312.cif
_audit_creation_date              2012-12-10T19:00:02-0500
_audit_creation_method            fapswitch 2.2
_symmetry_space_group_name_H-M    P1
_symmetry_Int_Tables_number       1
_space_group_crystal_system       triclinic
_cell_length_a                    10.688009
_cell_length_b                    10.633035
_cell_length_c                    9.902838
_cell_angle_alpha                 89.938377
_cell_angle_beta                  90.790371
_cell_angle_gamma                 91.454325
_cell_volume                      1124.94780445

loop_
_atom_site_label
_atom_site_type_symbol
_atom_type_description
_atom_site_fract_x
_atom_site_fract_y
_atom_site_fract_z
_atom_type_partial_charge
C1    C     C_R   0.503626 0.260534 0.500161 0.883779
C2    C     C_R   0.496375 0.739465 0.499839 0.883797
C3    C     C_R   0.872363 0.500581 0.503509 -0.185173
C4    C     C_R   0.127630 0.499409 0.496500 -0.185176
C5    C     C_R   0.935883 0.417670 0.590253 -0.158333
C6    C     C_R   0.064108 0.582316 0.409753 -0.158384
C7    C     C_R   0.583665 0.063248 0.411900 0.475482
C8    C     C_R   0.416338 0.936751 0.588102 0.475492
C9    C     C_R   0.574052 0.934409 0.410266 -0.132925
C10   C     C_R   0.425952 0.065590 0.589737 -0.132885
C11   C     C_R   0.493169 0.871869 0.498735 -0.249851
C12   C     C_R   0.506833 0.128131 0.501266 -0.249811
C13   C     C_R   0.567943 0.588978 0.075196 0.448794
C14   C     C_R   0.432057 0.411022 0.924804 0.448711
C15   C     C_R   0.568912 0.588874 0.930850 0.255661
C16   C     C_R   0.431088 0.411126 0.069150 0.255558
C17   C     C_R   0.260426 0.500624 0.498884 0.959086
C18   C     C_R   0.739572 0.499363 0.501117 0.959098
C19   C     C_R   0.227800 0.873313 0.266149 0.374819
C20   C     C_R   0.772327 0.126499 0.733637 0.374738
C21   C     C_R   0.163421 0.791896 0.354102 -0.233602
C22   C     C_R   0.836685 0.208001 0.645753 -0.233396
C23   C     C_R   0.132976 0.667877 0.316030 0.032725
C24   C     C_R   0.867007 0.332029 0.683891 0.032624
C25   C     C_R   0.165695 0.625336 0.187714 -0.195902
C26   C     C_R   0.834179 0.374493 0.812206 -0.196121
C27   C     C_R   0.229998 0.705182 0.099192 -0.184589
C28   C     C_R   0.769887 0.294566 0.900653 -0.184423
C29   C     C_R   0.259414 0.829860 0.135199 0.426100
C30   C     C_R   0.740606 0.169878 0.864582 0.426058
C31   C     C_R   0.934004 0.583792 0.415005 0.422944
C32   C     C_R   0.065989 0.416218 0.585026 0.422901
H1    H     H_    0.137994 0.825113 0.453139 0.197342
H2    H     H_    0.862190 0.174840 0.546720 0.197394
H3    H     H_    0.142136 0.529851 0.156784 0.180960
H4    H     H_    0.857645 0.469982 0.843195 0.180980
H5    H     H_    0.633920 0.882711 0.343654 0.227773
H6    H     H_    0.366085 0.117289 0.656350 0.227760
N1    N     N_R   0.499970 0.499970 0.857200 -0.192784
N2    N     N_R   0.500030 0.500030 0.142800 -0.192795
O1    O     O_R   0.499990 0.316750 0.614620 -0.562968
O2    O     O_R   0.500010 0.683250 0.385380 -0.562971
O3    O     O_R   0.499990 0.316780 0.385290 -0.615000
O4    O     O_R   0.500010 0.683220 0.614710 -0.615003
O5    O     O_R   0.316760 0.500000 0.614660 -0.544117
O6    O     O_R   0.683240 0.500000 0.385340 -0.544100
O7    O     O_R   0.316760 0.500020 0.385330 -0.663063
O8    O     O_R   0.683240 0.499980 0.614670 -0.663076
Zn1   Zn    Zn3+2 0.500000 0.499980 0.653120 1.021692
Zn2   Zn    Zn3+2 0.500000 0.500020 0.346880 1.021697
O9    O     O_3   0.315524 0.905591 0.039102 -0.709364
H7    H     H_    0.293844 0.994040 0.056120 0.355779
O10   O     O_3   0.684529 0.094061 0.960620 -0.709433
H8    H     H_    0.706405 0.005658 0.943642 0.355746
O11   O     O_3   0.640686 0.680191 0.868074 -0.758721
H9    H     H_    0.657348 0.652156 0.776054 0.397310
O12   O     O_3   0.359314 0.319809 0.131926 -0.758663
H10   H     H_    0.342651 0.347845 0.223945 0.397334
O13   O     O_3   0.258451 0.992586 0.312486 -0.757945
H11   H     H_    0.332726 0.025022 0.263735 0.353430
O14   O     O_3   0.741790 0.007221 0.687234 -0.757949
H12   H     H_    0.667570 0.974667 0.735997 0.353453
H13   H     H_    0.254522 0.670794 0.000344 0.177499
H14   H     H_    0.745273 0.328892 0.999497 0.177499
O15   O     O_3   0.863102 0.666396 0.338959 -0.718850
H15   H     H_    0.915496 0.715251 0.275308 0.354243
O16   O     O_3   0.136886 0.333624 0.661090 -0.718855
H16   H     H_    0.084523 0.284975 0.724948 0.354238
O17   O     O_3   0.670404 0.120679 0.328279 -0.708421
H17   H     H_    0.693615 0.204956 0.364272 0.326824
O18   O     O_3   0.329598 0.879321 0.671723 -0.708330
H18   H     H_    0.306390 0.795042 0.635734 0.326838
O19   O     O_3   0.636091 0.676292 0.150809 -0.675883
H19   H     H_    0.680206 0.736685 0.090899 0.375312
O20   O     O_3   0.363911 0.323707 0.849191 -0.675911
H20   H     H_    0.319795 0.263314 0.909101 0.375299

loop_
_geom_bond_atom_site_label_1
_geom_bond_atom_site_label_2
_ccdc_geom_bond_type
O4    Zn1   S    
O11   H9    S    
C27   C29   A    
O19   H19   S    
O2    Zn2   S    
C20   C30   A    
O10   H8    S    
C19   C21   A    
C17   O5    A    
C21   H1    S    
C3    C18   S    
C31   O15   S    
C20   O14   S    
C13   N2    A    
C14   N1    A    
C1    O3    A    
C2    O4    A    
C5    C32   A    
C6    C31   A    
O13   H11   S    
O14   H12   S    
C1    C12   S    
C2    C11   S    
C18   O6    A    
O1    Zn1   S    
O7    Zn2   S    
C7    C12   A    
C22   H2    S    
C30   O10   S    
O16   H16   S    
C4    C6    A    
C25   H3    S    
C19   O13   S    
O9    H7    S    
C15   O11   S    
O20   H20   S    
O5    Zn1   S    
C9    H5    S    
C3    C31   A    
C9    C11   A    
C15   N1    A    
C4    C32   A    
C10   C12   A    
C16   N2    A    
C32   O16   S    
C4    C17   S    
C28   H14   S    
C1    O1    A    
O8    Zn1   S    
N1    Zn1   S    
C20   C22   A    
C13   C15   A    
C22   C24   A    
C19   C29   A    
C29   O9    S    
C26   H4    S    
C7    C9    A    
C8    O18   S    
C17   O7    A    
C13   O19   S    
C3    C5    A    
C18   O8    A    
C7    O17   S    
O3    Zn2   S    
C25   C27   A    
O6    Zn2   S    
C26   C28   A    
C10   H6    S    
C14   O20   S    
C21   C23   A    
O18   H18   S    
C24   C26   A    
O12   H10   S    
C5    C24   S    
C2    O2    A    
C8    C11   A    
N2    Zn2   S    
C6    C23   S    
C28   C30   A    
C14   C16   A    
C16   O12   S    
C23   C25   A    
O17   H17   S    
C8    C10   A    
O15   H15   S    
C27   H13   S    
