data_mof_unit_61558.cif
_audit_creation_date              2012-12-10T17:22:24-0500
_audit_creation_method            fapswitch 2.2
_symmetry_space_group_name_H-M    P1
_symmetry_Int_Tables_number       1
_space_group_crystal_system       triclinic
_cell_length_a                    17.933765
_cell_length_b                    18.83156
_cell_length_c                    19.060717
_cell_angle_alpha                 110.294902
_cell_angle_beta                  107.967192
_cell_angle_gamma                 107.599602
_cell_volume                      5102.92769945

loop_
_atom_site_label
_atom_site_type_symbol
_atom_type_description
_atom_site_fract_x
_atom_site_fract_y
_atom_site_fract_z
_atom_type_partial_charge
C1    C     C_R   0.373313 0.381561 0.496535 0.879427
C2    C     C_3   0.809224 0.495165 0.805379 -0.142328
C3    C     C_3   0.852469 0.553023 0.769645 -0.025048
C4    C     C_3   0.752730 0.530299 0.842816 -0.000651
C5    C     C_R   0.319859 0.412117 0.642203 0.169143
C6    C     C_R   0.335251 0.415763 0.721072 0.172469
C7    C     C_R   0.323500 0.343214 0.728639 -0.251600
C8    C     C_R   0.286834 0.264797 0.657889 0.171485
C9    C     C_R   0.256907 0.258027 0.576627 -0.046280
C10   C     C_R   0.290133 0.331903 0.569600 -0.040949
C11   C     C_R   0.198197 0.180059 0.502269 -0.103288
C12   C     C_R   0.616917 0.495001 0.619171 0.874899
C13   C     C_R   0.204824 0.166513 0.428215 0.022007
C14   C     C_R   0.243504 0.237066 0.418577 -0.015624
C15   C     C_R   0.295590 0.319591 0.492597 -0.118576
C16   C     C_R   0.183957 0.084589 0.368091 0.068349
C17   C     C_R   0.176386 0.069155 0.288367 -0.067338
C18   C     C_R   0.194688 0.136513 0.270392 0.111767
C19   C     C_R   0.229003 0.220453 0.335137 -0.047645
C20   C     C_R   0.231082 0.536059 0.399053 -0.048699
C21   C     C_R   0.177185 0.573010 0.416688 0.164526
C22   C     C_R   0.118820 0.578694 0.353441 0.153909
C23   C     C_R   0.622942 0.619255 0.502148 0.906256
C24   C     C_R   0.123116 0.558115 0.278065 -0.231010
C25   C     C_R   0.186182 0.532352 0.264356 0.040227
C26   C     C_R   0.246547 0.527862 0.328432 0.012250
C27   C     C_R   0.184857 0.504132 0.185215 -0.084220
C28   C     C_R   0.246487 0.478394 0.170175 0.060606
C29   C     C_R   0.318995 0.493202 0.238620 0.001840
C30   C     C_R   0.315912 0.510718 0.316533 -0.135179
C31   C     C_R   0.237804 0.438676 0.088039 -0.156900
C32   C     C_R   0.301623 0.416779 0.075142 -0.174975
C33   C     C_R   0.380641 0.445097 0.143967 0.204512
C34   C     C_R   0.380478 0.503710 0.380502 0.883427
C35   C     C_R   0.392159 0.490500 0.225763 0.147815
C36   C     C_R   0.625541 0.791933 0.540707 0.167106
C37   C     C_R   0.592616 0.838369 0.507610 -0.060365
C38   C     C_R   0.610113 0.849732 0.445060 -0.192408
C39   C     C_R   0.677647 0.835592 0.430898 0.242451
C40   C     C_R   0.723637 0.803744 0.477663 0.010811
C41   C     C_R   0.679220 0.760739 0.510339 -0.011959
C42   C     C_R   0.812712 0.816486 0.504056 -0.135546
C43   C     C_R   0.835988 0.761260 0.532818 -0.006934
C44   C     C_R   0.765946 0.682209 0.501770 0.019957
C45   C     C_3   0.666452 0.399169 0.666523 -0.276488
C46   C     C_R   0.688795 0.686159 0.503092 -0.113913
C47   C     C_R   0.920800 0.777429 0.589114 -0.042978
C48   C     C_R   0.936869 0.708074 0.586042 0.149843
C49   C     C_R   0.869798 0.625452 0.529435 -0.200053
C50   C     C_R   0.783347 0.611054 0.487297 0.158335
C51   C     C_R   0.010628 0.381820 0.888280 0.853295
C52   C     C_R   0.877388 0.496095 0.873366 0.902933
C53   C     C_R   0.995986 0.618616 0.117876 0.880014
C54   C     C_R   0.118060 0.500799 0.117545 0.827548
C55   C     C_R   0.996994 0.874559 0.382909 0.909314
C56   C     C_3   0.748602 0.399698 0.727773 -0.133339
C57   C     C_R   0.122645 0.118352 0.499872 0.880034
C58   C     C_R   0.000593 0.123938 0.617821 0.863619
C59   C     C_R   0.879087 0.882051 0.501992 0.908333
C60   C     C_R   0.125740 0.424423 0.806987 0.151999
C61   C     C_R   0.127645 0.449741 0.746302 0.144715
C62   C     C_R   0.080948 0.388448 0.660854 -0.112473
C63   C     C_R   0.036327 0.301417 0.636284 -0.114729
C64   C     C_R   0.031938 0.276299 0.698203 -0.013805
C65   C     C_R   0.064742 0.340677 0.781581 -0.005823
C66   C     C_R   0.993344 0.190493 0.680670 -0.107762
C67   C     C_3   0.778914 0.540847 0.689539 -0.121356
C68   C     C_R   0.969264 0.170599 0.737684 0.042341
C69   C     C_R   0.996866 0.234452 0.819099 -0.007340
C70   C     C_R   0.031877 0.320069 0.835083 -0.171217
C71   C     C_R   0.912064 0.086793 0.711743 0.051503
C72   C     C_R   0.909107 0.060020 0.770587 -0.054394
C73   C     C_R   0.949200 0.120689 0.855580 0.126861
C74   C     C_R   0.988597 0.208200 0.879671 -0.056212
C75   C     C_R   0.160973 0.748340 0.278161 -0.145207
C76   C     C_R   0.224637 0.772366 0.358185 0.125002
C77   C     C_R   0.208284 0.800012 0.427448 0.191550
C78   C     C_3   0.687918 0.540848 0.774593 -0.011533
C79   C     C_R   0.131608 0.808316 0.416887 -0.158697
C80   C     C_R   0.066290 0.782557 0.336108 0.071378
C81   C     C_R   0.074736 0.738629 0.265125 -0.008653
C82   C     C_R   0.991229 0.796827 0.322651 -0.139945
C83   C     C_R   0.912222 0.738663 0.247300 -0.006000
C84   C     C_R   0.911516 0.670774 0.185243 0.022204
C85   C     C_R   0.994747 0.679121 0.188553 -0.131983
C86   C     C_R   0.830870 0.737976 0.237596 0.144193
C87   C     C_R   0.760950 0.693132 0.156310 -0.078715
C88   C     C_R   0.752751 0.615564 0.102136 -0.088816
C89   C     C_3   0.686390 0.493775 0.685162 -0.128472
C90   C     C_R   0.826604 0.599731 0.122917 0.164532
H1    H     H_    0.346370 0.348436 0.790700 0.204950
H2    H     H_    0.610617 0.375737 0.680078 0.166404
H3    H     H_    0.075306 0.561481 0.230139 0.172601
H4    H     H_    0.180733 0.422348 0.033016 0.144652
H5    H     H_    0.292385 0.383753 0.011614 0.184190
H6    H     H_    0.884791 0.572318 0.519132 0.201327
H7    H     H_    0.577457 0.877630 0.413216 0.196325
H8    H     H_    0.121436 0.828192 0.471906 0.205676
H9    H     H_    0.897205 0.529993 0.750904 0.153597
O1    O     O_R   0.408690 0.356690 0.448570 -0.616582
O2    O     O_R   0.049540 0.460090 0.906170 -0.606869
O3    O     O_R   0.853530 0.448360 0.905250 -0.614184
O4    O     O_R   0.956970 0.551730 0.905180 -0.578794
O5    O     O_R   0.945170 0.540000 0.088470 -0.604377
O6    O     O_R   0.048600 0.643370 0.088400 -0.602825
O7    O     O_R   0.037740 0.448360 0.089460 -0.608648
O8    O     O_R   0.141170 0.551730 0.089390 -0.608408
O9    O     O_R   0.948510 0.908450 0.356890 -0.601175
O10   O     O_R   0.052500 0.908420 0.460860 -0.621519
O11   O     O_R   0.039610 0.091640 0.448030 -0.607291
O12   O     O_R   0.408090 0.460090 0.551440 -0.589525
O13   O     O_R   0.143600 0.091610 0.551990 -0.582882
O14   O     O_R   0.947500 0.091600 0.539170 -0.593932
O15   O     O_R   0.051490 0.091570 0.643140 -0.602742
O16   O     O_R   0.856400 0.908420 0.448030 -0.581252
O17   O     O_R   0.960390 0.908390 0.552000 -0.635542
O18   O     O_R   0.592400 0.448300 0.540670 -0.616202
O19   O     O_R   0.591800 0.551700 0.643540 -0.602859
O20   O     O_R   0.591910 0.539910 0.448560 -0.588644
O21   O     O_R   0.591310 0.643310 0.551430 -0.601750
O22   O     O_R   0.408200 0.448300 0.356460 -0.602724
O23   O     O_R   0.407600 0.551700 0.459330 -0.607427
O24   O     O_R   0.946100 0.356720 0.906240 -0.605342
Zn1   Zn    Zn3+2 0.500400 0.430960 0.431310 1.066637
Zn2   Zn    Zn3+2 0.499600 0.569040 0.568690 1.092830
Zn3   Zn    Zn3+2 0.928290 0.431030 0.997370 1.059713
Zn4   Zn    Zn3+2 0.066410 0.569060 0.997270 1.082192
Zn5   Zn    Zn3+2 0.930570 0.000030 0.430590 1.067234
Zn6   Zn    Zn3+2 0.069430 0.999990 0.569430 1.053599
C91   C     C_1   0.632071 0.335033 0.577366 0.278645
N1    N     N_1   0.605153 0.284689 0.507996 -0.136872
I1    I     I_    0.832972 0.645777 0.966766 -0.316725
C92   C     C_1   0.792527 0.622491 0.689311 0.194050
N2    N     N_1   0.802943 0.685998 0.688701 -0.162783
I2    I     I_    0.954400 0.686231 0.857055 -0.184594
I3    I     I_    0.174542 0.111328 0.145475 -0.219159
I4    I     I_    0.317719 0.523934 0.638951 -0.176390
I5    I     I_    0.390700 0.530228 0.836804 -0.178301
I6    I     I_    0.324490 0.176593 0.685527 -0.203982
I7    I     I_    0.205633 0.997971 0.409572 -0.310639
C93   C     C_1   0.149902 0.984096 0.225225 0.293249
N3    N     N_1   0.128590 0.915900 0.174754 -0.134029
C94   C     C_1   0.231382 0.283458 0.308661 0.261519
N4    N     N_1   0.229358 0.330376 0.282880 -0.191432
I8    I     I_    0.482884 0.425819 0.119910 -0.188999
C95   C     C_1   0.227120 0.471696 0.423335 0.254112
N5    N     N_1   0.218163 0.417542 0.440178 -0.200173
I9    I     I_    0.175550 0.608936 0.534859 -0.156510
I10   I     I_    0.009034 0.596861 0.359462 -0.268950
I11   I     I_    0.516336 0.596418 0.310174 -0.259068
C96   C     C_1   0.715738 0.332587 0.750086 0.229881
N6    N     N_1   0.689998 0.279539 0.766664 -0.125660
I12   I     I_    0.629167 0.811785 0.660795 -0.201156
C97   C     C_1   0.548638 0.882184 0.542445 0.316243
N7    N     N_1   0.514466 0.918326 0.571148 -0.102084
I13   I     I_    0.678689 0.843172 0.322531 -0.223744
C98   C     C_1   0.981388 0.859431 0.663586 0.298343
N8    N     N_1   0.030085 0.924860 0.723353 -0.153501
I14   I     I_    0.061180 0.723910 0.663541 -0.190473
I15   I     I_    0.701710 0.489992 0.376601 -0.161050
I16   I     I_    0.945120 0.078858 0.946336 -0.202524
I17   I     I_    0.232120 0.504751 0.932953 -0.253625
I18   I     I_    0.190511 0.582088 0.782758 -0.142772
C99   C     C_1   0.800841 0.372022 0.687018 0.161034
N9    N     N_1   0.841673 0.350279 0.655721 -0.169462
C100  C     C_1   0.078093 0.414809 0.597579 0.269068
N10   N     N_1   0.074714 0.434650 0.546116 -0.121233
C101  C     C_1   0.982717 0.243199 0.546524 0.244708
N11   N     N_1   0.939938 0.198838 0.474410 -0.130802
I19   I     I_    0.797318 0.026070 0.596666 -0.352669
C102  C     C_1   0.869862 0.970208 0.743651 0.279604
N12   N     N_1   0.840198 0.898197 0.722540 -0.151924
C103  C     C_1   0.029245 0.266010 0.968443 0.226826
N13   N     N_1   0.060552 0.308039 0.040590 -0.161136
C104  C     C_1   0.665741 0.548896 0.036557 0.294493
N14   N     N_1   0.595297 0.496528 0.985316 -0.112444
C105  C     C_1   0.194540 0.757910 0.220483 0.336493
N15   N     N_1   0.223016 0.766920 0.175550 -0.119921
I20   I     I_    0.342782 0.762231 0.370724 -0.325975
I21   I     I_    0.298634 0.836882 0.551122 -0.183371
C106  C     C_1   0.784154 0.490811 0.613315 0.186913
N16   N     N_1   0.788539 0.451821 0.553925 -0.154256
I22   I     I_    0.789765 0.697971 0.315682 -0.271444
C107  C     C_1   0.688449 0.713842 0.137452 0.289864
N17   N     N_1   0.629857 0.729509 0.120714 -0.105700
I23   I     I_    0.793689 0.475956 0.113493 -0.172680
C108  C     C_1   0.714040 0.632660 0.803034 0.357915
N18   N     N_1   0.733550 0.704118 0.825117 -0.106061
I24   I     I_    0.554783 0.494116 0.763681 -0.314165
C109  C     C_1   0.704042 0.470451 0.865545 0.260019
N19   N     N_1   0.666613 0.422775 0.882757 -0.132339

loop_
_geom_bond_atom_site_label_1
_geom_bond_atom_site_label_2
_ccdc_geom_bond_type
C86   I22   S    
C8    C9    A    
C66   C68   A    
C102  N12   T    
C52   O4    A    
C109  N19   T    
C51   O24   A    
C73   C74   A    
C79   H8    S    
C87   C88   A    
C76   I20   S    
C27   C54   S    
C7    C8    A    
C4    I1    S    
O14   Zn5   S    
C103  N13   T    
C52   O3    A    
C37   C38   A    
C88   C104  S    
C54   O8    A    
C8    I6    S    
C99   N9    T    
C67   C92   S    
O18   Zn1   S    
C10   C15   A    
C23   O20   A    
C5    C6    A    
C57   O13   A    
C53   O5    A    
C65   C70   A    
C67   C89   S    
C107  N17   T    
C17   C93   S    
C18   C19   A    
C49   C50   A    
C45   H2    S    
O22   Zn1   S    
C73   I16   S    
C67   C106  S    
O2    Zn4   S    
C93   N3    T    
C84   C85   A    
C58   C66   S    
C98   N8    T    
O17   Zn6   S    
C47   C48   A    
C45   C56   S    
C59   O17   A    
C16   C17   A    
O12   Zn2   S    
C58   O14   A    
C60   I17   S    
C96   N6    T    
C18   I3    S    
C1    C15   S    
O19   Zn2   S    
O13   Zn6   S    
O4    Zn4   S    
C9    C10   A    
C3    I2    S    
C61   C62   A    
C72   C73   A    
C40   C42   A    
C22   I10   S    
C45   C91   S    
C34   O23   A    
C23   C46   S    
O20   Zn1   S    
C13   C14   A    
C55   O10   A    
C36   C41   A    
C16   I7    S    
C78   I24   S    
C84   C90   A    
C38   H7    S    
C14   C19   A    
C1    O1    A    
C44   C46   A    
C36   I12   S    
C77   C79   A    
C78   C89   S    
C48   I14   S    
C77   I21   S    
C30   C34   S    
C72   C102  S    
C4    C109  S    
C12   C89   S    
C24   C25   A    
C74   C103  S    
C80   C82   A    
C87   C107  S    
O6    Zn4   S    
O21   Zn2   S    
C68   C69   A    
O24   Zn3   S    
C90   I23   S    
C50   I15   S    
C25   C26   A    
C106  N16   T    
O9    Zn5   S    
O16   Zn5   S    
C12   O18   A    
C60   C61   A    
C56   C96   S    
C64   C66   A    
C6    I5    S    
C2    C4    S    
C43   C44   A    
C21   I9    S    
C4    C78   S    
C29   C30   A    
C2    C52   S    
C3    H9    S    
C31   C32   A    
C41   C46   A    
C7    H1    S    
C32   H5    S    
C62   C63   A    
C17   C18   A    
C71   I19   S    
C69   C74   A    
C11   C57   S    
C76   C77   A    
C55   C82   S    
C9    C11   A    
C97   N7    T    
C33   I8    S    
C12   O19   A    
C49   H6    S    
C59   O16   A    
C40   C41   A    
C51   C70   S    
C88   C90   A    
C60   C65   A    
C105  N15   T    
C34   O22   A    
O10   Zn6   S    
C92   N2    T    
O15   Zn6   S    
C22   C24   A    
C79   C80   A    
C83   C84   A    
C51   O2    A    
C42   C43   A    
C28   C29   A    
C23   O21   A    
C45   C89   S    
C95   N5    T    
C47   C98   S    
C44   C50   A    
C29   C35   A    
C101  N11   T    
C75   C76   A    
C19   C94   S    
C62   C100  S    
C86   C87   A    
C37   C97   S    
C28   C31   A    
C3    C67   S    
C80   C81   A    
O3    Zn3   S    
C61   I18   S    
C42   C59   S    
C53   C85   S    
C63   C101  S    
C57   O11   A    
C5    I4    S    
C6    C7    A    
C75   C81   A    
C25   C27   A    
C31   H4    S    
O7    Zn3   S    
C55   O9    A    
C32   C33   A    
O23   Zn2   S    
C2    C3    S    
O8    Zn4   S    
C71   C72   A    
C104  N14   T    
C2    C56   S    
C24   H3    S    
C56   C99   S    
C11   C13   A    
C38   C39   A    
C100  N10   T    
C20   C26   A    
C68   C71   A    
C48   C49   A    
C54   O7    A    
C64   C65   A    
C33   C35   A    
C91   N1    T    
C20   C95   S    
C35   I11   S    
C69   C70   A    
C75   C105  S    
C81   C85   A    
C39   I13   S    
C63   C64   A    
C39   C40   A    
C53   O6    A    
C5    C10   A    
C83   C86   A    
O5    Zn3   S    
C20   C21   A    
C36   C37   A    
C82   C83   A    
C13   C16   A    
C27   C28   A    
C58   O15   A    
C14   C15   A    
C108  N18   T    
C78   C108  S    
O1    Zn1   S    
C21   C22   A    
C43   C47   A    
C1    O12   A    
C94   N4    T    
O11   Zn5   S    
C26   C30   A    
