data_mof_unit_19653.cif
_audit_creation_date              2012-12-10T17:35:02-0500
_audit_creation_method            fapswitch 2.2
_symmetry_space_group_name_H-M    P1
_symmetry_Int_Tables_number       1
_space_group_crystal_system       triclinic
_cell_length_a                    12.362495
_cell_length_b                    13.065743
_cell_length_c                    13.82078
_cell_angle_alpha                 106.048313
_cell_angle_beta                  74.372941
_cell_angle_gamma                 116.730673
_cell_volume                      1888.57606996

loop_
_atom_site_label
_atom_site_type_symbol
_atom_type_description
_atom_site_fract_x
_atom_site_fract_y
_atom_site_fract_z
_atom_type_partial_charge
C1    C     C_R   0.144765 0.715295 0.511877 0.833696
C2    C     C_1   0.974655 0.505042 0.791157 -0.151745
C3    C     C_R   0.741574 0.962541 0.372009 0.169867
C4    C     C_R   0.775799 0.160946 0.461908 -0.081796
C5    C     C_R   0.194031 0.926120 0.598677 -0.076461
C6    C     C_R   0.284747 0.030964 0.641147 0.156787
C7    C     C_R   0.407333 0.041516 0.619295 0.142024
C8    C     C_R   0.445405 0.976259 0.525873 0.043795
C9    C     C_R   0.356092 0.873824 0.481508 0.006633
C10   C     C_R   0.569457 0.009464 0.476621 0.029797
C11   C     C_R   0.610355 0.929608 0.399933 0.059770
C12   C     C_R   0.983949 0.503543 0.686178 0.862805
C13   C     C_R   0.518139 0.828497 0.351592 0.124467
C14   C     C_R   0.393505 0.805941 0.392196 -0.147820
C15   C     C_R   0.650500 0.126098 0.494586 -0.215332
C16   C     C_R   0.821361 0.078181 0.405510 -0.212639
C17   C     C_R   0.230127 0.841266 0.526567 -0.190198
C18   C     C_R   0.674417 0.712515 0.625589 -0.095675
C19   C     C_R   0.242586 0.341363 0.370697 0.028314
C20   C     C_R   0.342826 0.311831 0.332075 -0.240249
C21   C     C_R   0.454465 0.379857 0.368195 0.015809
C22   C     C_R   0.461167 0.473519 0.452262 -0.098567
C23   C     C_R   0.856350 0.285303 0.483014 0.804312
C24   C     C_R   0.357561 0.504849 0.485738 0.175138
C25   C     C_R   0.564759 0.538122 0.506122 -0.044159
C26   C     C_R   0.578065 0.648703 0.567394 0.020831
C27   C     C_R   0.491376 0.690917 0.572080 -0.304065
C28   C     C_R   0.374036 0.611178 0.557002 0.054985
C29   C     C_R   0.652867 0.496555 0.505645 0.001226
C30   C     C_R   0.759220 0.666656 0.617848 0.071496
C31   C     C_R   0.015677 0.495779 0.313702 0.810998
C32   C     C_1   0.025215 0.492415 0.208233 -0.192677
C33   C     C_2   0.046088 0.483638 0.011702 0.176415
C34   C     C_2   0.963612 0.505255 0.983737 -0.206918
C35   C     C_1   0.968070 0.505714 0.879317 0.007362
C36   C     C_1   0.035181 0.488539 0.118795 0.011813
Cu1   Cu    Cu3+1 0.899780 0.525060 0.522890 0.943914
Cu2   Cu    Cu3+1 0.100220 0.474940 0.477110 0.943083
H1    H     H_    0.890818 0.523029 0.040236 0.147181
H2    H     H_    0.322906 0.735858 0.352756 0.165965
H3    H     H_    0.834664 0.713339 0.659931 0.184527
H4    H     H_    0.502810 0.777813 0.612366 0.169348
H5    H     H_    0.646120 0.411172 0.465497 0.134137
H6    H     H_    0.159335 0.290156 0.338392 0.135631
H7    H     H_    0.334951 0.239283 0.269000 0.181983
H8    H     H_    0.919987 0.105471 0.383894 0.142102
H9    H     H_    0.614475 0.191636 0.530450 0.156625
N1    N     N_R   0.748810 0.563010 0.557590 -0.203839
N2    N     N_R   0.250540 0.437620 0.443020 -0.203303
O1    O     O_R   0.025040 0.682470 0.528790 -0.602589
O2    O     O_R   0.194310 0.640150 0.490130 -0.557466
O3    O     O_R   0.903380 0.524130 0.659910 -0.566265
O4    O     O_R   0.072660 0.481800 0.621240 -0.593443
O5    O     O_R   0.805690 0.359850 0.509870 -0.589571
O6    O     O_R   0.974960 0.317530 0.471210 -0.591332
O7    O     O_R   0.927340 0.518200 0.378760 -0.575356
O8    O     O_R   0.096620 0.475870 0.340090 -0.587157
C37   C     C_2   0.684894 0.822598 0.699024 0.320378
H10   H     H_    0.604355 0.840047 0.736279 0.083419
O9    O     O_2   0.784298 0.894706 0.720729 -0.514018
C38   C     C_2   0.564953 0.362380 0.305518 0.328955
H11   H     H_    0.654727 0.434477 0.303978 0.075186
O10   O     O_2   0.556733 0.267888 0.253085 -0.539067
C39   C     C_2   0.288008 0.619627 0.652137 0.433890
H12   H     H_    0.248090 0.549750 0.695756 0.047175
O11   O     O_2   0.268832 0.707809 0.687293 -0.571441
C40   C     C_3   0.150912 0.461348 0.934696 -0.367722
C41   C     C_3   0.224598 0.422274 0.978392 -0.830624
H13   H     H_    0.269972 0.491428 0.040063 0.257482
H14   H     H_    0.163484 0.340903 0.009006 0.261668
H15   H     H_    0.296778 0.405061 0.917025 0.240202
H16   H     H_    0.113060 0.392349 0.869759 0.208190
H17   H     H_    0.214485 0.542395 0.904248 0.202664
C42   C     C_3   0.549805 0.754915 0.250080 -0.392968
C43   C     C_3   0.443527 0.666919 0.193751 -0.859428
H18   H     H_    0.379248 0.597714 0.238826 0.263824
H19   H     H_    0.393876 0.711299 0.177219 0.255005
H20   H     H_    0.480813 0.624099 0.119722 0.247803
H21   H     H_    0.613697 0.815033 0.196706 0.213379
H22   H     H_    0.593479 0.703183 0.262586 0.220542
C44   C     C_3   0.804439 0.880416 0.315979 -0.433332
C45   C     C_3   0.779339 0.790828 0.379198 -0.812089
H23   H     H_    0.815440 0.835501 0.451958 0.262747
H24   H     H_    0.679724 0.737908 0.396666 0.259357
H25   H     H_    0.825498 0.731833 0.336128 0.241048
H26   H     H_    0.783071 0.839181 0.238453 0.192767
H27   H     H_    0.905939 0.929301 0.301523 0.203493
C46   C     C_2   0.062561 0.901839 0.635403 0.388582
H28   H     H_    0.001283 0.873095 0.580924 0.087097
O12   O     O_2   0.021703 0.911449 0.726768 -0.506251
C47   C     C_3   0.486352 0.103452 0.703849 -0.399410
C48   C     C_3   0.533339 0.024280 0.727110 -0.792762
H29   H     H_    0.455471 0.941365 0.743781 0.271829
H30   H     H_    0.601123 0.005121 0.662179 0.252897
H31   H     H_    0.579563 0.068206 0.795032 0.249809
H32   H     H_    0.564205 0.185884 0.687900 0.194177
H33   H     H_    0.432074 0.128876 0.776606 0.212096
C49   C     C_3   0.253222 0.132717 0.706061 -0.365937
C50   C     C_3   0.332481 0.245291 0.663319 -0.886100
H34   H     H_    0.430577 0.275411 0.668222 0.251058
H35   H     H_    0.323696 0.231551 0.582287 0.264441
H36   H     H_    0.301468 0.314981 0.708135 0.246572
H37   H     H_    0.156814 0.116621 0.707854 0.242503
H38   H     H_    0.262752 0.146544 0.786698 0.206696

loop_
_geom_bond_atom_site_label_1
_geom_bond_atom_site_label_2
_ccdc_geom_bond_type
C2    C35   T    
C19   C20   A    
C18   C26   A    
C15   H9    S    
C9    C14   A    
C2    C12   S    
C44   C45   S    
C7    C8    A    
Cu2   N2    S    
C26   C27   A    
C32   C36   T    
C30   N1    A    
C34   C35   S    
C10   C15   A    
C5    C6    A    
C5    C17   A    
C37   O9    D    
C49   H37   S    
C33   C36   S    
C40   H16   S    
C38   O10   D    
C47   H32   S    
Cu1   O7    S    
C18   C37   S    
Cu2   O6    S    
C50   H34   S    
C8    C9    A    
C22   C25   A    
C3    C44   S    
C30   H3    S    
C18   C30   A    
C31   O7    A    
C1    O1    A    
C21   C38   S    
C12   O4    A    
C46   H28   S    
C42   H22   S    
C21   C22   A    
C29   H5    S    
C5    C46   S    
C12   O3    A    
C25   C29   A    
C42   C43   S    
C29   N1    A    
C40   C41   S    
C20   H7    S    
C16   H8    S    
C47   C48   S    
C4    C23   S    
C41   H13   S    
Cu2   O2    S    
C37   H10   S    
C48   H31   S    
C34   H1    S    
C39   O11   D    
C4    C16   A    
C43   H18   S    
Cu1   Cu2   S    
Cu2   O8    S    
C43   H19   S    
C19   N2    A    
C31   C32   S    
C7    C47   S    
C48   H30   S    
C33   C34   D    
C44   H26   S    
C47   H33   S    
Cu1   N1    S    
C1    O2    A    
C44   H27   S    
C40   H17   S    
Cu1   O5    S    
C28   C39   S    
C9    C17   A    
C50   H35   S    
C46   O12   D    
C49   C50   S    
C45   H24   S    
C42   H21   S    
C22   C24   A    
C6    C49   S    
C19   H6    S    
C33   C40   S    
C23   O5    A    
C24   N2    A    
Cu1   O3    S    
C24   C28   A    
C23   O6    A    
C6    C7    A    
C45   H25   S    
C1    C17   S    
C39   H12   S    
C31   O8    A    
C4    C15   A    
C25   C26   A    
Cu1   O1    S    
C11   C13   A    
C27   H4    S    
Cu2   O4    S    
C41   H15   S    
C49   H38   S    
C48   H29   S    
C38   H11   S    
C43   H20   S    
C3    C11   A    
C10   C11   A    
C14   H2    S    
C50   H36   S    
C20   C21   A    
C8    C10   A    
C45   H23   S    
C27   C28   A    
C41   H14   S    
C13   C14   A    
C3    C16   A    
C13   C42   S    
