data_mof_unit_60523.cif
_audit_creation_date              2012-12-10T19:19:59-0500
_audit_creation_method            fapswitch 2.2
_symmetry_space_group_name_H-M    P1
_symmetry_Int_Tables_number       1
_space_group_crystal_system       triclinic
_cell_length_a                    44.452186
_cell_length_b                    38.884537
_cell_length_c                    21.643272
_cell_angle_alpha                 89.999506
_cell_angle_beta                  61.160633
_cell_angle_gamma                 90.000056
_cell_volume                      32770.6394852

loop_
_atom_site_label
_atom_site_type_symbol
_atom_type_description
_atom_site_fract_x
_atom_site_fract_y
_atom_site_fract_z
_atom_type_partial_charge
C1    C     C_R   0.067214 0.499965 0.432799 0.864468
C2    C     C_R   0.932786 0.499965 0.567201 0.864472
C3    C     C_R   0.567214 0.999965 0.432799 0.864390
C4    C     C_R   0.432785 0.999965 0.567201 0.864377
C5    C     C_3   0.025273 0.562127 0.691534 -0.462741
C6    C     C_3   0.974730 0.562129 0.308461 -0.462739
C7    C     C_3   0.525359 0.062089 0.691447 -0.461727
C8    C     C_3   0.474591 0.062067 0.308601 -0.461753
C9    C     C_R   0.377072 0.500028 0.066261 -0.188413
C10   C     C_R   0.622928 0.500050 0.933740 -0.188411
C11   C     C_R   0.877073 0.000238 0.066261 -0.188315
C12   C     C_R   0.122928 0.000087 0.933739 -0.188312
C13   C     C_R   0.341387 0.499991 0.101732 -0.176223
C14   C     C_R   0.658612 0.500012 0.898268 -0.176226
C15   C     C_R   0.841389 0.000203 0.101730 -0.175985
C16   C     C_R   0.158612 0.000051 0.898269 -0.175991
C17   C     C_R   0.323421 0.499864 0.175640 0.115312
C18   C     C_R   0.676579 0.499863 0.824360 0.115319
C19   C     C_R   0.823422 0.999865 0.175635 0.115387
C20   C     C_R   0.176579 0.999866 0.824361 0.115379
C21   C     C_R   0.341487 0.499826 0.213745 -0.177253
C22   C     C_R   0.658513 0.499802 0.786256 -0.177253
C23   C     C_R   0.841487 0.999615 0.213740 -0.177139
C24   C     C_R   0.158513 0.999768 0.786256 -0.177143
C25   C     C_R   0.377161 0.499889 0.178329 -0.191030
C26   C     C_R   0.622838 0.499865 0.821672 -0.191033
C27   C     C_R   0.877162 0.999680 0.178326 -0.190849
C28   C     C_R   0.122838 0.999832 0.821671 -0.190847
C29   C     C_R   0.395198 0.499970 0.104337 -0.036733
C30   C     C_R   0.604802 0.499969 0.895663 -0.036730
C31   C     C_R   0.895198 0.999970 0.104337 -0.036635
C32   C     C_R   0.104802 0.999971 0.895663 -0.036647
C33   C     C_R   0.267934 0.477570 0.270377 -0.182761
C34   C     C_R   0.732066 0.477558 0.729644 -0.182757
C35   C     C_R   0.767694 0.022075 0.191948 -0.183010
C36   C     C_R   0.232064 0.977521 0.729719 -0.182436
C37   C     C_R   0.232260 0.477556 0.306059 -0.183041
C38   C     C_R   0.767739 0.477545 0.693961 -0.183038
C39   C     C_R   0.732013 0.022094 0.227694 -0.181077
C40   C     C_R   0.267738 0.977507 0.694037 -0.182988
C41   C     C_R   0.214118 0.499767 0.284814 0.105705
C42   C     C_R   0.785882 0.499766 0.715187 0.105714
C43   C     C_R   0.714119 0.999769 0.284808 0.105709
C44   C     C_R   0.285881 0.999767 0.715189 0.105683
C45   C     C_R   0.999689 0.499905 0.620441 0.902883
C46   C     C_R   0.000311 0.499906 0.379559 0.902883
C47   C     C_R   0.499689 0.999905 0.620441 0.902729
C48   C     C_R   0.500312 0.999906 0.379560 0.902724
C49   C     C_R   0.232010 0.521945 0.227433 -0.181149
C50   C     C_R   0.767990 0.521953 0.772550 -0.181148
C51   C     C_R   0.732262 0.977410 0.305782 -0.182971
C52   C     C_R   0.267989 0.021995 0.772479 -0.181078
C53   C     C_R   0.267691 0.521925 0.191682 -0.182923
C54   C     C_R   0.732309 0.521934 0.808299 -0.182921
C55   C     C_R   0.767935 0.977422 0.270098 -0.182430
C56   C     C_R   0.232308 0.021976 0.808230 -0.183017
C57   C     C_R   0.285830 0.499767 0.213035 0.105435
C58   C     C_R   0.714169 0.499765 0.786966 0.105440
C59   C     C_R   0.785832 0.999768 0.213028 0.105376
C60   C     C_R   0.214169 0.999768 0.786968 0.105368
C61   C     C_R   0.158469 0.468655 0.340361 -0.173789
C62   C     C_R   0.841532 0.468654 0.659640 -0.173787
C63   C     C_R   0.658465 0.968658 0.340095 -0.173664
C64   C     C_R   0.341532 0.968656 0.659736 -0.173678
C65   C     C_R   0.122793 0.468693 0.376350 -0.182824
C66   C     C_R   0.877207 0.468692 0.623650 -0.182824
C67   C     C_R   0.622791 0.968695 0.376092 -0.182747
C68   C     C_R   0.377207 0.968693 0.623745 -0.182761
C69   C     C_R   0.104759 0.499929 0.395038 -0.035919
C70   C     C_R   0.895241 0.499929 0.604962 -0.035917
C71   C     C_R   0.604758 0.999930 0.395038 -0.035998
C72   C     C_R   0.395241 0.999929 0.604962 -0.036006
C73   C     C_R   0.122881 0.531118 0.377236 -0.190894
C74   C     C_R   0.877120 0.531117 0.622764 -0.190893
C75   C     C_R   0.622880 0.031117 0.377493 -0.190722
C76   C     C_R   0.377119 0.031117 0.622671 -0.190724
C77   C     C_R   0.158561 0.531056 0.341197 -0.176924
C78   C     C_R   0.841440 0.531055 0.658802 -0.176922
C79   C     C_R   0.658560 0.031055 0.341460 -0.176899
C80   C     C_R   0.341439 0.031055 0.658708 -0.176906
C81   C     C_R   0.176529 0.499829 0.322600 0.114244
C82   C     C_R   0.823471 0.499828 0.677400 0.114254
C83   C     C_R   0.676529 0.999830 0.322597 0.114179
C84   C     C_R   0.323470 0.999829 0.677402 0.114157
C85   C     C_R   1.000000 0.432716 0.000000 0.828984
C86   C     C_R   0.500000 0.932716 0.000000 0.829031
C87   C     C_R   0.010231 0.526949 0.710064 0.145241
C88   C     C_R   0.989770 0.526950 0.289934 0.145239
C89   C     C_R   0.510267 0.026933 0.710027 0.144698
C90   C     C_R   0.489713 0.026924 0.289992 0.144673
C91   C     C_R   0.999878 0.499760 0.880394 0.869043
C92   C     C_R   0.000122 0.499760 0.119606 0.869043
C93   C     C_R   0.499878 0.999756 0.880394 0.869078
C94   C     C_R   0.500122 0.999754 0.119607 0.869076
C95   C     C_R   0.000000 0.567073 0.000000 0.859907
C96   C     C_R   0.500000 0.067073 1.000000 0.859797
C97   C     C_R   0.500000 0.432699 0.000000 0.866640
C98   C     C_R   0.000000 0.932699 0.000000 0.866741
C99   C     C_R   0.432749 0.499964 0.067082 0.867971
C100  C     C_R   0.567251 0.499964 0.932918 0.867974
C101  C     C_R   0.932749 0.999964 0.067082 0.868156
C102  C     C_R   0.067251 0.999964 0.932918 0.868154
C103  C     C_R   0.500000 0.567118 1.000000 0.869479
C104  C     C_R   1.000000 0.067118 1.000000 0.869445
C105  C     C_R   0.499495 0.622769 0.056586 -0.189228
C106  C     C_R   0.500504 0.622769 0.943413 -0.189224
C107  C     C_R   0.999378 0.122769 0.056698 -0.189309
C108  C     C_R   0.000621 0.122769 0.943301 -0.189336
C109  C     C_R   0.499472 0.658479 0.056582 -0.175848
C110  C     C_R   0.500527 0.658479 0.943417 -0.175847
C111  C     C_R   0.999353 0.158480 0.056696 -0.175924
C112  C     C_R   0.000646 0.158480 0.943303 -0.175925
C113  C     C_R   0.499999 0.676486 0.999999 0.115224
C114  C     C_R   0.999999 0.176487 0.999999 0.115252
C115  C     C_R   0.500000 0.604683 1.000000 -0.036830
C116  C     C_R   1.000000 0.104683 1.000000 -0.036769
C117  C     C_R   0.522705 0.732084 0.939054 -0.181318
C118  C     C_R   0.477293 0.732083 0.060943 -0.181317
C119  C     C_R   0.022810 0.232083 0.939152 -0.181392
C120  C     C_R   0.977188 0.232082 0.060845 -0.181393
C121  C     C_R   0.998765 0.499293 0.687167 -0.168735
C122  C     C_R   0.001235 0.499293 0.312832 -0.168737
C123  C     C_R   0.498763 0.999293 0.687168 -0.168469
C124  C     C_R   0.501239 0.999294 0.312831 -0.168437
C125  C     C_R   0.022834 0.267792 0.939175 -0.176865
C126  C     C_R   0.977164 0.267791 0.060823 -0.176863
C127  C     C_R   0.522728 0.767793 0.939076 -0.176803
C128  C     C_R   0.477270 0.767792 0.060922 -0.176815
C129  C     C_R   0.999999 0.285800 0.999999 0.105962
C130  C     C_R   0.499999 0.785800 0.999999 0.105906
C131  C     C_R   0.499999 0.714074 0.999999 0.104489
C132  C     C_R   0.999999 0.214073 0.999999 0.104497
C133  C     C_R   0.031124 0.341390 0.972022 -0.162850
C134  C     C_R   0.968875 0.341390 0.027977 -0.162849
C135  C     C_R   0.531132 0.841390 0.971741 -0.162857
C136  C     C_R   0.468867 0.841390 0.028257 -0.162854
C137  C     C_R   0.031136 0.377098 0.972038 -0.172885
C138  C     C_R   0.968863 0.377098 0.027962 -0.172885
C139  C     C_R   0.531144 0.877098 0.971760 -0.172931
C140  C     C_R   0.468855 0.877098 0.028239 -0.172934
C141  C     C_R   1.000000 0.395173 1.000000 -0.039411
C142  C     C_R   0.500000 0.895173 0.000000 -0.039396
C143  C     C_R   0.999999 0.323385 0.999999 0.111974
C144  C     C_R   0.499999 0.823385 0.999999 0.112032
C145  C     C_R   0.514249 0.377186 0.935951 -0.192056
C146  C     C_R   0.485752 0.377186 0.064049 -0.192055
C147  C     C_R   0.014288 0.877198 0.936063 -0.189613
C148  C     C_R   0.985712 0.877197 0.063938 -0.189631
C149  C     C_R   0.514585 0.341426 0.935966 -0.172904
C150  C     C_R   0.485416 0.341425 0.064034 -0.172903
C151  C     C_R   0.014627 0.841447 0.936013 -0.173236
C152  C     C_R   0.985374 0.841446 0.063988 -0.173235
C153  C     C_R   0.500001 0.323550 0.000000 0.107309
C154  C     C_R   0.000000 0.823230 0.000000 0.115599
C155  C     C_R   0.986872 0.469910 0.730687 -0.181276
C156  C     C_R   0.013126 0.469910 0.269315 -0.181274
C157  C     C_R   0.486832 0.969926 0.730723 -0.181148
C158  C     C_R   0.513192 0.969935 0.269257 -0.181165
C159  C     C_R   0.500000 0.395210 0.000000 -0.029605
C160  C     C_R   0.000000 0.895208 0.000000 -0.030201
C161  C     C_R   0.468880 0.268267 0.028401 -0.181665
C162  C     C_R   0.531122 0.268268 0.971599 -0.181667
C163  C     C_R   0.004824 0.767136 0.050650 -0.184096
C164  C     C_R   0.995177 0.767137 0.949352 -0.184094
C165  C     C_R   0.004460 0.731385 0.051049 -0.181768
C166  C     C_R   0.995541 0.731385 0.948952 -0.181768
C167  C     C_R   0.468865 0.232516 0.027762 -0.184474
C168  C     C_R   0.531136 0.232516 0.972237 -0.184471
C169  C     C_R   0.000001 0.713519 0.000001 0.099257
C170  C     C_R   0.500000 0.214296 0.999999 0.107107
C171  C     C_R   0.500001 0.286134 0.000000 0.098903
C172  C     C_R   0.000000 0.785357 0.000001 0.107846
C173  C     C_R   0.025964 0.658229 0.943182 -0.172149
C174  C     C_R   0.974037 0.658228 0.056819 -0.172149
C175  C     C_R   0.525916 0.158208 0.943177 -0.172577
C176  C     C_R   0.474085 0.158208 0.056822 -0.172579
C177  C     C_R   0.026194 0.622470 0.943544 -0.196711
C178  C     C_R   0.973807 0.622469 0.056456 -0.196713
C179  C     C_R   0.526112 0.122459 0.943585 -0.194312
C180  C     C_R   0.473888 0.122458 0.056415 -0.194320
C181  C     C_R   0.000000 0.604493 0.000000 -0.025793
C182  C     C_R   0.500000 0.104495 1.000000 -0.026386
C183  C     C_R   0.000001 0.676104 0.000001 0.106823
C184  C     C_R   0.500000 0.176424 0.999999 0.115108
C185  C     C_R   0.986955 0.469007 0.795690 -0.047438
C186  C     C_R   0.013043 0.469007 0.204313 -0.047439
C187  C     C_R   0.486915 0.969021 0.795725 -0.047434
C188  C     C_R   0.513108 0.969029 0.204255 -0.047420
C189  C     C_R   0.999524 0.498117 0.815549 -0.182469
C190  C     C_R   0.000476 0.498117 0.184451 -0.182466
C191  C     C_R   0.499524 0.998113 0.815547 -0.182341
C192  C     C_R   0.500477 0.998111 0.184453 -0.182373
C193  C     C_R   0.011014 0.526147 0.771034 0.134333
C194  C     C_R   0.988988 0.526148 0.228964 0.134332
C195  C     C_R   0.511052 0.026128 0.770995 0.133822
C196  C     C_R   0.488927 0.026117 0.229026 0.133846
C197  C     C_3   0.025846 0.561277 0.762132 -0.512568
C198  C     C_3   0.974157 0.561278 0.237864 -0.512568
C199  C     C_3   0.525934 0.061237 0.762043 -0.511539
C200  C     C_3   0.474016 0.061213 0.238006 -0.511491
H1    H     H_    0.977613 0.447880 0.714113 0.207506
H2    H     H_    0.022385 0.447879 0.285890 0.207508
H3    H     H_    0.477544 0.947908 0.714175 0.207469
H4    H     H_    0.522497 0.947926 0.285790 0.207446
H5    H     H_    0.390562 0.499934 0.208901 0.155713
H6    H     H_    0.609437 0.499891 0.791101 0.155713
H7    H     H_    0.890562 0.999553 0.208899 0.155625
H8    H     H_    0.109438 0.999830 0.791099 0.155632
H9    H     H_    0.218836 0.460475 0.350659 0.132606
H10   H     H_    0.781162 0.460456 0.649375 0.132599
H11   H     H_    0.718388 0.039311 0.210419 0.133173
H12   H     H_    0.281161 0.960386 0.649508 0.132682
H13   H     H_    0.218382 0.539046 0.209956 0.133202
H14   H     H_    0.781617 0.539062 0.790013 0.133194
H15   H     H_    0.718840 0.960214 0.350176 0.132664
H16   H     H_    0.281616 0.039136 0.789887 0.133202
H17   H     H_    0.281123 0.539441 0.147873 0.132714
H18   H     H_    0.718877 0.539458 0.852091 0.132708
H19   H     H_    0.781553 0.959809 0.286660 0.132243
H20   H     H_    0.218876 0.039531 0.851966 0.132663
H21   H     H_    0.171959 0.444304 0.325695 0.133237
H22   H     H_    0.828042 0.444302 0.674307 0.133229
H23   H     H_    0.671953 0.944309 0.325218 0.133369
H24   H     H_    0.328041 0.944305 0.674479 0.133385
H25   H     H_    0.109543 0.555554 0.391235 0.155550
H26   H     H_    0.890458 0.555554 0.608765 0.155550
H27   H     H_    0.609543 0.055551 0.391699 0.155729
H28   H     H_    0.390457 0.055553 0.608596 0.155739
H29   H     H_    0.172134 0.555368 0.328576 0.130831
H30   H     H_    0.827867 0.555367 0.671422 0.130823
H31   H     H_    0.672132 0.055365 0.329053 0.130861
H32   H     H_    0.327867 0.055367 0.671252 0.130888
H33   H     H_    0.499434 0.672047 0.100334 0.132880
H34   H     H_    0.500565 0.672047 0.899664 0.132882
H35   H     H_    0.999220 0.172048 0.100541 0.132840
H36   H     H_    0.000779 0.172049 0.899458 0.132836
H37   H     H_    0.540600 0.718525 0.891748 0.133502
H38   H     H_    0.459398 0.718524 0.108250 0.133499
H39   H     H_    0.040786 0.218522 0.891927 0.133465
H40   H     H_    0.959213 0.218520 0.108071 0.133466
H41   H     H_    0.040428 0.281354 0.891591 0.135143
H42   H     H_    0.959570 0.281353 0.108408 0.135144
H43   H     H_    0.540238 0.781355 0.891417 0.135201
H44   H     H_    0.459760 0.781354 0.108581 0.135192
H45   H     H_    0.055367 0.327822 0.950927 0.133376
H46   H     H_    0.944632 0.327822 0.049072 0.133375
H47   H     H_    0.555382 0.827822 0.950423 0.133383
H48   H     H_    0.444617 0.827822 0.049575 0.133379
H49   H     H_    0.055482 0.390492 0.950424 0.159622
H50   H     H_    0.944517 0.390492 0.049576 0.159623
H51   H     H_    0.555497 0.890491 0.949921 0.159631
H52   H     H_    0.444503 0.890491 0.050079 0.159624
H53   H     H_    0.525506 0.390738 0.886041 0.149769
H54   H     H_    0.474495 0.390737 0.113959 0.149770
H55   H     H_    0.025743 0.890764 0.886156 0.148923
H56   H     H_    0.974257 0.890763 0.113844 0.148910
H57   H     H_    0.525855 0.327668 0.886279 0.134850
H58   H     H_    0.474146 0.327667 0.113721 0.134851
H59   H     H_    0.026712 0.828121 0.885883 0.127514
H60   H     H_    0.973289 0.828120 0.114118 0.127509
H61   H     H_    0.444721 0.282032 0.050013 0.136658
H62   H     H_    0.555280 0.282033 0.949987 0.136659
H63   H     H_    0.009281 0.780456 0.089417 0.129939
H64   H     H_    0.990720 0.780456 0.910584 0.129941
H65   H     H_    0.008164 0.717619 0.090394 0.135793
H66   H     H_    0.991838 0.717620 0.909607 0.135794
H67   H     H_    0.444537 0.219196 0.048210 0.130423
H68   H     H_    0.555464 0.219196 0.951789 0.130424
H69   H     H_    0.046130 0.671984 0.899143 0.135279
H70   H     H_    0.953872 0.671983 0.100858 0.135279
H71   H     H_    0.545803 0.171532 0.898005 0.127897
H72   H     H_    0.454198 0.171531 0.101994 0.127898
H73   H     H_    0.007655 0.579659 0.801984 0.202273
H74   H     H_    0.992349 0.579660 0.198010 0.202273
H75   H     H_    0.507770 0.079644 0.801873 0.203003
H76   H     H_    0.492164 0.079636 0.198188 0.202988
H77   H     H_    0.052158 0.560916 0.755968 0.209110
H78   H     H_    0.947845 0.560919 0.244027 0.209109
H79   H     H_    0.552247 0.060838 0.755876 0.208926
H80   H     H_    0.447703 0.060792 0.244175 0.208931
H81   H     H_    0.051269 0.562089 0.644551 0.200353
H82   H     H_    0.948734 0.562091 0.355445 0.200354
H83   H     H_    0.551355 0.062014 0.644462 0.200246
H84   H     H_    0.448596 0.061969 0.355588 0.200248
H85   H     H_    0.327815 0.499647 0.071495 0.131690
H86   H     H_    0.672184 0.499687 0.928506 0.131687
H87   H     H_    0.827817 0.000030 0.071487 0.131662
H88   H     H_    0.172185 0.999756 0.928506 0.131668
H89   H     H_    0.327995 0.500133 0.270876 0.130843
H90   H     H_    0.672003 0.500091 0.729124 0.130839
H91   H     H_    0.827995 0.999754 0.270875 0.130766
H92   H     H_    0.172005 0.000028 0.729124 0.130772
O1    O     O_R   0.050900 0.528720 0.449120 -0.629312
O2    O     O_R   0.949100 0.528720 0.550880 -0.629314
O3    O     O_R   0.550900 0.028720 0.449120 -0.629164
O4    O     O_R   0.449100 0.028720 0.550880 -0.629166
O5    O     O_R   0.449070 0.499910 0.102620 -0.626687
O6    O     O_R   0.550930 0.499910 0.897380 -0.626687
O7    O     O_R   0.949070 0.999910 0.102620 -0.626721
O8    O     O_R   0.050930 0.999910 0.897380 -0.626724
O9    O     O_R   0.449060 0.499970 0.999190 -0.624044
O10   O     O_R   0.550940 0.499970 0.000810 -0.624045
O11   O     O_R   0.949060 0.999970 0.999190 -0.624069
O12   O     O_R   0.050940 0.999970 0.000810 -0.624069
O13   O     O_R   0.500010 0.550820 0.051820 -0.625051
O14   O     O_R   0.499990 0.550820 0.948180 -0.625046
O15   O     O_R   0.000010 0.050820 0.051820 -0.625075
O16   O     O_R   0.999990 0.050820 0.948180 -0.625105
O17   O     O_R   0.050870 0.471230 0.449150 -0.623238
O18   O     O_R   0.949130 0.471230 0.550850 -0.623239
O19   O     O_R   0.550870 0.971230 0.449150 -0.623267
O20   O     O_R   0.449130 0.971230 0.550850 -0.623258
O21   O     O_R   1.000000 0.528720 0.591610 -0.621362
O22   O     O_R   1.000000 0.528720 0.408390 -0.621361
O23   O     O_R   0.500000 0.028720 0.591610 -0.621227
O24   O     O_R   0.500000 0.028720 0.408390 -0.621207
O25   O     O_R   0.999960 0.471230 0.591650 -0.623653
O26   O     O_R   0.000040 0.471230 0.408350 -0.623653
O27   O     O_R   0.499960 0.971230 0.591650 -0.623662
O28   O     O_R   0.500040 0.971230 0.408350 -0.623679
O29   O     O_R   0.971240 0.449020 0.028740 -0.629158
O30   O     O_R   0.028760 0.449020 0.971260 -0.629158
O31   O     O_R   0.471240 0.949020 0.028740 -0.629174
O32   O     O_R   0.528760 0.949020 0.971260 -0.629176
O33   O     O_R   0.971230 0.499930 0.937140 -0.624353
O34   O     O_R   0.028770 0.499930 0.062860 -0.624355
O35   O     O_R   0.471230 0.999930 0.937140 -0.624334
O36   O     O_R   0.528770 0.999930 0.062860 -0.624337
O37   O     O_R   0.028710 0.499970 0.879680 -0.615885
O38   O     O_R   0.971290 0.499970 0.120320 -0.615885
O39   O     O_R   0.528710 0.999970 0.879680 -0.615933
O40   O     O_R   0.471290 0.999970 0.120320 -0.615933
O41   O     O_R   0.971230 0.550840 0.028760 -0.620488
O42   O     O_R   0.028770 0.550840 0.971240 -0.620488
O43   O     O_R   0.471230 0.050840 0.028760 -0.620537
O44   O     O_R   0.528770 0.050840 0.971240 -0.620530
O45   O     O_R   0.499940 0.449000 0.051660 -0.622306
O46   O     O_R   0.500060 0.449000 0.948340 -0.622311
O47   O     O_R   0.999940 0.949000 0.051660 -0.622376
O48   O     O_R   0.000060 0.949000 0.948340 -0.622345
Zn1   Zn    Zn3+2 1.000000 0.538360 0.500000 0.938796
Zn2   Zn    Zn3+2 0.500000 0.038360 0.500000 0.939905
Zn3   Zn    Zn3+2 1.000000 0.461590 0.500000 0.966849
Zn4   Zn    Zn3+2 0.500000 0.961590 0.500000 0.966988
Zn5   Zn    Zn3+2 0.961590 0.499920 0.038380 0.953506
Zn6   Zn    Zn3+2 0.038410 0.499920 0.961620 0.953503
Zn7   Zn    Zn3+2 0.461590 0.999920 0.038380 0.953297
Zn8   Zn    Zn3+2 0.538410 0.999920 0.961620 0.953320
Zn9   Zn    Zn3+2 0.499980 0.499890 0.069080 0.944688
Zn10  Zn    Zn3+2 0.500020 0.499890 0.930920 0.944688
Zn11  Zn    Zn3+2 0.999980 0.999890 0.069080 0.944388
Zn12  Zn    Zn3+2 0.000020 0.999890 0.930920 0.944388
H93   H     H_    0.281552 0.460072 0.287155 0.132012
H94   H     H_    0.718448 0.460051 0.712882 0.132006
H95   H     H_    0.781126 0.039708 0.148356 0.132653
H96   H     H_    0.218446 0.959985 0.713014 0.132249
H97   H     H_    0.109389 0.444290 0.389319 0.159961
H98   H     H_    0.890611 0.444289 0.610680 0.159961
H99   H     H_    0.609385 0.944294 0.388854 0.160041
H100  H     H_    0.390611 0.944291 0.610850 0.160031
H101  H     H_    0.499170 0.609384 0.100786 0.156695
H102  H     H_    0.500829 0.609384 0.899214 0.156697
H103  H     H_    0.998960 0.109384 0.100987 0.156635
H104  H     H_    0.001039 0.109385 0.899012 0.156627
C201  C     C_2   0.974928 0.437694 0.840539 0.417852
H105  H     H_    0.976494 0.435981 0.888896 0.065617
O49   O     O_2   0.963187 0.413220 0.823813 -0.571252
C202  C     C_2   0.025069 0.437693 0.159465 0.417850
H106  H     H_    0.023504 0.435981 0.111106 0.065618
O50   O     O_2   0.036807 0.413218 0.176195 -0.571252
C203  C     C_2   0.474851 0.937721 0.840609 0.417855
H107  H     H_    0.476426 0.936000 0.888956 0.065704
O51   O     O_2   0.463069 0.913267 0.823921 -0.571149
C204  C     C_2   0.525195 0.937738 0.159352 0.417851
H108  H     H_    0.523612 0.936010 0.111015 0.065727
O52   O     O_2   0.537004 0.913297 0.176013 -0.571157
H109  H     H_    0.046459 0.608863 0.899406 0.147140
H110  H     H_    0.953542 0.608862 0.100594 0.147140
H111  H     H_    0.546252 0.108838 0.899250 0.146193
H112  H     H_    0.453748 0.108837 0.100749 0.146194
H113  H     H_    0.006915 0.581186 0.690377 0.207209
H114  H     H_    0.993089 0.581187 0.309617 0.207208
H115  H     H_    0.507028 0.081175 0.690267 0.207802
H116  H     H_    0.492907 0.081169 0.309795 0.207814
H117  H     H_    0.390410 0.500014 0.009139 0.156500
H118  H     H_    0.609590 0.500055 0.990862 0.156500
H119  H     H_    0.890412 0.000395 0.009139 0.156414
H120  H     H_    0.109590 0.000120 0.990862 0.156415

loop_
_geom_bond_atom_site_label_1
_geom_bond_atom_site_label_2
_ccdc_geom_bond_type
C10   H118  S    
C133  C137  A    
O12   Zn11  S    
C55   C59   A    
C76   H28   S    
C136  C140  A    
C36   H96   S    
O34   Zn6   S    
O42   Zn6   S    
C135  C139  A    
C180  H112  S    
C31   C101  S    
O38   Zn5   S    
O1    Zn1   S    
C163  C165  A    
O18   Zn3   S    
C139  C142  A    
O9    Zn10  S    
C49   H13   S    
C187  C203  S    
C148  C160  A    
C149  C153  A    
C64   C84   A    
C137  C141  A    
C118  C131  A    
C134  C143  A    
C104  C116  S    
C98   O48   A    
C18   C58   S    
C162  C171  A    
C12   C16   A    
C103  O13   A    
C61   H21   S    
C124  C158  A    
C70   C74   A    
O7    Zn11  S    
C15   H87   S    
C86   O31   A    
C179  H111  S    
C40   C44   A    
C99   O9    A    
C117  H37   S    
C146  H54   S    
C3    O19   A    
C6    H82   S    
C122  C156  A    
C186  C202  S    
C168  H68   S    
C41   C49   A    
C202  H106  S    
C93   O35   A    
C148  H56   S    
C180  C182  A    
C54   H18   S    
C25   C29   A    
C133  C143  A    
C29   C99   S    
O2    Zn1   S    
C27   C31   A    
C28   C32   A    
C88   C122  A    
C5    H113  S    
C126  C129  A    
C45   C121  S    
C185  C201  S    
C186  C190  A    
C19   C23   A    
C63   H23   S    
O45   Zn9   S    
C10   C30   A    
C47   C123  S    
C16   C20   A    
O47   Zn11  S    
O31   Zn7   S    
C166  H66   S    
C163  C172  A    
C79   H31   S    
C13   H85   S    
C47   O27   A    
C128  H44   S    
C48   O28   A    
C97   C159  S    
C56   H20   S    
C7    H83   S    
C24   C28   A    
C176  C184  A    
C170  C184  S    
O6    Zn10  S    
C138  C141  A    
C55   H19   S    
C77   H29   S    
C106  C115  A    
C75   H27   S    
C68   H100  S    
C173  H69   S    
C66   C70   A    
O10   Zn9   S    
C49   C53   A    
C164  H64   S    
C147  H55   S    
C51   C55   A    
C125  C129  A    
C6    H114  S    
C34   C58   A    
C73   C77   A    
C46   C122  S    
C106  H102  S    
C201  H105  S    
C75   C79   A    
C134  H46   S    
C109  H33   S    
C199  H75   S    
O46   Zn10  S    
C43   C83   S    
C112  C114  A    
C151  H59   S    
O29   Zn5   S    
C91   C189  S    
C136  H48   S    
C64   C68   A    
C101  O7    A    
C23   H91   S    
C102  O8    A    
C145  C159  A    
C35   H95   S    
C89   C195  A    
C30   C100  S    
C6    C88   S    
O48   Zn12  S    
O4    Zn2   S    
O19   Zn4   S    
C204  H108  S    
C9    C13   A    
C11   H119  S    
C126  H42   S    
C9    H117  S    
C130  C144  S    
C197  H77   S    
C44   C52   A    
C146  C150  A    
C91   O37   A    
C11   C15   A    
C80   H32   S    
C147  C160  A    
C195  C199  S    
C53   H17   S    
C104  O15   A    
C62   C66   A    
C154  C172  S    
C135  H47   S    
C127  H43   S    
C87   C193  A    
C155  C185  A    
C85   C141  S    
C107  H103  S    
C95   C181  S    
C5    C197  S    
C123  C157  A    
C19   C59   S    
C65   H97   S    
O44   Zn8   S    
C147  C151  A    
C188  C204  S    
C99   O5    A    
C61   C65   A    
C66   H98   S    
C45   O21   A    
C38   H10   S    
C149  H57   S    
C161  C167  A    
O39   Zn8   S    
C42   C50   A    
C162  C168  A    
C98   C160  S    
C26   C30   A    
C22   C26   A    
C164  C172  A    
C91   O33   A    
O22   Zn1   S    
C21   C25   A    
C96   O43   A    
C18   C22   A    
C107  C111  A    
C105  C115  A    
C148  C152  A    
C152  C154  A    
C138  H50   S    
C158  C188  A    
C185  C189  A    
C156  C186  A    
C1    O1    A    
C188  C192  A    
C177  H109  S    
O23   Zn2   S    
C3    O3    A    
C74   H26   S    
C61   C81   A    
C119  H39   S    
C194  C198  S    
C14   H86   S    
C177  C181  A    
O21   Zn1   S    
C48   O24   A    
C62   H22   S    
C37   C41   A    
C117  C131  A    
C191  C195  A    
C107  C116  A    
C8    C200  S    
C10   C14   A    
C5    C87   S    
C189  C193  A    
C176  C180  A    
C90   C196  A    
C17   C57   S    
C86   O32   A    
C155  H1    S    
C133  H45   S    
C140  H52   S    
C80   C84   A    
C95   O42   A    
C202  O50   D    
C174  H70   S    
C26   H6    S    
C15   C19   A    
O41   Zn5   S    
C50   C54   A    
C97   O45   A    
C192  C196  A    
C140  C142  A    
O37   Zn6   S    
C161  H61   S    
C54   C58   A    
C8    H84   S    
C120  C126  A    
O20   Zn4   S    
C162  H62   S    
C203  H107  S    
C52   H16   S    
C64   H24   S    
C35   C59   A    
C45   O25   A    
C14   C18   A    
C105  C109  A    
C34   H94   S    
C199  H79   S    
C200  H80   S    
C150  C153  A    
C111  H35   S    
C69   C73   A    
C157  H3    S    
C20   C60   S    
C174  C178  A    
O43   Zn7   S    
C178  H110  S    
C72   C76   A    
C179  C182  A    
C118  H38   S    
C168  C170  A    
C62   C82   A    
C34   C38   A    
C165  C169  A    
C145  H53   S    
C25   H5    S    
C92   C190  S    
C33   H93   S    
C93   C191  S    
C94   O40   A    
C76   C80   A    
C87   C121  A    
C53   C57   A    
C112  H36   S    
C1    C69   S    
C108  C112  A    
C63   C83   A    
C68   C72   A    
C3    C71   S    
C95   O41   A    
C197  H73   S    
C98   O47   A    
C198  H78   S    
C77   C81   A    
C103  O14   A    
C41   C81   S    
C67   H99   S    
C117  C127  A    
C24   H92   S    
C120  H40   S    
C119  C125  A    
C175  C179  A    
C21   H89   S    
C97   O46   A    
C46   O22   A    
C100  O6    A    
C4    C72   S    
C86   C142  S    
C33   C37   A    
C51   H15   S    
C1    O17   A    
O24   Zn2   S    
C121  C155  A    
C90   C124  A    
C8    H116  S    
C96   C182  S    
C44   C84   S    
C128  C130  A    
C174  C183  A    
C137  H49   S    
C129  C143  S    
C13   C17   A    
C78   H30   S    
C40   H12   S    
C7    H115  S    
C108  C116  A    
C136  C144  A    
C4    O20   A    
C79   C83   A    
C43   C51   A    
C65   C69   A    
O32   Zn8   S    
C111  C114  A    
C67   C71   A    
C17   C21   A    
C85   O30   A    
C178  C181  A    
C56   C60   A    
C173  C183  A    
C48   C124  S    
C74   C78   A    
C2    C70   S    
C105  H101  S    
C145  C149  A    
C110  H34   S    
O15   Zn11  S    
C175  C184  A    
C71   C75   A    
O27   Zn4   S    
C158  H4    S    
C2    O2    A    
C103  C115  S    
C42   C82   S    
C196  C200  S    
C156  H2    S    
O30   Zn6   S    
C104  O16   A    
C5    H81   S    
C38   C42   A    
C201  O49   D    
O36   Zn8   S    
C93   O39   A    
C193  C197  S    
C50   H14   S    
C7    C89   S    
C151  C154  A    
C78   C82   A    
C169  C183  S    
C12   H120  S    
O5    Zn9   S    
C20   C24   A    
C203  O51   D    
O11   Zn12  S    
O16   Zn12  S    
C23   C27   A    
C16   H88   S    
O25   Zn3   S    
C187  C191  A    
C9    C29   A    
C11   C31   A    
C165  H65   S    
C12   C32   A    
C100  O10   A    
C118  C128  A    
O33   Zn5   S    
C167  C170  A    
C167  H67   S    
C63   C67   A    
C96   O44   A    
C47   O23   A    
C88   C194  A    
C36   C40   A    
C6    C198  S    
O14   Zn10  S    
C39   C43   A    
C146  C159  A    
C89   C123  A    
C200  H76   S    
C161  C171  A    
O8    Zn12  S    
C152  H60   S    
C173  C177  A    
C85   O29   A    
C153  C171  S    
C119  C132  A    
C39   H11   S    
O17   Zn3   S    
C125  H41   S    
C110  C113  A    
C37   H9    S    
C92   O34   A    
C135  C144  A    
C46   O26   A    
C94   O36   A    
C32   C102  S    
C8    C90   S    
C175  H71   S    
C176  H72   S    
C106  C110  A    
C33   C57   A    
C113  C131  S    
C120  C132  A    
C114  C132  S    
C139  H51   S    
C4    O4    A    
C36   C60   A    
C134  C138  A    
C108  H104  S    
C198  H74   S    
C109  C113  A    
O26   Zn3   S    
O3    Zn2   S    
O13   Zn9   S    
C164  C166  A    
C127  C130  A    
C150  H58   S    
C73   H25   S    
C28   H8    S    
C35   C39   A    
C204  O52   D    
C27   H7    S    
C7    C199  S    
C22   H90   S    
C94   C192  S    
C101  O11   A    
C190  C194  A    
O40   Zn7   S    
C102  O12   A    
O35   Zn7   S    
C166  C169  A    
C2    O18   A    
C163  H63   S    
C157  C187  A    
C92   O38   A    
O28   Zn4   S    
C52   C56   A    
