data_mof_unit_5257.cif
_audit_creation_date              2012-10-26T21:12:34-0400
_audit_creation_method            fapswitch 2.2
_symmetry_space_group_name_H-M    P1
_symmetry_Int_Tables_number       1
_space_group_crystal_system       triclinic
_cell_length_a                    23.531714
_cell_length_b                    10.853673
_cell_length_c                    9.579925
_cell_angle_alpha                 90.474336
_cell_angle_beta                  90.124168
_cell_angle_gamma                 92.966987
_cell_volume                      2443.39399275

loop_
_atom_site_label
_atom_site_type_symbol
_atom_type_description
_atom_site_fract_x
_atom_site_fract_y
_atom_site_fract_z
_atom_type_partial_charge
Br1   Br    Br    0.054471 0.141342 0.349351 -0.262165
Br2   Br    Br    0.663337 0.858096 0.174974 -0.357428
Br3   Br    Br    0.069249 0.873776 0.654986 -0.253921
Br4   Br    Br    0.198866 0.647795 0.246353 -0.275518
Br5   Br    Br    0.340577 0.665101 0.249752 -0.379186
C1    C     C_R   0.504540 0.263265 0.500010 0.564122
C2    C     C_R   0.122444 0.610906 0.550204 0.460535
C3    C     C_R   0.239942 0.570235 0.392960 0.246621
C4    C     C_R   0.391144 0.503645 0.499616 0.587868
C5    C     C_R   0.299782 0.571527 0.391914 0.159483
C6    C     C_R   0.328719 0.509727 0.498530 -0.020032
C7    C     C_R   0.297386 0.452121 0.606381 -0.146691
C8    C     C_R   0.238333 0.452686 0.607720 -0.073234
C9    C     C_R   0.209456 0.510734 0.501328 0.199817
C10   C     C_R   0.762592 0.465558 0.612286 -0.045253
C11   C     C_R   0.703285 0.461660 0.617791 0.211253
C12   C     C_R   0.965750 0.297656 0.407036 -0.069190
C13   C     C_R   0.671850 0.499105 0.500495 -0.029340
C14   C     C_R   0.701368 0.538246 0.379776 -0.113876
C15   C     C_R   0.760663 0.541746 0.375350 0.302708
C16   C     C_R   0.497255 0.737707 0.501801 0.540542
C17   C     C_R   0.791354 0.505443 0.492176 0.193300
C18   C     C_R   0.543570 0.125878 0.748182 -0.014320
C19   C     C_R   0.539991 0.069457 0.878147 0.270281
C20   C     C_R   0.512017 0.954196 0.890088 -0.086504
C21   C     C_R   0.493231 0.890167 0.770412 -0.130623
C22   C     C_R   0.502403 0.940762 0.635562 0.015324
C23   C     C_R   0.024897 0.295303 0.409431 0.183728
C24   C     C_R   0.519217 0.066879 0.628114 -0.003321
C25   C     C_R   0.509955 0.129749 0.501638 0.010706
C26   C     C_R   0.497955 0.062736 0.378832 -0.097718
C27   C     C_R   0.493459 0.935413 0.381017 -0.107114
C28   C     C_R   0.609055 0.498855 0.500368 0.556660
C29   C     C_R   0.495441 0.872529 0.507882 0.017216
C30   C     C_R   0.575776 0.665019 0.145809 -0.074629
C31   C     C_R   0.612931 0.745493 0.074391 0.139953
C32   C     C_R   0.613267 0.744432 0.930453 -0.097415
C33   C     C_R   0.576165 0.663869 0.857364 -0.097032
C34   C     C_R   0.058358 0.401080 0.455119 0.036954
C35   C     C_R   0.537347 0.580869 0.925908 0.123710
C36   C     C_R   0.537257 0.581067 0.075579 0.123495
C37   C     C_R   0.464896 0.422468 0.074035 0.092156
C38   C     C_R   0.464772 0.421960 0.926465 0.355579
C39   C     C_R   0.882683 0.610895 0.534927 0.451339
C40   C     C_R   0.878545 0.404336 0.447275 0.448122
C41   C     C_R   0.938159 0.402585 0.449303 0.006741
C42   C     C_R   0.970441 0.507878 0.495727 -0.040778
C43   C     C_R   0.942382 0.613111 0.538702 0.008443
C44   C     C_R   0.030601 0.507851 0.499422 -0.078945
C45   C     C_R   0.062629 0.614559 0.547495 0.038175
C46   C     C_R   0.033430 0.720145 0.590002 0.189078
C47   C     C_R   0.974195 0.717893 0.584994 -0.064595
C48   C     C_R   0.118360 0.405379 0.457600 0.447680
Cl1   Cl    Cl    0.671409 0.404238 0.772248 -0.504176
Cl2   Cl    Cl    0.795752 0.592036 0.222619 -0.429569
Cl3   Cl    Cl    0.567984 0.146400 0.026810 -0.528344
Cl4   Cl    Cl    0.417387 0.315121 0.842826 -0.559741
Cu1   Cu    Cu3+1 0.500000 0.499990 0.640660 1.041858
Cu2   Cu    Cu3+1 0.500000 0.500010 0.359340 1.016701
H1    H     H_    0.941254 0.215931 0.371845 0.205665
H2    H     H_    0.642065 0.807252 0.874328 0.181991
H3    H     H_    0.579450 0.671895 0.747379 0.189129
H4    H     H_    0.952992 0.799476 0.617875 0.204092
H5    H     H_    0.318576 0.404892 0.689098 0.206334
H6    H     H_    0.214774 0.407105 0.691259 0.176391
H7    H     H_    0.786709 0.436595 0.701597 0.187665
H8    H     H_    0.678452 0.567268 0.288648 0.185304
H9    H     H_    0.491680 0.108674 0.280496 0.188518
H10   H     H_    0.566105 0.215002 0.742410 0.204465
H11   H     H_    0.505828 0.912721 0.991737 0.142698
H12   H     H_    0.469589 0.803946 0.787415 0.170011
H13   H     H_    0.487108 0.886270 0.282841 0.160169
H14   H     H_    0.436292 0.359093 0.129775 0.159690
H15   H     H_    0.579266 0.672424 0.255881 0.189966
N1    N     N_R   0.852243 0.507452 0.489878 -0.378553
N2    N     N_R   0.148431 0.508764 0.503744 -0.405371
N3    N     N_R   0.500540 0.501210 0.147910 -0.262310
N4    N     N_R   0.500560 0.501290 0.852040 -0.234035
O1    O     O_R   0.500000 0.319640 0.618810 -0.462680
O2    O     O_R   0.582120 0.500020 0.618760 -0.476822
O3    O     O_R   0.582120 0.500050 0.381190 -0.521382
O4    O     O_2   0.855191 0.710934 0.576371 -0.430423
O5    O     O_2   0.847035 0.303826 0.403658 -0.425480
O6    O     O_2   0.147129 0.308384 0.413359 -0.382878
O7    O     O_2   0.155064 0.707840 0.598138 -0.373341
O8    O     O_R   0.500000 0.319660 0.381240 -0.495143
O9    O     O_R   0.417880 0.499950 0.618810 -0.458363
O10   O     O_R   0.417880 0.499980 0.381240 -0.467765
O11   O     O_R   0.500000 0.680340 0.618760 -0.555882
O12   O     O_R   0.500000 0.680360 0.381190 -0.521153

loop_
_geom_bond_atom_site_label_1
_geom_bond_atom_site_label_2
_ccdc_geom_bond_type
C30   H15   S    
C22   C24   A    
C18   H10   S    
C14   C15   A    
Br4   C3    S    
Cu1   O9    S    
Cu2   N3    S    
C42   C44   A    
C8    H6    S    
C40   C41   A    
C38   N4    A    
C21   C22   A    
C32   C33   A    
C48   O6    S    
C18   C24   A    
C31   C32   A    
C39   O4    S    
C4    O10   A    
C36   N3    A    
C25   C26   A    
C7    H5    S    
C10   C11   A    
C13   C14   A    
Cu2   O10   S    
C10   C17   A    
C42   C43   A    
Br1   C23   S    
C18   C19   A    
C14   H8    S    
Cu1   O2    S    
C8    C9    A    
C21   H12   S    
C40   O5    S    
Cu1   N4    S    
C17   N1    S    
C15   Cl2   S    
Cu1   O11   S    
C16   O12   A    
C22   C29   A    
C26   H9    S    
C46   C47   A    
C12   C41   A    
C27   H13   S    
Br3   C46   S    
C16   O11   A    
C16   C29   S    
C23   C34   A    
C20   C21   A    
C2    O7    S    
C10   H7    S    
C30   C31   A    
C27   C29   A    
C39   N1    A    
C24   C25   A    
C26   C27   A    
C45   C46   A    
C19   C20   A    
C4    C6    S    
Cu1   O1    S    
C11   C13   A    
C35   C36   A    
C1    C25   S    
C15   C17   A    
C35   N4    A    
C48   N2    A    
C37   C38   A    
Br2   C31   S    
C41   C42   A    
C37   H14   S    
C3    C9    A    
C34   C44   A    
C12   C23   A    
Cu2   O3    S    
C2    C45   A    
C47   H4    S    
C32   H2    S    
C6    C7    A    
C28   O2    A    
C2    N2    A    
C19   Cl3   S    
C1    O8    A    
C40   N1    A    
Cu1   Cu2   S    
Cu2   O8    S    
Br5   C5    S    
C4    O9    A    
C33   C35   A    
C1    O1    A    
C34   C48   A    
C30   C36   A    
C13   C28   S    
C11   Cl1   S    
C5    C6    A    
C38   Cl4   S    
C12   H1    S    
C43   C47   A    
C7    C8    A    
C37   N3    A    
C3    C5    A    
C44   C45   A    
C20   H11   S    
C28   O3    A    
Cu2   O12   S    
C39   C43   A    
C9    N2    S    
C33   H3    S    
