data_mof_unit_56878.cif
_audit_creation_date              2012-10-26T20:18:21-0400
_audit_creation_method            fapswitch 2.2
_symmetry_space_group_name_H-M    P1
_symmetry_Int_Tables_number       1
_space_group_crystal_system       triclinic
_cell_length_a                    23.582694
_cell_length_b                    8.84742
_cell_length_c                    7.450957
_cell_angle_alpha                 103.050238
_cell_angle_beta                  94.039968
_cell_angle_gamma                 91.232164
_cell_volume                      1509.57730751

loop_
_atom_site_label
_atom_site_type_symbol
_atom_type_description
_atom_site_fract_x
_atom_site_fract_y
_atom_site_fract_z
_atom_type_partial_charge
C1    C     C_R   0.498595 0.200864 0.454318 0.567705
C2    C     C_R   0.705160 0.604029 0.654880 0.073721
C3    C     C_R   0.234304 0.391623 0.349410 0.108745
C4    C     C_R   0.765087 0.607741 0.657958 0.108268
C5    C     C_R   0.208299 0.462162 0.509821 0.265637
C6    C     C_R   0.791916 0.534899 0.500155 0.268873
C7    C     C_2   0.497217 0.034907 0.427489 0.095247
C8    C     C_2   0.503150 0.965066 0.572369 0.095284
C9    C     C_R   0.390876 0.494794 0.502360 0.572308
C10   C     C_R   0.609109 0.505792 0.497862 0.572546
C11   C     C_R   0.887220 0.656077 0.555597 0.437647
C12   C     C_R   0.501529 0.799129 0.545645 0.568233
C13   C     C_R   0.113452 0.337934 0.461179 0.431373
C14   C     C_R   0.875967 0.380670 0.465572 0.422647
C15   C     C_R   0.123714 0.613355 0.551253 0.437852
C16   C     C_R   0.934720 0.366836 0.445550 0.001962
C17   C     C_R   0.065222 0.625095 0.575405 0.019445
C18   C     C_R   0.970396 0.501185 0.512157 -0.092360
C19   C     C_R   0.029748 0.490777 0.509164 -0.099400
C20   C     C_R   0.946587 0.646184 0.581360 0.010216
C21   C     C_R   0.053837 0.346342 0.439138 -0.001756
C22   C     C_R   0.958620 0.226104 0.355658 0.106496
C23   C     C_R   0.241802 0.530746 0.672476 0.116451
C24   C     C_R   0.042127 0.765021 0.669117 0.109029
C25   C     C_R   0.017939 0.216239 0.350700 0.167899
C26   C     C_R   0.982359 0.775830 0.673027 0.139780
C27   C     C_3   0.042213 0.943315 0.298810 -0.236697
C28   C     C_3   0.956039 0.050095 0.737924 -0.270608
C29   C     C_3   0.344783 0.782958 0.850705 -0.284230
C30   C     C_3   0.655028 0.219859 0.149494 -0.282885
C31   C     C_3   0.340226 0.166602 0.198961 -0.282987
C32   C     C_3   0.659166 0.838012 0.795153 -0.284656
C33   C     C_3   0.541689 0.920175 0.150505 -0.287484
C34   C     C_R   0.759161 0.466827 0.335573 0.117357
C35   C     C_3   0.459035 0.079397 0.850106 -0.287853
C36   C     C_R   0.301470 0.541998 0.671369 0.073940
C37   C     C_R   0.699310 0.458223 0.332490 0.072288
C38   C     C_R   0.327982 0.479424 0.507146 0.008880
C39   C     C_R   0.672023 0.521819 0.494688 0.008518
C40   C     C_R   0.294165 0.397747 0.348108 0.073324
Cu1   Cu    Cu3+1 0.506340 0.517380 0.684380 0.942712
Cu2   Cu    Cu3+1 0.493660 0.482620 0.315620 0.941443
H1    H     H_    0.449200 0.404041 0.955645 0.244844
H2    H     H_    0.070759 0.961707 0.427180 0.219949
H3    H     H_    0.925861 0.879552 0.866977 0.298901
H4    H     H_    0.967377 0.147148 0.859283 0.159478
H5    H     H_    0.912109 0.065549 0.683185 0.204637
H6    H     H_    0.985852 0.056365 0.631264 0.147864
H7    H     H_    0.222332 0.712122 0.877128 0.259141
H8    H     H_    0.230507 0.542770 0.942754 0.207853
H9    H     H_    0.772930 0.452111 0.066250 0.209872
H10   H     H_    0.778756 0.283093 0.134187 0.255412
H11   H     H_    0.323268 0.592716 0.955333 0.252892
H12   H     H_    0.550821 0.595843 0.044319 0.244948
H13   H     H_    0.373345 0.830383 0.976370 0.124747
H14   H     H_    0.304448 0.845280 0.863747 0.135293
H15   H     H_    0.364844 0.802983 0.727209 0.155010
H16   H     H_    0.679381 0.409295 0.047695 0.251704
H17   H     H_    0.626023 0.175165 0.024172 0.126607
H18   H     H_    0.634790 0.200320 0.272902 0.155186
H19   H     H_    0.694723 0.154729 0.134936 0.130741
H20   H     H_    0.299194 0.319330 0.063580 0.242854
H21   H     H_    0.303640 0.086244 0.201894 0.134466
H22   H     H_    0.369596 0.174060 0.324165 0.159698
H23   H     H_    0.894551 0.134569 0.160352 0.262040
H24   H     H_    0.363554 0.118864 0.075930 0.124938
H25   H     H_    0.698271 0.687357 0.938063 0.242058
H26   H     H_    0.696259 0.916986 0.793164 0.133744
H27   H     H_    0.635003 0.888341 0.915300 0.125559
H28   H     H_    0.630774 0.828984 0.667446 0.158327
H29   H     H_    0.211214 0.195589 0.154130 0.255533
H30   H     H_    0.204758 0.362362 0.079885 0.223046
H31   H     H_    0.791938 0.638697 0.929888 0.219056
H32   H     H_    0.788196 0.804204 0.852222 0.253244
H33   H     H_    0.456446 0.869616 0.201482 0.269294
H34   H     H_    0.902657 0.043775 0.340826 0.280433
H35   H     H_    0.532308 0.849060 0.009968 0.200535
H36   H     H_    0.571565 0.859082 0.229278 0.131775
H37   H     H_    0.561699 0.030557 0.138349 0.150974
H38   H     H_    0.544076 0.130627 0.797751 0.268723
H39   H     H_    0.468542 0.151021 0.990263 0.200584
H40   H     H_    0.439327 0.968891 0.863134 0.152729
H41   H     H_    0.428867 0.139827 0.771460 0.131678
H42   H     H_    0.099681 0.849647 0.884438 0.244510
H43   H     H_    0.059517 0.988605 0.830295 0.254580
H44   H     H_    0.075103 0.106215 0.165534 0.278744
H45   H     H_    0.058973 0.849152 0.193123 0.143760
H46   H     H_    0.999221 0.904766 0.325687 0.168469
N1    N     N_R   0.853065 0.524160 0.508059 -0.346274
N2    N     N_3   0.787883 0.402440 0.173538 -0.598423
N3    N     N_2   0.334775 0.618770 0.834615 -0.491002
N4    N     N_2   0.666572 0.383615 0.167146 -0.491872
N5    N     N_2   0.320553 0.318450 0.188799 -0.500384
N6    N     N_2   0.677986 0.686621 0.810792 -0.499638
N7    N     N_3   0.199139 0.310803 0.190054 -0.590573
N8    N     N_3   0.799469 0.688162 0.819346 -0.589862
N9    N     N_2   0.489551 0.951005 0.239885 -0.534960
N10   N     N_2   0.511042 0.048981 0.759902 -0.535153
N11   N     N_R   0.147144 0.470799 0.506327 -0.355504
N12   N     N_2   0.484110 0.456420 0.038520 -0.262647
N13   N     N_2   0.515890 0.543580 0.961480 -0.262164
N14   N     N_3   0.923782 0.096427 0.251078 -0.596848
N15   N     N_3   0.080259 0.888487 0.773476 -0.562587
N16   N     N_2   0.039857 0.084268 0.231307 -0.475635
N17   N     N_2   0.959394 0.904433 0.795355 -0.490314
N18   N     N_3   0.213998 0.592444 0.837279 -0.598771
O1    O     O_R   0.504120 0.286130 0.619770 -0.520928
O2    O     O_2   0.137636 0.199160 0.443305 -0.485389
O3    O     O_2   0.841751 0.252847 0.444571 -0.520988
O4    O     O_2   0.157028 0.742930 0.570977 -0.465149
O5    O     O_R   0.495880 0.713870 0.380230 -0.520975
O6    O     O_R   0.493410 0.256770 0.308360 -0.503715
O7    O     O_R   0.506590 0.743230 0.691640 -0.502447
O8    O     O_R   0.423230 0.514630 0.655730 -0.482713
O9    O     O_R   0.576770 0.485370 0.344270 -0.483511
O10   O     O_R   0.412530 0.485280 0.344320 -0.476921
O11   O     O_R   0.587470 0.514720 0.655680 -0.476463
O12   O     O_2   0.863788 0.795686 0.572055 -0.499531

loop_
_geom_bond_atom_site_label_1
_geom_bond_atom_site_label_2
_ccdc_geom_bond_type
C14   O3    S    
C32   N6    S    
C28   H5    S    
C31   H24   S    
C34   C37   A    
Cu1   Cu2   S    
H12   N13   S    
H10   N2    S    
Cu1   O8    S    
H44   N16   S    
C35   H39   S    
C7    C8    D    
C28   H4    S    
C9    O8    A    
C19   C21   A    
C24   C26   A    
H9    N2    S    
C33   H36   S    
H29   N7    S    
C27   N16   S    
H33   N9    S    
C18   C19   A    
Cu2   O6    S    
N12   N13   D    
C8    N10   S    
C4    N8    S    
H30   N7    S    
C27   H2    S    
C5    N11   S    
C22   C25   A    
C30   H18   S    
H11   N3    S    
H25   N6    S    
C1    O6    A    
C35   N10   S    
Cu1   O1    S    
C40   N5    S    
C18   C20   A    
H43   N15   S    
C32   H26   S    
C15   O4    S    
H23   N14   S    
C13   O2    S    
C2    C39   A    
C26   N17   S    
C35   H40   S    
H3    N17   S    
H34   N14   S    
C11   C20   A    
C17   C24   A    
H32   N8    S    
C2    N6    S    
H1    N12   S    
C30   N4    S    
C15   N11   A    
C35   H41   S    
C33   H37   S    
C32   H28   S    
C29   H13   S    
C31   N5    S    
C23   N18   S    
C6    C34   A    
C10   C39   S    
C13   N11   A    
C2    C4    A    
Cu2   O5    S    
C34   N2    S    
C14   N1    A    
Cu2   N12   S    
C11   N1    A    
C5    C23   A    
C28   N17   S    
C8    C12   S    
C30   H17   S    
C13   C21   A    
C27   H45   S    
C32   H27   S    
C1    O1    A    
C36   N3    S    
C4    C6    A    
C29   H15   S    
C3    C40   A    
C14   C16   A    
H20   N5    S    
C6    N1    S    
C29   N3    S    
C12   O7    A    
Cu2   O10   S    
C15   C17   A    
C21   C25   A    
C28   H6    S    
C16   C22   A    
C7    N9    S    
C37   N4    S    
H38   N10   S    
C1    C7    S    
C9    O10   A    
C31   H22   S    
Cu1   O7    S    
C3    C5    A    
C25   N16   S    
H7    N18   S    
C29   H14   S    
C31   H21   S    
C22   N14   S    
C24   N15   S    
C36   C38   A    
C37   C39   A    
C10   O11   A    
C38   C40   A    
C33   H35   S    
C20   C26   A    
C9    C38   S    
C17   C19   A    
Cu1   N13   S    
C33   N9    S    
C27   H46   S    
Cu2   O9    S    
C16   C18   A    
C23   C36   A    
C30   H19   S    
H8    N18   S    
H42   N15   S    
C3    N7    S    
H31   N8    S    
Cu1   O11   S    
C11   O12   S    
H16   N4    S    
C12   O5    A    
C10   O9    A    
