data_mof_unit_24110.cif
_audit_creation_date              2012-12-11T15:16:47-0500
_audit_creation_method            fapswitch 2.2
_symmetry_space_group_name_H-M    P1
_symmetry_Int_Tables_number       1
_space_group_crystal_system       triclinic
_cell_length_a                    25.148476
_cell_length_b                    7.234104
_cell_length_c                    21.88985
_cell_angle_alpha                 90.000421
_cell_angle_beta                  110.276657
_cell_angle_gamma                 90.000216
_cell_volume                      3735.56267587

loop_
_atom_site_label
_atom_site_type_symbol
_atom_type_description
_atom_site_fract_x
_atom_site_fract_y
_atom_site_fract_z
_atom_type_partial_charge
O1    O     O_R   0.554350 0.505270 0.581390 -0.531030
O2    O     O_R   0.445650 0.005270 0.418610 -0.531031
O3    O     O_R   0.553380 0.177580 0.454800 -0.540752
O4    O     O_R   0.446620 0.677580 0.545200 -0.540751
C1    C     C_R   0.566110 0.344488 0.438700 0.681249
C2    C     C_R   0.433890 0.844488 0.561299 0.681250
O5    O     O_R   0.560970 0.175640 0.583140 -0.533720
O6    O     O_R   0.439030 0.675640 0.416860 -0.533720
O7    O     O_R   0.453290 0.004120 0.547860 -0.537683
O8    O     O_R   0.546710 0.504120 0.452140 -0.537682
C3    C     C_R   0.576056 0.343932 0.607597 0.675351
C4    C     C_R   0.423944 0.843930 0.392403 0.675349
O9    O     O_3   0.464660 0.338800 0.488280 -0.372206
O10   O     O_3   0.535340 0.838800 0.511720 -0.372205
V1    V     V_3+5 0.506560 0.064420 0.502170 1.419480
V2    V     V_3+5 0.493440 0.564420 0.497830 1.419483
C5    C     C_R   0.147222 0.974793 0.289556 -0.143171
C6    C     C_R   0.852781 0.474720 0.710441 -0.143169
H1    H     H_    0.062201 0.002597 0.222522 0.112347
H2    H     H_    0.937803 0.502523 0.777476 0.112345
H3    H     H_    0.133564 0.000882 0.330531 0.137276
H4    H     H_    0.866442 0.500776 0.669465 0.137275
C7    C     C_R   0.120549 0.942021 0.172835 -0.036309
C8    C     C_R   0.879451 0.442011 0.827165 -0.036305
C9    C     C_R   0.396195 0.818474 0.273430 -0.160776
C10   C     C_R   0.603802 0.318536 0.726572 -0.160778
C11   C     C_R   0.356610 0.817921 0.210683 -0.115736
C12   C     C_R   0.643385 0.318009 0.789319 -0.115733
C13   C     C_R   0.299355 0.847904 0.200029 -0.152424
C14   C     C_R   0.700642 0.347968 0.799973 -0.152422
C15   C     C_R   0.279838 0.879776 0.252520 0.076926
C16   C     C_R   0.720161 0.379789 0.747481 0.076925
C17   C     C_R   0.320983 0.881558 0.316996 0.057873
C18   C     C_R   0.679017 0.381545 0.683003 0.057870
C19   C     C_R   0.221022 0.909684 0.243016 0.067821
C20   C     C_R   0.778978 0.409677 0.756983 0.067821
C21   C     C_R   0.204810 0.942393 0.298419 0.081370
C22   C     C_R   0.795192 0.442341 0.701579 0.081370
C23   C     C_R   0.246306 0.942694 0.361569 -0.064092
C24   C     C_R   0.753698 0.442618 0.638429 -0.064092
C25   C     C_R   0.303175 0.912466 0.370154 -0.227462
C26   C     C_R   0.696827 0.412409 0.629844 -0.227456
C27   C     C_R   0.177548 0.908801 0.180326 -0.201299
C28   C     C_R   0.822451 0.408814 0.819675 -0.201297
C29   C     C_R   0.105933 0.975643 0.227664 -0.160234
C30   C     C_R   0.894070 0.475589 0.772335 -0.160235
C31   C     C_R   0.379380 0.850529 0.327005 -0.070670
C32   C     C_R   0.620619 0.350540 0.672995 -0.070666
H5    H     H_    0.186409 0.884698 0.136251 0.092446
H6    H     H_    0.813589 0.384741 0.863751 0.092443
H7    H     H_    0.440395 0.793539 0.280304 0.103950
H8    H     H_    0.559600 0.293624 0.719698 0.103948
H9    H     H_    0.271563 0.845060 0.149983 0.109568
H10   H     H_    0.728433 0.345150 0.850020 0.109568
H11   H     H_    0.370422 0.793355 0.169715 0.124037
H12   H     H_    0.629571 0.293483 0.830288 0.124036
H13   H     H_    0.333754 0.913477 0.419316 0.113526
H14   H     H_    0.666249 0.413401 0.580681 0.113519
C33   C     C_R   0.121196 0.765045 0.882432 -0.160685
C34   C     C_R   0.878805 0.265045 0.117569 -0.160684
H15   H     H_    0.106828 0.637174 0.897244 0.124246
H16   H     H_    0.893173 0.137174 0.102757 0.124247
C35   C     C_R   0.156580 0.754717 0.845296 -0.134343
C36   C     C_R   0.843421 0.254717 0.154705 -0.134343
H17   H     H_    0.168210 0.619471 0.832824 0.136107
H18   H     H_    0.831792 0.119471 0.167177 0.136107
C37   C     C_R   0.176341 0.916091 0.824291 0.022003
C38   C     C_R   0.823659 0.416091 0.175709 0.022002
C39   C     C_R   0.159968 0.088383 0.841921 -0.131380
C40   C     C_R   0.840031 0.588383 0.158079 -0.131379
H19   H     H_    0.174337 0.215708 0.826744 0.140320
H20   H     H_    0.825662 0.715708 0.173255 0.140320
C41   C     C_R   0.124569 0.098827 0.879219 -0.158446
C42   C     C_R   0.875430 0.598827 0.120780 -0.158446
H21   H     H_    0.112701 0.234017 0.891450 0.121537
H22   H     H_    0.887297 0.734017 0.108549 0.121537
C43   C     C_R   0.104479 0.937186 0.899860 -0.047073
C44   C     C_R   0.895521 0.437187 0.100140 -0.047074
N1    N     N_R   0.231745 0.058491 0.762049 -0.270273
N2    N     N_R   0.768254 0.558490 0.237950 -0.270274
N3    N     N_R   0.264627 0.046417 0.725686 -0.252205
N4    N     N_R   0.735372 0.546417 0.274313 -0.252207
C45   C     C_R   0.280567 0.879190 0.709348 0.512675
C46   C     C_R   0.719433 0.379189 0.290652 0.512678
N5    N     N_R   0.262563 0.724913 0.731804 -0.267315
N6    N     N_R   0.737439 0.224913 0.268197 -0.267315
N7    N     N_R   0.229696 0.736797 0.768099 -0.278563
N8    N     N_R   0.770305 0.236797 0.231903 -0.278563
C47   C     C_R   0.213434 0.903790 0.784008 0.508992
C48   C     C_R   0.786566 0.403790 0.215992 0.508993
C49   C     C_R   0.322622 0.704517 0.634692 -0.032889
C50   C     C_R   0.677378 0.204518 0.365308 -0.032881
C51   C     C_R   0.360352 0.698875 0.600062 -0.190093
C52   C     C_R   0.639648 0.198876 0.399938 -0.190091
H23   H     H_    0.363083 0.573749 0.574022 0.127781
H24   H     H_    0.636918 0.073751 0.425978 0.127778
C53   C     C_R   0.393680 0.852951 0.597781 -0.053969
C54   C     C_R   0.606320 0.352950 0.402219 -0.053969
C55   C     C_R   0.388123 0.014694 0.630577 -0.152393
C56   C     C_R   0.611876 0.514692 0.369423 -0.152396
H25   H     H_    0.413043 0.136278 0.629898 0.120527
H26   H     H_    0.586957 0.636275 0.370102 0.120528
C57   C     C_R   0.351218 0.020998 0.665926 -0.114578
C58   C     C_R   0.648782 0.520996 0.334074 -0.114582
H27   H     H_    0.349250 0.147254 0.691618 0.145472
H28   H     H_    0.650749 0.647251 0.308382 0.145472
C59   C     C_R   0.318199 0.866590 0.669297 -0.014379
C60   C     C_R   0.681801 0.366590 0.330703 -0.014378
O11   O     O_R   0.953220 0.285790 0.047790 -0.537680
O12   O     O_R   0.046780 0.785790 0.952210 -0.537680
O13   O     O_R   0.939020 0.617570 0.916840 -0.533387
O14   O     O_R   0.060980 0.117570 0.083160 -0.533388
C61   C     C_R   0.923995 0.448694 0.892361 0.681219
C62   C     C_R   0.076005 0.948696 0.107639 0.681219
O15   O     O_R   0.946600 0.615450 0.045180 -0.541121
O16   O     O_R   0.053400 0.115450 0.954820 -0.541121
O17   O     O_R   0.054370 0.786770 0.081410 -0.530826
O18   O     O_R   0.945630 0.286770 0.918590 -0.530827
C63   C     C_R   0.934318 0.446979 0.061728 0.677238
C64   C     C_R   0.065682 0.946978 0.938271 0.677239
O19   O     O_3   0.035300 0.454160 0.011680 -0.373430
O20   O     O_3   0.964700 0.954160 0.988320 -0.373429
V3    V     V_3+5 0.993450 0.728620 0.997830 1.413193
V4    V     V_3+5 0.006550 0.228620 0.002170 1.413193
C65   C     C_1   0.287788 0.543523 0.631421 0.334139
N9    N     N_1   0.259822 0.414447 0.628520 -0.281418
C66   C     C_1   0.712213 0.043526 0.368579 0.334142
N10   N     N_1   0.740179 0.914451 0.371481 -0.281423
C67   C     C_1   0.232001 0.973457 0.419360 0.301509
N11   N     N_1   0.220737 0.997941 0.465699 -0.316172
C68   C     C_1   0.768005 0.473340 0.580636 0.301509
N12   N     N_1   0.779270 0.497792 0.534295 -0.316173

loop_
_geom_bond_atom_site_label_1
_geom_bond_atom_site_label_2
_ccdc_geom_bond_type
C55   C57   A    
C35   H17   S    
C7    C29   A    
C51   C53   A    
C11   C13   A    
O1    C3    A    
C37   C47   S    
C43   C64   S    
O2    C4    A    
C33   C43   A    
C2    O7    A    
C58   H28   S    
C12   H12   S    
C23   C25   A    
O5    C3    A    
C14   H10   S    
C34   C44   A    
C42   H22   S    
C16   C20   A    
C19   C21   A    
C5    C29   A    
O14   V4    S    
C11   H11   S    
C52   C54   A    
C56   C58   A    
C7    C27   A    
C34   H16   S    
C39   H19   S    
O19   V4    S    
N3    C45   A    
C50   C60   A    
O13   C61   A    
C18   C26   A    
C40   C42   A    
C38   C48   S    
C15   C17   A    
C39   C41   A    
C19   C27   A    
C9    C31   A    
C10   C32   A    
C24   C26   A    
O17   V3    S    
C8    C61   S    
C51   H23   S    
C22   C24   A    
C13   C15   A    
C41   H21   S    
C26   H14   S    
C3    C32   S    
C4    C31   S    
C6    C30   A    
O14   C62   A    
C10   C12   A    
C53   C55   A    
N5    N7    A    
C35   C37   A    
C33   H15   S    
O15   V3    S    
O13   V3    S    
C2    C53   S    
C49   C59   A    
N2    N4    A    
O12   C64   A    
N1    N3    A    
C27   H5    S    
C5    C21   A    
O5    V1    S    
C23   C67   S    
C6    C22   A    
C5    H3    S    
O16   C64   A    
C37   C39   A    
C16   C18   A    
O4    V2    S    
C9    H7    S    
C10   H8    S    
O12   V3    S    
C49   C51   A    
O6    C4    A    
C56   H26   S    
C57   H27   S    
O1    V2    S    
O18   V4    S    
C52   H24   S    
O2    V1    S    
O4    C2    A    
C45   N5    A    
C24   C68   S    
N8    C48   A    
O15   C63   A    
N7    C47   A    
C65   N9    T    
C17   C31   A    
C15   C19   A    
C20   C28   A    
C18   C32   A    
C68   N12   T    
C50   C66   S    
C36   C38   A    
C58   C60   A    
O3    V1    S    
O11   C63   A    
C67   N11   T    
C28   H6    S    
O16   V4    S    
C55   H25   S    
C6    H4    S    
C33   C35   A    
C46   N6    A    
O3    C1    A    
C57   C59   A    
H1    C29   S    
O11   V4    S    
C9    C11   A    
N4    C46   A    
C49   C65   S    
C34   C36   A    
C17   C25   A    
C12   C14   A    
C44   C63   S    
O7    V1    S    
C8    C30   A    
C1    O8    A    
C21   C23   A    
O8    V2    S    
C7    C62   S    
C14   C16   A    
C50   C52   A    
C13   H9    S    
C8    C28   A    
C20   C22   A    
C46   C60   S    
C45   C59   S    
N6    N8    A    
N2    C48   A    
C54   C56   A    
N1    C47   A    
C62   O17   A    
C25   H13   S    
C61   O18   A    
C1    C54   S    
O6    V2    S    
C42   C44   A    
O9    V2    S    
C38   C40   A    
C41   C43   A    
O10   V1    S    
C40   H20   S    
O20   V3    S    
H2    C30   S    
C66   N10   T    
C36   H18   S    
