data_mof_unit_32619.cif
_audit_creation_date              2012-10-26T20:06:12-0400
_audit_creation_method            fapswitch 2.2
_symmetry_space_group_name_H-M    P1
_symmetry_Int_Tables_number       1
_space_group_crystal_system       triclinic
_cell_length_a                    9.736424
_cell_length_b                    10.941673
_cell_length_c                    13.409132
_cell_angle_alpha                 93.33849
_cell_angle_beta                  76.022768
_cell_angle_gamma                 88.90568
_cell_volume                      1383.05257047

loop_
_atom_site_label
_atom_site_type_symbol
_atom_type_description
_atom_site_fract_x
_atom_site_fract_y
_atom_site_fract_z
_atom_type_partial_charge
C1    C     C_R   0.499604 0.737634 0.498614 0.575322
C2    C     C_R   0.393894 0.452097 0.806836 -0.076034
C3    C     C_R   0.629428 0.932893 0.480249 0.278380
C4    C     C_R   0.427415 0.483028 0.696826 0.523931
C5    C     C_R   0.627541 0.060649 0.502517 0.154523
C6    C     C_R   0.499060 0.129951 0.519705 -0.049559
C7    C     C_R   0.370312 0.070397 0.543074 0.242437
C8    C     C_R   0.370733 0.942440 0.534497 0.151399
C9    C     C_R   0.499070 0.873040 0.500846 -0.033911
C10   C     C_R   0.905722 0.589646 0.555006 0.322147
C11   C     C_R   0.053282 0.587951 0.556871 0.302346
C12   C     C_R   0.459567 0.461484 0.970252 -0.018754
C13   C     C_R   0.094161 0.416389 0.438578 0.281531
C14   C     C_R   0.943493 0.413940 0.440759 0.320166
C15   C     C_R   0.499036 0.263501 0.507710 0.570727
C16   C     C_R   0.575022 0.504103 0.301007 0.605598
C17   C     C_R   0.783378 0.563689 0.028145 0.305370
C18   C     C_R   0.617053 0.509682 0.187551 0.034067
C19   C     C_R   0.255330 0.428763 0.859856 0.295873
C20   C     C_R   0.213293 0.452105 0.966625 0.255118
C21   C     C_R   0.316805 0.486593 0.019429 0.186201
C22   C     C_3   0.911341 0.657335 0.202282 -0.039661
C23   C     C_R   0.498856 0.443434 0.862849 -0.123441
C24   C     C_3   0.143329 0.125000 0.535044 -0.062021
C25   C     C_3   0.766957 0.694495 0.700560 -0.084309
C26   C     C_3   0.096054 0.681180 0.705106 -0.027329
C27   C     C_3   0.195938 0.385629 0.269942 -0.049585
C28   C     C_3   0.939753 0.222437 0.349901 -0.047881
C29   C     C_3   0.931427 0.371113 0.723326 -0.038783
C30   C     C_3   0.189964 0.239087 0.820263 -0.053523
C31   C     C_3   0.875843 0.895226 0.455621 -0.013354
C32   C     C_R   0.566414 0.466781 0.023557 -0.035762
C33   C     C_R   0.703134 0.493584 0.970637 -0.048104
C34   C     C_R   0.748662 0.445579 0.866183 0.288164
C35   C     C_R   0.639994 0.405541 0.816924 0.244755
C36   C     C_R   0.544028 0.442808 0.127331 0.227245
C37   C     C_R   0.731224 0.579876 0.137771 0.262406
Cu1   Cu    Cu3+1 0.359340 0.499980 0.500000 1.070222
Cu2   Cu    Cu3+1 0.640660 0.500020 0.500000 1.086869
H1    H     H_    0.934603 0.560684 0.215724 0.110429
H2    H     H_    0.811697 0.621999 0.738708 0.090755
H3    H     H_    0.650484 0.687498 0.717371 0.153520
H4    H     H_    0.199211 0.705858 0.720651 0.171177
H5    H     H_    0.069963 0.589602 0.734208 0.147837
H6    H     H_    0.017636 0.750506 0.750111 0.107930
H7    H     H_    0.230786 0.309897 0.210337 0.158478
H8    H     H_    0.268734 0.461214 0.259664 0.249351
H9    H     H_    0.095234 0.422038 0.256942 0.078241
H10   H     H_    0.976574 0.186443 0.414303 0.131048
H11   H     H_    0.023092 0.210043 0.277475 0.105420
H12   H     H_    0.926871 0.714020 0.269572 0.151341
H13   H     H_    0.852370 0.165817 0.335798 0.195108
H14   H     H_    0.875282 0.411103 0.670503 0.127527
H15   H     H_    0.915829 0.271147 0.728252 0.169410
H16   H     H_    0.043748 0.383692 0.685826 0.170657
H17   H     H_    0.897554 0.634750 0.907514 0.328023
H18   H     H_    0.457869 0.288266 0.105960 0.317266
H19   H     H_    0.166214 0.216498 0.902443 0.124975
H20   H     H_    0.299802 0.207305 0.780205 0.110856
H21   H     H_    0.116110 0.187043 0.784212 0.175820
H22   H     H_    0.185494 0.586845 0.125044 0.306776
H23   H     H_    0.985826 0.689430 0.133422 0.173956
H24   H     H_    0.070054 0.421767 0.089142 0.293655
H25   H     H_    0.578515 0.278250 0.730283 0.310938
H26   H     H_    0.857611 0.916928 0.540034 0.181659
H27   H     H_    0.928720 0.970112 0.410435 0.115050
H28   H     H_    0.950830 0.815007 0.435599 0.137736
H29   H     H_    0.724672 0.167224 0.578730 0.356664
H30   H     H_    0.187772 0.108463 0.450398 0.129831
H31   H     H_    0.078549 0.211098 0.548543 0.121779
H32   H     H_    0.070286 0.052019 0.565433 0.148691
H33   H     H_    0.221904 0.861826 0.494252 0.335050
H34   H     H_    0.786953 0.784495 0.735848 0.115902
N1    N     N_R   0.147940 0.499970 0.499970 -0.270210
N2    N     N_R   0.852060 0.500060 0.499990 -0.254393
O1    O     O_R   0.381250 0.680340 0.500010 -0.464153
O2    O     O_3   0.749032 0.114934 0.513832 -0.756799
O3    O     O_3   0.247892 0.138122 0.590960 -0.554566
O4    O     O_3   0.244145 0.886608 0.560877 -0.645742
O5    O     O_3   0.822636 0.693731 0.593263 -0.533927
O6    O     O_3   0.105292 0.689534 0.599084 -0.509294
O7    O     O_3   0.187696 0.340786 0.367450 -0.554228
O8    O     O_3   0.889018 0.345096 0.369028 -0.529729
O9    O     O_3   0.894547 0.431934 0.822642 -0.533705
O10   O     O_3   0.897569 0.629668 0.980881 -0.654046
O11   O     O_3   0.477561 0.339063 0.164389 -0.704763
O12   O     O_R   0.618820 0.680370 0.500010 -0.420616
O13   O     O_3   0.168791 0.365492 0.810104 -0.510091
O14   O     O_3   0.284822 0.557232 0.110674 -0.744730
O15   O     O_3   0.074398 0.434808 0.016147 -0.641604
O16   O     O_3   0.667482 0.318045 0.735328 -0.739269
O17   O     O_3   0.750586 0.865185 0.425869 -0.519603
O18   O     O_R   0.323240 0.499950 0.650980 -0.492934
O19   O     O_R   0.560810 0.499980 0.650980 -0.500333
O20   O     O_R   0.381180 0.319630 0.499990 -0.427792
O21   O     O_R   0.618750 0.319660 0.499990 -0.455831
O22   O     O_R   0.439190 0.500020 0.349020 -0.479475
O23   O     O_R   0.676760 0.500050 0.349020 -0.453570
O24   O     O_3   0.771510 0.676609 0.194542 -0.534243

loop_
_geom_bond_atom_site_label_1
_geom_bond_atom_site_label_2
_ccdc_geom_bond_type
C27   H9    S    
C1    O12   A    
C31   H27   S    
C25   O5    S    
C19   C20   A    
Cu2   O12   S    
C26   H5    S    
C7    C8    A    
Cu1   O1    S    
C11   O6    S    
C31   H28   S    
C12   C23   A    
C34   O9    S    
C17   O10   S    
C32   C36   A    
C18   C37   A    
H33   O4    S    
C15   O20   A    
Cu1   Cu2   S    
C16   O22   A    
C29   H15   S    
H18   O11   S    
H24   O15   S    
C34   C35   A    
C10   N2    A    
C26   H6    S    
C6    C15   S    
C28   H11   S    
C8    C9    A    
C30   H21   S    
Cu1   O20   S    
C24   H30   S    
C8    O4    S    
Cu2   N2    S    
C13   C14   A    
C12   C32   A    
C28   O8    S    
C17   C33   A    
C14   O8    S    
Cu1   O22   S    
H22   O14   S    
C26   H4    S    
C24   H31   S    
C1    C9    S    
C29   O9    S    
C19   O13   S    
C25   H2    S    
C15   O21   A    
C10   O5    S    
Cu2   O23   S    
C21   O14   S    
C29   H16   S    
C36   O11   S    
C20   O15   S    
C13   O7    S    
C3    O17   S    
C2    C4    S    
Cu2   O19   S    
C3    C9    A    
C22   H23   S    
C28   H10   S    
C22   H1    S    
C30   H20   S    
C33   C34   A    
C17   C37   A    
C20   C21   A    
C7    O3    S    
C4    O19   A    
C27   H7    S    
C24   O3    S    
C26   O6    S    
C23   C35   A    
C5    O2    S    
C30   O13   S    
C37   O24   S    
Cu1   N1    S    
C27   H8    S    
H29   O2    S    
C31   H26   S    
C22   O24   S    
C2    C19   A    
C1    O1    A    
C27   O7    S    
C3    C5    A    
C11   N1    A    
C25   H3    S    
C6    C7    A    
C14   N2    A    
C32   C33   A    
C28   H13   S    
C16   O23   A    
H17   O10   S    
C5    C6    A    
C29   H14   S    
C30   H19   S    
Cu1   O18   S    
C25   H34   S    
Cu2   O21   S    
C10   C11   A    
C4    O18   A    
C12   C21   A    
C13   N1    A    
C16   C18   S    
C31   O17   S    
C2    C23   A    
H25   O16   S    
C18   C36   A    
C24   H32   S    
C22   H12   S    
C35   O16   S    
