data_mof_unit_55915.cif
_audit_creation_date              2012-12-10T17:16:41-0500
_audit_creation_method            fapswitch 2.2
_symmetry_space_group_name_H-M    P1
_symmetry_Int_Tables_number       1
_space_group_crystal_system       triclinic
_cell_length_a                    10.161076
_cell_length_b                    10.64671
_cell_length_c                    10.804969
_cell_angle_alpha                 90.649357
_cell_angle_beta                  95.230924
_cell_angle_gamma                 78.90112
_cell_volume                      1142.24064569

loop_
_atom_site_label
_atom_site_type_symbol
_atom_type_description
_atom_site_fract_x
_atom_site_fract_y
_atom_site_fract_z
_atom_type_partial_charge
C1    C     C_R   0.443722 0.512101 0.267221 0.945510
C2    C     C_R   0.492692 0.741078 0.484698 0.889774
C3    C     C_R   0.753101 0.061538 0.467487 -0.143069
C4    C     C_R   0.246331 0.938295 0.530676 -0.143292
C5    C     C_R   0.842364 0.985640 0.393724 -0.184496
C6    C     C_R   0.156890 0.014112 0.604320 -0.186070
C7    C     C_R   0.804067 0.882566 0.329916 -0.137680
C8    C     C_R   0.195112 0.117068 0.668389 -0.137266
C9    C     C_R   0.680711 0.849962 0.347413 -0.121343
C10   C     C_R   0.318570 0.149660 0.651235 -0.122056
C11   C     C_R   0.593363 0.921344 0.428897 0.080090
C12   C     C_R   0.555996 0.495555 0.732826 0.943564
C13   C     C_R   0.406074 0.078457 0.569757 0.078699
C14   C     C_R   0.622188 0.036450 0.476842 0.095712
C15   C     C_R   0.377275 0.963421 0.521667 0.096510
C16   C     C_R   0.480204 0.878354 0.466255 -0.259501
C17   C     C_R   0.519394 0.121452 0.532624 -0.262630
C18   C     C_2   0.411255 0.531850 0.135511 -0.381645
C19   C     C_2   0.587402 0.505582 0.864800 -0.378509
C20   C     C_2   0.510533 0.543179 0.066564 -0.159758
C21   C     C_2   0.486170 0.546774 0.934231 -0.144507
C22   C     C_2   0.073116 0.491733 0.489026 -0.014016
C23   C     C_2   0.926901 0.508199 0.511037 -0.015183
C24   C     C_R   0.507219 0.258834 0.514989 0.895632
H1    H     H_    0.127552 0.173982 0.728451 0.133697
H2    H     H_    0.613368 0.539632 0.106843 0.179440
H3    H     H_    0.690866 0.478109 0.905275 0.146932
H4    H     H_    0.308738 0.535113 0.094792 0.148406
H5    H     H_    0.888068 0.573376 0.582761 0.162843
H6    H     H_    0.112006 0.426351 0.417478 0.162357
H7    H     H_    0.833120 0.403941 0.271622 0.198452
H8    H     H_    0.868667 0.279159 0.370567 0.198335
H9    H     H_    0.131659 0.721209 0.628681 0.197333
H10   H     H_    0.166113 0.596889 0.728165 0.195036
H11   H     H_    0.871522 0.825548 0.269834 0.132997
H12   H     H_    0.790097 0.136305 0.520306 0.156191
H13   H     H_    0.209589 0.863429 0.477775 0.156359
H14   H     H_    0.940848 0.007571 0.385240 0.137602
H15   H     H_    0.058378 0.992151 0.612586 0.137666
H16   H     H_    0.654088 0.768347 0.297419 0.140496
H17   H     H_    0.345137 0.231108 0.701537 0.144170
H18   H     H_    0.382427 0.573991 0.894192 0.179942
N1    N     N_2   0.157300 0.551390 0.551120 -0.094694
N2    N     N_2   0.842700 0.448610 0.448880 -0.095912
N3    N     N_3   0.890455 0.368935 0.353505 -0.428549
N4    N     N_3   0.109330 0.631705 0.645970 -0.428541
O1    O     O_R   0.568940 0.489660 0.307530 -0.620583
O2    O     O_R   0.431060 0.510340 0.692470 -0.621999
O3    O     O_R   0.348880 0.522640 0.340350 -0.619304
O4    O     O_R   0.651120 0.477360 0.659650 -0.619436
O5    O     O_R   0.610030 0.300280 0.483580 -0.619290
O6    O     O_R   0.389970 0.699720 0.516420 -0.622367
O7    O     O_R   0.389970 0.333270 0.516400 -0.611672
O8    O     O_R   0.610030 0.666730 0.483600 -0.613998
Zn1   Zn    Zn3+2 0.646940 0.477980 0.478080 0.926894
Zn2   Zn    Zn3+2 0.353060 0.522020 0.521920 0.926730

loop_
_geom_bond_atom_site_label_1
_geom_bond_atom_site_label_2
_ccdc_geom_bond_type
C12   O4    A    
H10   N4    S    
O3    Zn2   S    
C2    C16   S    
H8    N3    S    
C18   C20   D    
C22   N1    D    
N2    Zn1   S    
C2    O6    A    
C13   C17   A    
C12   O2    A    
C6    H15   S    
C7    C9    A    
C24   O5    A    
O1    Zn1   S    
C18   H4    S    
C5    H14   S    
C20   C21   S    
C10   H17   S    
C8    H1    S    
C9    C11   A    
C14   C17   A    
C1    C18   S    
C3    C14   A    
C20   H2    S    
C3    H12   S    
C4    C15   A    
C23   H5    S    
C12   C19   S    
C4    C6    A    
C19   C21   D    
O5    Zn1   S    
C13   C15   A    
H7    N3    S    
C8    C10   A    
N1    N4    S    
C17   C24   S    
C15   C16   A    
C21   H18   S    
O6    Zn2   S    
N1    Zn2   S    
C19   H3    S    
N2    N3    S    
O2    Zn2   S    
C2    O8    A    
O7    Zn2   S    
C11   C14   A    
C5    C7    A    
O8    Zn1   S    
C1    O1    A    
C6    C8    A    
C22   H6    S    
C24   O7    A    
C22   C23   S    
C11   C16   A    
C7    H11   S    
C9    H16   S    
C23   N2    D    
O4    Zn1   S    
H9    N4    S    
C4    H13   S    
C3    C5    A    
C10   C13   A    
C1    O3    A    
