data_mof_unit_38097.cif
_audit_creation_date              2012-12-10T17:24:11-0500
_audit_creation_method            fapswitch 2.2
_symmetry_space_group_name_H-M    P1
_symmetry_Int_Tables_number       1
_space_group_crystal_system       triclinic
_cell_length_a                    10.119477
_cell_length_b                    10.785387
_cell_length_c                    16.824186
_cell_angle_alpha                 91.311729
_cell_angle_beta                  76.627661
_cell_angle_gamma                 95.924861
_cell_volume                      1776.9047992

loop_
_atom_site_label
_atom_site_type_symbol
_atom_type_description
_atom_site_fract_x
_atom_site_fract_y
_atom_site_fract_z
_atom_type_partial_charge
C1    C     C_R   0.558011 0.732918 0.491196 0.823981
C2    C     C_R   0.519315 0.502177 0.345340 0.861007
C3    C     C_R   0.465603 0.484596 0.741967 -0.101750
C4    C     C_R   0.536993 0.525607 0.258880 -0.099744
C5    C     C_R   0.560708 0.422500 0.770120 -0.165970
C6    C     C_R   0.447899 0.598882 0.233429 -0.182059
C7    C     C_R   0.550323 0.412213 0.852986 -0.222165
C8    C     C_R   0.463496 0.622762 0.151280 -0.209700
C9    C     C_R   0.445220 0.464236 0.908100 -0.002731
C10   C     C_R   0.566170 0.571204 0.094000 -0.028273
C11   C     C_R   0.342659 0.518420 0.881611 0.544861
C12   C     C_R   0.442818 0.266945 0.502048 0.823522
C13   C     C_R   0.659377 0.501439 0.118654 0.551617
C14   C     C_R   0.355110 0.530018 0.797295 -0.296935
C15   C     C_R   0.646438 0.481811 0.201969 -0.295007
C16   C     C_2   0.455643 0.477714 0.993136 0.422134
C17   C     C_2   0.553187 0.563352 0.009184 0.430717
C18   C     C_3   0.717024 0.733641 0.972527 -0.283344
C19   C     C_3   0.307064 0.298283 0.031792 -0.307521
C20   C     C_3   0.112064 0.537313 0.925469 -0.266782
C21   C     C_3   0.736141 0.324356 0.056344 -0.357325
C22   C     C_3   0.206494 0.084443 0.458946 -0.316139
C23   C     C_2   0.593917 0.865118 0.475059 0.345461
C24   C     C_3   0.809791 0.911401 0.400015 -0.334185
C25   C     C_2   0.409953 0.134133 0.492648 0.342206
C26   C     C_2   0.494443 0.932218 0.465406 -0.242989
C27   C     C_2   0.514044 0.066063 0.463322 -0.244930
C28   C     C_2   0.926522 0.510877 0.506508 -0.122117
C29   C     C_2   0.073574 0.489333 0.493334 -0.127442
C30   C     C_R   0.481041 0.499192 0.654740 0.912430
H1    H     H_    0.644819 0.384311 0.728152 0.170350
H2    H     H_    0.885482 0.580692 0.550206 0.175192
H3    H     H_    0.111449 0.617171 0.573940 0.173161
H4    H     H_    0.888471 0.382637 0.426185 0.161389
H5    H     H_    0.792029 0.704281 0.005449 0.183822
H6    H     H_    0.646807 0.795381 0.011418 0.146809
H7    H     H_    0.775348 0.788804 0.918589 0.191433
H8    H     H_    0.387894 0.241563 0.997936 0.140849
H9    H     H_    0.232770 0.312979 0.994398 0.181888
H10   H     H_    0.250573 0.244383 0.086714 0.189446
H11   H     H_    0.096914 0.436332 0.910676 0.144897
H12   H     H_    0.365319 0.636701 0.276913 0.162085
H13   H     H_    0.091339 0.595501 0.876987 0.164581
H14   H     H_    0.035512 0.554066 0.982491 0.233591
H15   H     H_    0.633154 0.297097 0.044619 0.166753
H16   H     H_    0.746788 0.278164 0.112609 0.165198
H17   H     H_    0.812279 0.289767 0.004357 0.189993
H18   H     H_    0.255993 0.034093 0.403236 0.142566
H19   H     H_    0.196610 0.182251 0.443447 0.164874
H20   H     H_    0.101885 0.037610 0.481073 0.206198
H21   H     H_    0.771474 0.957784 0.352536 0.148738
H22   H     H_    0.824219 0.812628 0.382954 0.180684
H23   H     H_    0.718703 0.429307 0.221785 0.164488
H24   H     H_    0.911402 0.959828 0.401384 0.181913
H25   H     H_    0.282987 0.579069 0.774882 0.164993
H26   H     H_    0.390143 0.674303 0.131732 0.165892
H27   H     H_    0.628200 0.369655 0.874399 0.159070
H28   H     H_    0.617928 0.109494 0.442729 0.190102
H29   H     H_    0.392999 0.888293 0.464902 0.191793
H30   H     H_    0.114679 0.419691 0.449519 0.158243
N1    N     N_2   0.846390 0.448330 0.467170 -0.192656
N2    N     N_2   0.153610 0.551670 0.532830 -0.189872
O1    O     O_R   0.430310 0.692580 0.506610 -0.634065
O2    O     O_3   0.363529 0.413121 0.057439 -0.613328
O3    O     O_3   0.243419 0.573117 0.938790 -0.613521
O4    O     O_3   0.763307 0.454907 0.060890 -0.626336
O5    O     O_3   0.277767 0.079501 0.521406 -0.582890
O6    O     O_3   0.722529 0.920511 0.478038 -0.586516
O7    O     O_R   0.569690 0.307420 0.493390 -0.633732
O8    O     O_R   0.652740 0.659410 0.485540 -0.587897
O9    O     O_R   0.347260 0.340590 0.514460 -0.584646
O10   O     O_R   0.375640 0.518570 0.627580 -0.603723
O11   O     O_R   0.624360 0.481430 0.372420 -0.618533
O12   O     O_R   0.598070 0.485390 0.606510 -0.607645
O13   O     O_R   0.401930 0.514610 0.393490 -0.620909
O14   O     O_3   0.644194 0.629195 0.944967 -0.611261
Zn1   Zn    Zn3+2 0.351480 0.522150 0.514070 0.949806
Zn2   Zn    Zn3+2 0.648520 0.477850 0.485930 0.945901

loop_
_geom_bond_atom_site_label_1
_geom_bond_atom_site_label_2
_ccdc_geom_bond_type
C23   O6    S    
C24   H22   S    
C3    C30   S    
C22   H18   S    
C12   O7    A    
C5    C7    A    
C1    C23   S    
O10   Zn1   S    
C30   O10   A    
C19   H8    S    
C21   O4    S    
C17   O14   S    
C9    C11   A    
C18   H5    S    
C12   C25   S    
N2    Zn1   S    
C2    C4    S    
C1    O8    A    
C25   O5    S    
C29   H30   S    
C28   H2    S    
N1    Zn2   S    
C22   H20   S    
C28   N1    D    
C8    H26   S    
C4    C15   A    
C14   H25   S    
C26   C27   S    
C3    C5    A    
H4    N1    S    
O13   Zn1   S    
O7    Zn2   S    
C16   C17   D    
C3    C14   A    
C19   H9    S    
C24   H21   S    
C22   H19   S    
C1    O1    A    
C2    O11   A    
C28   C29   S    
C20   H14   S    
C19   O2    S    
C7    H27   S    
C20   H11   S    
C21   H15   S    
C13   O4    S    
C13   C15   A    
O12   Zn2   S    
C30   O12   A    
C11   C14   A    
C22   O5    S    
C23   C26   D    
C25   C27   D    
C19   H10   S    
C24   O6    S    
C10   C17   S    
C24   H24   S    
C15   H23   S    
C20   O3    S    
O9    Zn1   S    
C20   H13   S    
C4    C6    A    
C21   H16   S    
O1    Zn1   S    
O8    Zn2   S    
C18   O14   S    
C7    C9    A    
C29   N2    D    
C18   H7    S    
C26   H29   S    
C6    C8    A    
C16   O2    S    
C5    H1    S    
C27   H28   S    
O11   Zn2   S    
C18   H6    S    
C12   O9    A    
C8    C10   A    
C2    O13   A    
C11   O3    S    
C9    C16   S    
H3    N2    S    
C21   H17   S    
C10   C13   A    
C6    H12   S    
