data_mof_unit_15676.cif
_audit_creation_date              2013-03-05T16:13:43-0500
_audit_creation_method            fapswitch 2.2
_symmetry_space_group_name_H-M    P1
_symmetry_Int_Tables_number       1
_space_group_crystal_system       triclinic
_cell_length_a                    10.760596
_cell_length_b                    9.884387
_cell_length_c                    8.916855
_cell_angle_alpha                 89.99528
_cell_angle_beta                  91.508484
_cell_angle_gamma                 90.009544
_cell_volume                      948.084896905

loop_
_atom_site_label
_atom_site_type_symbol
_atom_site_description
_atom_site_fract_x
_atom_site_fract_y
_atom_site_fract_z
_atom_type_partial_charge
O1    O     O_R   0.316770 0.614620 0.499990 -0.564182
O2    O     O_R   0.683230 0.385380 0.500010 -0.564451
O3    O     O_R   0.683230 0.614620 0.500010 -0.563881
O4    O     O_R   0.316770 0.385380 0.499990 -0.563962
C1    C     C_R   0.260426 0.499990 0.514031 0.974005
C2    C     C_R   0.739572 0.500010 0.485963 0.973922
O5    O     O_R   0.500010 0.614640 0.285340 -0.589677
O6    O     O_R   0.499990 0.385360 0.714660 -0.589655
O7    O     O_R   0.499990 0.614640 0.714660 -0.589729
O8    O     O_R   0.500010 0.385360 0.285340 -0.589657
C3    C     C_R   0.499567 0.500003 0.218715 0.912940
C4    C     C_R   0.500433 0.499997 0.781285 0.912878
Zn1   Zn    Zn3+2 0.500000 0.653120 0.500000 1.121152
Zn2   Zn    Zn3+2 0.500000 0.346880 0.500000 1.121086
C5    C     C_1   0.499845 0.500005 0.065382 -0.035547
C6    C     C_1   0.500154 0.499996 0.934618 -0.035519
C7    C     C_R   0.062185 0.376002 0.520378 0.348823
C8    C     C_R   0.937811 0.623999 0.479592 0.348840
C9    C     C_R   0.937765 0.376033 0.479425 0.348579
C10   C     C_R   0.062231 0.623969 0.520546 0.348663
C11   C     C_R   0.873067 0.500022 0.473049 -0.401930
C12   C     C_R   0.126929 0.499979 0.526928 -0.401952
C13   C     C_R   0.558136 0.071906 0.613740 0.253486
C14   C     C_R   0.441885 0.928096 0.386239 0.253449
C15   C     C_R   0.441890 0.071892 0.386231 0.253490
C16   C     C_R   0.558123 0.928111 0.613758 0.253568
N1    N     N_R   0.500000 0.857200 0.500000 -0.213545
N2    N     N_R   0.500000 0.142800 0.500000 -0.213593
Cl1   Cl    Cl    0.129192 0.219660 0.579129 -0.339247
Cl2   Cl    Cl    0.870803 0.780336 0.420828 -0.339268
Cl3   Cl    Cl    0.870689 0.219772 0.420460 -0.339534
Cl4   Cl    Cl    0.129303 0.780235 0.579503 -0.339507
N3    N     N_R   0.620124 0.142607 0.733663 0.253471
O9    O     O_R   0.571529 0.144595 0.865587 -0.265824
O10   O     O_R   0.734815 0.180763 0.719746 -0.275087
N4    N     N_R   0.379979 0.857402 0.266245 0.253565
O11   O     O_R   0.428386 0.855847 0.134217 -0.265665
O12   O     O_R   0.265582 0.818372 0.280396 -0.275500
N5    N     N_R   0.380116 0.142568 0.266127 0.253616
O13   O     O_R   0.265943 0.182277 0.280391 -0.275713
O14   O     O_R   0.428401 0.143687 0.134024 -0.265406
N6    N     N_R   0.619879 0.857442 0.733882 0.253636
O15   O     O_R   0.733970 0.817480 0.719531 -0.275749
O16   O     O_R   0.571701 0.856561 0.866049 -0.265391

loop_
_geom_bond_atom_site_label_1
_geom_bond_atom_site_label_2
_geom_bond_distance
_ccdc_geom_bond_type
C8    Cl2   1.778418 S    
C8    C11   1.409981 A    
C7    Cl1   1.778417 S    
C7    C12   1.409987 A    
O3    Zn1   2.008113 S    
C14   N1    1.370311 A    
O6    C4    1.279401 A    
O3    C2    1.292617 A    
C9    Cl3   1.778426 S    
N4    O12   1.299252 A    
N3    O9    1.300001 A    
N5    O14   1.299940 A    
O2    C2    1.292595 A    
C13   N2    1.370264 A    
C15   N5    1.428070 S    
C15   N2    1.370376 A    
O5    C3    1.279400 A    
C16   N1    1.370388 A    
C14   N4    1.428045 S    
N6    O16   1.299955 A    
C10   Cl4   1.778432 S    
O1    C1    1.292596 A    
N4    O11   1.299938 A    
N3    O10   1.299477 A    
C10   C12   1.410012 A    
C8    C10   1.378435 A    
O4    Zn2   2.008114 S    
O2    Zn2   2.007988 S    
O7    C4    1.279370 A    
O1    Zn1   2.007989 S    
O8    C3    1.279372 A    
C7    C9    1.378435 A    
C5    C6    1.166090 T    
O5    Zn1   1.951550 S    
C14   C15   1.421332 A    
C16   N6    1.428077 S    
C13   N3    1.428005 S    
N6    O15   1.299250 A    
C13   C16   1.421326 A    
N5    O13   1.299232 A    
O7    Zn1   1.951488 S    
Zn1   N1    2.017206 S    
O6    Zn2   1.951550 S    
Zn2   N2    2.017206 S    
C2    C11   1.444111 S    
C3    C5    1.367336 S    
C1    C12   1.444116 S    
C4    C6    1.367337 S    
O8    Zn2   1.951488 S    
O4    C1    1.292619 A    
C9    C11   1.409998 A    
