data_mof_unit_23372.cif
_audit_creation_date              2012-12-11T15:43:44-0500
_audit_creation_method            fapswitch 2.2
_symmetry_space_group_name_H-M    P1
_symmetry_Int_Tables_number       1
_space_group_crystal_system       triclinic
_cell_length_a                    14.550142
_cell_length_b                    16.171283
_cell_length_c                    6.918689
_cell_angle_alpha                 89.254666
_cell_angle_beta                  98.558545
_cell_angle_gamma                 90.106722
_cell_volume                      1609.66490332

loop_
_atom_site_label
_atom_site_type_symbol
_atom_type_description
_atom_site_fract_x
_atom_site_fract_y
_atom_site_fract_z
_atom_type_partial_charge
O1    O     O_R   0.831700 0.662810 0.581550 -0.552141
O2    O     O_R   0.168300 0.337190 0.418450 -0.557639
O3    O     O_R   0.168300 0.162810 0.418450 -0.554724
O4    O     O_R   0.831700 0.837190 0.581550 -0.552422
O5    O     O_R   0.842890 0.834390 0.255500 -0.539385
O6    O     O_R   0.157110 0.165610 0.744500 -0.536718
O7    O     O_R   0.157110 0.334390 0.744500 -0.557356
O8    O     O_R   0.842890 0.665610 0.255500 -0.532808
O9    O     O_R   0.661690 0.835580 0.024130 -0.510762
O10   O     O_R   0.338310 0.164420 0.975870 -0.494624
O11   O     O_R   0.338310 0.335580 0.975870 -0.511186
O12   O     O_R   0.661690 0.664420 0.024130 -0.509124
C1    C     C_R   0.865727 0.864551 0.430716 0.739341
C2    C     C_R   0.134288 0.135438 0.569290 0.747589
C3    C     C_R   0.134268 0.364477 0.568170 0.660246
C4    C     C_R   0.865937 0.635689 0.431973 0.756852
C5    C     C_R   0.065058 0.066367 0.535176 -0.045427
C6    C     C_R   0.934980 0.933605 0.464842 -0.041661
C7    C     C_R   0.934927 0.566456 0.466287 -0.046125
C8    C     C_R   0.064905 0.433443 0.533768 -0.047266
H1    H     H_    0.958025 0.945941 0.163933 0.122216
H2    H     H_    0.042020 0.054027 0.836089 0.124775
H3    H     H_    0.039814 0.440138 0.834123 0.117419
H4    H     H_    0.959908 0.559680 0.165903 0.121818
H5    H     H_    0.069444 0.058983 0.223125 0.127546
H6    H     H_    0.930603 0.940983 0.776899 0.127971
H7    H     H_    0.928316 0.553487 0.776701 0.133100
H8    H     H_    0.071126 0.446154 0.223151 0.111067
C9    C     C_R   0.975671 0.968731 0.311263 -0.094034
C10   C     C_R   0.024376 0.031236 0.688760 -0.091270
C11   C     C_R   0.023090 0.465508 0.687528 -0.140956
C12   C     C_R   0.976620 0.534301 0.312491 -0.093574
O13   O     O_3   0.687240 0.750000 0.366320 -0.343143
O14   O     O_3   0.312760 0.250000 0.633680 -0.297553
V1    V     V_3+5 0.757720 0.750000 0.115230 1.605236
V2    V     V_3+5 0.242280 0.250000 0.884770 1.614571
O15   O     O_R   0.650500 0.664000 0.690740 -0.529539
O16   O     O_R   0.349500 0.336000 0.309260 -0.511097
O17   O     O_R   0.349500 0.164000 0.309260 -0.528107
O18   O     O_R   0.650500 0.836000 0.690740 -0.535731
C13   C     C_R   0.632007 0.633338 0.856760 0.836379
C14   C     C_R   0.376039 0.360614 0.145039 0.798033
C15   C     C_R   0.369677 0.134591 0.146642 0.854850
C16   C     C_R   0.630394 0.865478 0.853334 0.814623
C17   C     C_R   0.039690 0.033964 0.345871 -0.122139
C18   C     C_R   0.960357 0.966003 0.654152 -0.120496
C19   C     C_R   0.959054 0.530889 0.654278 -0.134851
C20   C     C_R   0.040525 0.468837 0.345659 -0.139494
V3    V     V_3+5 0.735670 0.750000 0.607790 1.594936
V4    V     V_3+5 0.264330 0.250000 0.392210 1.655166
O19   O     O_3   0.806150 0.750000 0.906560 -0.406157
O20   O     O_3   0.193850 0.250000 0.093440 -0.413937
C21   C     C_2   0.556405 0.928466 0.843727 -0.282929
C22   C     C_2   0.443602 0.071586 0.155974 -0.317511
C23   C     C_2   0.450533 0.424464 0.147276 -0.362692
C24   C     C_2   0.566501 0.563043 0.859452 -0.415716
C25   C     C_2   0.546582 0.980375 0.992694 0.268678
C26   C     C_2   0.453369 0.019824 0.006651 0.347046
C27   C     C_2   0.501485 0.438495 0.998796 0.348976
C28   C     C_2   0.570337 0.506520 0.009504 0.375357
H9    H     H_    0.496256 0.074419 0.283798 0.194992
H10   H     H_    0.503816 0.925551 0.715828 0.182372
H11   H     H_    0.511562 0.558088 0.735288 0.117706
H12   H     H_    0.463170 0.463353 0.275363 0.134687
S1    S     S_3+6 0.352351 0.989724 0.841149 -0.032683
O21   O     O_2   0.264342 0.010062 0.920127 -0.358696
O22   O     O_2   0.352777 0.033985 0.648919 -0.347672
O23   O     O_3   0.353581 0.886989 0.805912 -0.526671
H13   H     H_    0.301449 0.876679 0.699539 0.361988
S2    S     S_3+6 0.647751 0.011192 0.156906 0.012682
O24   O     O_2   0.647857 0.967588 0.350017 -0.321402
O25   O     O_2   0.735922 0.990665 0.078756 -0.342693
O26   O     O_3   0.646595 0.113924 0.192130 -0.468266
H14   H     H_    0.640421 0.138844 0.059270 0.367198
S3    S     S_3+6 0.667844 0.496132 0.195149 0.001637
O27   O     O_2   0.755735 0.511293 0.110290 -0.349284
O28   O     O_2   0.660199 0.557227 0.353582 -0.362233
O29   O     O_3   0.671013 0.399810 0.290507 -0.473790
H15   H     H_    0.727698 0.398359 0.389496 0.384233
S4    S     S_3+6 0.499506 0.373427 0.794851 0.049851
O30   O     O_2   0.495657 0.283915 0.854457 -0.297677
O31   O     O_2   0.414941 0.395473 0.652033 -0.370316
O32   O     O_3   0.595232 0.388304 0.689046 -0.456883
H16   H     H_    0.577970 0.431590 0.587779 0.367418

loop_
_geom_bond_atom_site_label_1
_geom_bond_atom_site_label_2
_ccdc_geom_bond_type
C23   C27   D    
O26   H14   S    
C1    C6    S    
O11   V2    S    
C5    C17   A    
O16   C14   A    
C7    C19   A    
O13   V3    S    
O18   V3    S    
O11   C14   A    
O7    V2    S    
O4    C1    A    
O2    V4    S    
C16   C21   S    
O23   H13   S    
S1    O22   D    
V4    O20   S    
S2    O24   D    
C25   S2    S    
O5    C1    A    
V2    O20   S    
O7    C3    A    
C27   C28   S    
O8    C4    A    
C11   C19   A    
C5    C10   A    
C12   C20   A    
C2    C5    S    
S4    O32   S    
C7    C12   A    
C6    C18   A    
O3    V4    S    
C3    C8    S    
O14   V4    S    
S4    O31   D    
O1    C4    A    
C21   C25   D    
O29   H15   S    
O17   C15   A    
V3    O19   S    
H1    C9    S    
C24   C28   D    
C9    C17   A    
O8    V1    S    
H3    C11   S    
S3    O27   D    
H4    C12   S    
C13   C24   S    
O12   C13   A    
C14   C23   S    
O6    C2    A    
O15   V3    S    
C21   H10   S    
C26   S1    S    
O32   H16   S    
S1    O23   S    
C23   H12   S    
S2    O26   S    
C24   H11   S    
C6    C9    A    
O12   V1    S    
O2    C3    A    
S3    O28   D    
C8    C20   A    
O3    C2    A    
V1    O19   S    
H5    C17   S    
C22   C26   D    
H7    C19   S    
H8    C20   S    
O9    C16   A    
H2    C10   S    
O10   C15   A    
C10   C18   A    
S4    O30   D    
C27   S4    S    
S2    O25   D    
O16   V4    S    
C22   H9    S    
C28   S3    S    
O4    V3    S    
C25   C26   S    
C4    C7    S    
O5    V1    S    
O13   V1    S    
O6    V2    S    
O14   V2    S    
O15   C13   A    
S3    O29   S    
C15   C22   S    
H6    C18   S    
O18   C16   A    
O17   V4    S    
S1    O21   D    
O9    V1    S    
O10   V2    S    
O1    V3    S    
C8    C11   A    
