data_mof_unit_52131.cif
_audit_creation_date              2012-12-10T17:27:52-0500
_audit_creation_method            fapswitch 2.2
_symmetry_space_group_name_H-M    P1
_symmetry_Int_Tables_number       1
_space_group_crystal_system       triclinic
_cell_length_a                    10.666851
_cell_length_b                    12.040116
_cell_length_c                    12.793519
_cell_angle_alpha                 93.733469
_cell_angle_beta                  91.42102
_cell_angle_gamma                 88.83513
_cell_volume                      1638.79351611

loop_
_atom_site_label
_atom_site_type_symbol
_atom_type_description
_atom_site_fract_x
_atom_site_fract_y
_atom_site_fract_z
_atom_type_partial_charge
C1    C     C_R   0.493600 0.522424 0.699787 0.877425
C2    C     C_R   0.942990 0.443662 0.581026 0.003799
C3    C     C_R   0.872450 0.512317 0.515596 -0.110030
C4    C     C_R   0.928399 0.569528 0.438576 -0.297271
C5    C     C_R   0.056327 0.559103 0.425173 0.444097
C6    C     C_R   0.124507 0.482620 0.483333 -0.120530
C7    C     C_R   0.482401 0.462951 0.188777 -0.111111
C8    C     C_R   0.487320 0.538954 0.811065 -0.083281
C9    C     C_R   0.583739 0.621814 0.968571 0.191863
C10   C     C_R   0.565953 0.617624 0.861014 -0.263374
C11   C     C_R   0.409724 0.473203 0.867362 0.133530
C12   C     C_R   0.739462 0.503787 0.507220 0.932820
C13   C     C_R   0.432130 0.471315 0.975676 0.028831
C14   C     C_R   0.527636 0.539232 0.025014 -0.004878
C15   C     C_R   0.560821 0.523691 0.129744 0.319392
C16   C     C_R   0.381505 0.402565 0.143063 0.100462
C17   C     C_R   0.361503 0.402802 0.035666 -0.181524
C18   C     C_R   0.419191 0.950073 0.380704 -0.311193
C19   C     C_R   0.417909 0.835960 0.394500 0.340036
C20   C     C_R   0.533742 0.862194 0.555242 -0.079912
C21   C     C_R   0.533028 0.978712 0.544784 0.091769
C22   C     C_R   0.475882 0.021801 0.455422 0.065839
C23   C     C_R   0.497504 0.477468 0.300063 0.986524
C24   C     C_R   0.474201 0.136802 0.443150 -0.068056
C25   C     C_R   0.580842 0.168257 0.606318 0.050998
C26   C     C_R   0.587452 0.053456 0.620495 -0.295009
C27   C     C_R   0.259274 0.495218 0.493737 0.898188
C28   C     C_R   0.899742 0.405555 0.676525 0.059577
C29   C     C_R   0.960858 0.312407 0.719767 0.326508
C30   C     C_R   0.060576 0.258372 0.665330 0.417106
C31   C     C_R   0.106851 0.304085 0.575901 0.094601
C32   C     C_R   0.061212 0.409452 0.546617 -0.122466
H1    H     H_    0.872093 0.620140 0.387460 0.179124
H2    H     H_    0.287718 0.351527 0.000506 0.177451
H3    H     H_    0.616900 0.673938 0.815394 0.165765
H4    H     H_    0.429619 0.170326 0.375046 0.121981
H5    H     H_    0.621330 0.225935 0.665496 0.138906
H6    H     H_    0.374439 0.983000 0.311829 0.150219
H7    H     H_    0.633029 0.023869 0.690282 0.150776
H8    H     H_    0.580083 0.827405 0.622253 0.130571
N1    N     N_R   0.523130 0.207800 0.519340 -0.107727
N2    N     N_R   0.476870 0.792180 0.480660 -0.103321
O1    O     O_R   0.506170 0.421690 0.658830 -0.625747
O2    O     O_R   0.491330 0.609320 0.646410 -0.627708
O3    O     O_R   0.690660 0.406170 0.506210 -0.600062
O4    O     O_R   0.675810 0.593790 0.493790 -0.618110
O5    O     O_R   0.508670 0.390680 0.353590 -0.630987
O6    O     O_R   0.493830 0.578310 0.341170 -0.603989
O7    O     O_R   0.324190 0.406210 0.506210 -0.636629
O8    O     O_R   0.309340 0.593830 0.493790 -0.588710
Zn1   Zn    Zn3+2 0.509910 0.374720 0.508290 0.939265
Zn2   Zn    Zn3+2 0.490090 0.625280 0.491710 0.970769
C33   C     C_3   0.303803 0.407378 0.812760 -0.849475
H9    H     H_    0.287768 0.426762 0.729982 0.239691
H10   H     H_    0.324049 0.316735 0.815087 0.257957
H11   H     H_    0.213874 0.428680 0.851837 0.235319
C34   C     C_3   0.351687 0.766505 0.309792 -0.768577
H12   H     H_    0.268136 0.811845 0.279263 0.205567
H13   H     H_    0.415789 0.746403 0.243850 0.229882
H14   H     H_    0.316168 0.690691 0.339424 0.315838
C35   C     C_3   0.804000 0.472655 0.739949 -0.898267
H15   H     H_    0.777503 0.552387 0.706041 0.225737
H16   H     H_    0.843580 0.495078 0.819471 0.247274
H17   H     H_    0.719446 0.422431 0.747283 0.241158
O9    O     O_3   0.924967 0.270282 0.812434 -0.793591
H18   H     H_    0.842180 0.300991 0.833455 0.349489
O10   O     O_3   0.114263 0.159629 0.696062 -0.763210
H19   H     H_    0.070256 0.133977 0.756988 0.382325
C36   C     C_3   0.178969 0.226348 0.501290 -0.701562
H20   H     H_    0.192848 0.261891 0.424611 0.215709
H21   H     H_    0.269761 0.204425 0.538898 0.266528
H22   H     H_    0.125863 0.148562 0.484311 0.229689
O11   O     O_3   0.114929 0.616500 0.351071 -0.804711
H23   H     H_    0.053240 0.666651 0.317641 0.337344
O12   O     O_3   0.670694 0.563187 0.176435 -0.777553
H24   H     H_    0.737420 0.552041 0.124047 0.342027
C37   C     C_3   0.292914 0.340316 0.207265 -0.862075
H25   H     H_    0.214005 0.304364 0.158835 0.240626
H26   H     H_    0.343993 0.270878 0.243035 0.235237
H27   H     H_    0.252194 0.397484 0.269607 0.242765
C38   C     C_3   0.655427 0.719100 0.018849 -0.860836
H28   H     H_    0.639584 0.794093 0.973642 0.231186
H29   H     H_    0.622647 0.742329 0.099119 0.274641
H30   H     H_    0.757542 0.699491 0.020047 0.237298

loop_
_geom_bond_atom_site_label_1
_geom_bond_atom_site_label_2
_ccdc_geom_bond_type
C15   O12   S    
C21   C26   A    
C36   H22   S    
C1    C8    S    
O11   H23   S    
C33   H10   S    
C6    C32   A    
C9    C14   A    
C38   H28   S    
C33   H9    S    
C19   C34   S    
C33   H11   S    
C24   H4    S    
C28   C29   A    
C18   C19   A    
C5    C6    A    
C20   H8    S    
C26   H7    S    
C34   H13   S    
O3    Zn1   S    
O4    Zn2   S    
C2    C32   A    
C16   C37   S    
C35   H16   S    
C3    C12   S    
C25   H5    S    
C1    O1    A    
C31   C32   A    
C16   C17   A    
O7    Zn1   S    
O8    Zn2   S    
C10   H3    S    
C9    C10   A    
C30   O10   S    
C11   C33   S    
C27   O8    A    
C28   C35   S    
O2    Zn2   S    
C7    C15   A    
C36   H21   S    
C13   C14   A    
C24   N1    A    
C36   H20   S    
C38   H29   S    
C37   H26   S    
C23   O5    A    
O10   H19   S    
C12   O4    A    
C25   N1    A    
C4    C5    A    
C34   H14   S    
O5    Zn1   S    
C25   C26   A    
C37   H25   S    
C35   H17   S    
O12   H24   S    
C29   C30   A    
C1    O2    A    
C6    C27   S    
O6    Zn2   S    
C29   O9    S    
C7    C16   A    
C22   C24   A    
C17   H2    S    
C3    C4    A    
C38   H30   S    
C37   H27   S    
C4    H1    S    
C23   O6    A    
C18   C22   A    
C12   O3    A    
C20   N2    A    
C19   N2    A    
C13   C17   A    
C2    C3    A    
C18   H6    S    
C11   C13   A    
O1    Zn1   S    
C34   H12   S    
C30   C31   A    
C8    C11   A    
C7    C23   S    
C5    O11   S    
C35   H15   S    
C31   C36   S    
C20   C21   A    
C8    C10   A    
O9    H18   S    
C9    C38   S    
C14   C15   A    
C2    C28   A    
C21   C22   A    
N1    Zn1   S    
C27   O7    A    
N2    Zn2   S    
