data_mof_unit_45966.cif
_audit_creation_date              2012-12-10T20:31:00-0500
_audit_creation_method            fapswitch 2.2
_symmetry_space_group_name_H-M    P1
_symmetry_Int_Tables_number       1
_space_group_crystal_system       triclinic
_cell_length_a                    14.987164
_cell_length_b                    10.710546
_cell_length_c                    9.851777
_cell_angle_alpha                 90.592897
_cell_angle_beta                  89.942346
_cell_angle_gamma                 90.172859
_cell_volume                      1581.32161567

loop_
_atom_site_label
_atom_site_type_symbol
_atom_type_description
_atom_site_fract_x
_atom_site_fract_y
_atom_site_fract_z
_atom_type_partial_charge
C1    C     C_R   0.499318 0.260267 0.499139 0.889507
C2    C     C_R   0.184848 0.460463 0.614867 -0.276938
C3    C     C_R   0.230815 0.500405 0.499825 -0.065938
C4    C     C_R   0.326633 0.500046 0.500011 0.881031
C5    C     C_R   0.185349 0.540612 0.384560 -0.254647
C6    C     C_R   0.447930 0.066031 0.597676 0.047389
C7    C     C_R   0.491775 0.128906 0.494744 -0.073275
C8    C     C_R   0.523203 0.063078 0.381119 -0.200022
C9    C     C_R   0.523416 0.934301 0.383125 -0.151660
C10   C     C_R   0.491763 0.871881 0.498450 -0.089573
C11   C     C_R   0.447073 0.938968 0.600364 -0.043494
C12   C     C_R   0.907316 0.539843 0.382980 0.119240
C13   C     C_3   0.444149 0.938395 0.754648 0.399779
C14   C     C_3   0.448159 0.081059 0.747905 -0.479442
C15   C     C_R   0.447649 0.417562 0.070539 0.227911
C16   C     C_R   0.498379 0.739965 0.500564 0.882472
C17   C     C_R   0.558765 0.571295 0.072769 -0.102221
C18   C     C_R   0.558959 0.570957 0.928641 -0.130481
C19   C     C_R   0.447675 0.417492 0.927891 0.224217
C20   C     C_3   0.348538 0.408787 0.922861 -0.537749
C21   C     C_3   0.348576 0.408690 0.076680 -0.489121
C22   C     C_R   0.673361 0.500385 0.499944 0.907221
C23   C     C_R   0.953362 0.425790 0.733004 -0.212323
C24   C     C_R   0.814978 0.538701 0.383602 -0.254516
C25   C     C_R   0.769178 0.501136 0.499970 -0.069506
C26   C     C_R   0.814747 0.464395 0.616559 -0.249165
C27   C     C_R   0.907032 0.463951 0.617366 0.117475
C28   C     C_R   0.953583 0.501914 0.500165 0.060188
C29   C     C_3   0.337970 0.778441 0.779043 0.164293
C30   C     C_3   0.247775 0.749235 0.842437 -0.824044
C31   C     C_2   0.524095 0.888212 0.830094 0.861623
C32   C     C_R   0.046057 0.424494 0.732462 -0.216966
C33   C     C_R   0.092626 0.462066 0.616564 0.122961
C34   C     C_R   0.046403 0.501636 0.500059 0.063038
C35   C     C_R   0.093030 0.540574 0.383339 0.119885
C36   C     C_R   0.046740 0.578814 0.267702 -0.214404
C37   C     C_R   0.953998 0.578105 0.267390 -0.214988
H1    H     H_    0.778836 0.568075 0.294126 0.154393
H2    H     H_    0.778457 0.434729 0.706009 0.160781
H3    H     H_    0.325642 0.318847 0.120341 0.212128
H4    H     H_    0.917952 0.396635 0.823329 0.149664
H5    H     H_    0.081293 0.394422 0.822371 0.151830
H6    H     H_    0.220700 0.427309 0.702612 0.155225
H7    H     H_    0.221671 0.572902 0.296423 0.151441
H8    H     H_    0.082213 0.608674 0.177699 0.149241
H9    H     H_    0.918833 0.607412 0.177133 0.148519
H10   H     H_    0.552817 0.110391 0.295335 0.169871
H11   H     H_    0.388052 0.712658 0.820388 0.169784
H12   H     H_    0.553201 0.884418 0.298268 0.170901
H13   H     H_    0.331445 0.764806 0.667455 0.134808
H14   H     H_    0.197645 0.818923 0.809835 0.266472
H15   H     H_    0.224608 0.655392 0.809431 0.203667
H16   H     H_    0.253081 0.751644 0.954882 0.254395
H17   H     H_    0.576964 0.844776 0.011653 0.319570
H18   H     H_    0.386658 0.128230 0.784678 0.214503
H19   H     H_    0.511269 0.123828 0.786005 0.176948
H20   H     H_    0.604810 0.630938 0.127885 0.136944
H21   H     H_    0.605434 0.629837 0.874751 0.181921
H22   H     H_    0.317828 0.493788 0.880394 0.213382
H23   H     H_    0.324975 0.319341 0.877387 0.201724
H24   H     H_    0.317463 0.493613 0.121431 0.213475
N1    N     N_R   0.499390 0.499140 0.142800 -0.111304
N2    N     N_R   0.499390 0.499180 0.857150 -0.126425
O1    O     O_R   0.500010 0.316790 0.614690 -0.617937
O2    O     O_2   0.594387 0.868063 0.770714 -0.657589
O3    O     O_R   0.518344 0.872086 0.970427 -0.788302
O4    O     O_R   0.500000 0.316760 0.385350 -0.623591
O5    O     O_R   0.367850 0.499990 0.614680 -0.645254
O6    O     O_R   0.367840 0.499950 0.385340 -0.622180
O7    O     O_R   0.500000 0.683240 0.614650 -0.632370
O8    O     O_R   0.499990 0.683210 0.385310 -0.619061
O9    O     O_R   0.632160 0.500050 0.614660 -0.617417
O10   O     O_R   0.632150 0.500010 0.385320 -0.631744
O11   O     O_3   0.360795 0.903093 0.811430 -0.601861
Zn1   Zn    Zn3+2 0.500010 0.500020 0.653130 0.941979
Zn2   Zn    Zn3+2 0.499990 0.499980 0.346870 0.953714

loop_
_geom_bond_atom_site_label_1
_geom_bond_atom_site_label_2
_ccdc_geom_bond_type
C31   O3    S    
C14   H19   S    
C30   H14   S    
C19   C20   S    
C7    C8    A    
O5    Zn1   S    
C15   C19   A    
C26   C27   A    
C12   C28   A    
C36   C37   A    
O8    Zn2   S    
C26   H2    S    
O6    Zn2   S    
C34   C35   A    
C12   C37   A    
O1    Zn1   S    
C35   C36   A    
C19   N2    A    
C8    C9    A    
C22   C25   S    
C24   H1    S    
C23   C27   A    
C20   H23   S    
C9    C10   A    
C21   H24   S    
C14   H18   S    
C28   C34   A    
C13   C14   S    
N1    Zn2   S    
C16   O8    A    
O9    Zn1   S    
C22   O9    A    
C4    O6    A    
C18   H21   S    
C17   C18   A    
C29   H13   S    
C30   H16   S    
C29   H11   S    
C9    H12   S    
C24   C25   A    
C6    C11   A    
C4    O5    A    
C29   O11   S    
C25   C26   A    
C29   C30   S    
C17   N1    A    
C6    C14   S    
C2    H6    S    
C33   C34   A    
C16   O7    A    
C36   H8    S    
C13   O11   S    
C20   H22   S    
C2    C33   A    
C5    H7    S    
O10   Zn2   S    
C3    C4    S    
C1    O1    A    
O7    Zn1   S    
C31   O2    D    
C30   H15   S    
C1    C7    S    
C13   C31   S    
C3    C5    A    
C6    C7    A    
H17   O3    S    
C12   C24   A    
C23   H4    S    
C23   C32   A    
C2    C3    A    
C8    H10   S    
C10   C16   S    
C32   C33   A    
C11   C13   S    
C21   H3    S    
N2    Zn1   S    
C5    C35   A    
C1    O4    A    
C15   N1    A    
C18   N2    A    
C10   C11   A    
C15   C21   S    
C20   C21   S    
C27   C28   A    
C32   H5    S    
O4    Zn2   S    
C22   O10   A    
C37   H9    S    
C17   H20   S    
