data_mof_unit_65400.cif
_audit_creation_date              2013-03-05T16:15:45-0500
_audit_creation_method            fapswitch 2.2
_symmetry_space_group_name_H-M    P1
_symmetry_Int_Tables_number       1
_space_group_crystal_system       triclinic
_cell_length_a                    34.521679
_cell_length_b                    24.427618
_cell_length_c                    24.416547
_cell_angle_alpha                 89.999649
_cell_angle_beta                  89.995345
_cell_angle_gamma                 89.99694
_cell_volume                      20590.0439468

loop_
_atom_site_label
_atom_site_type_symbol
_atom_site_description
_atom_site_fract_x
_atom_site_fract_y
_atom_site_fract_z
_atom_type_partial_charge
Zn1   Zn    Zn3+2 0.782760 0.500000 0.564970 0.966063
Zn2   Zn    Zn3+2 0.217240 0.500000 0.435030 0.965915
Zn3   Zn    Zn3+2 0.782760 0.500000 0.435030 0.962695
Zn4   Zn    Zn3+2 0.217240 0.500000 0.564970 0.963035
Zn5   Zn    Zn3+2 0.282760 0.000000 0.064970 0.962287
Zn6   Zn    Zn3+2 0.717240 0.000000 0.935030 0.966413
Zn7   Zn    Zn3+2 0.282760 0.000000 0.935030 0.962757
Zn8   Zn    Zn3+2 0.717240 0.000000 0.064970 0.965778
Zn9   Zn    Zn3+2 0.717260 0.564980 0.500000 0.964590
Zn10  Zn    Zn3+2 0.282740 0.435020 0.500000 0.964672
Zn11  Zn    Zn3+2 0.717260 0.435020 0.500000 0.964688
Zn12  Zn    Zn3+2 0.282740 0.564980 0.500000 0.964452
Zn13  Zn    Zn3+2 0.217260 0.064980 0.000000 0.964995
Zn14  Zn    Zn3+2 0.782740 0.935020 0.000000 0.964595
Zn15  Zn    Zn3+2 0.217260 0.935020 0.000000 0.964804
Zn16  Zn    Zn3+2 0.782740 0.064980 0.000000 0.964560
O1    O     O_3   0.750010 0.500000 0.500000 -0.472970
O2    O     O_3   0.249990 0.500000 0.500000 -0.472993
O3    O     O_3   0.250010 0.000000 0.000000 -0.472403
O4    O     O_3   0.749990 0.000000 0.000000 -0.473502
O5    O     O_R   0.772930 0.563990 0.390540 -0.645667
O6    O     O_R   0.227070 0.436010 0.609460 -0.645930
O7    O     O_R   0.772930 0.436010 0.609460 -0.646587
O8    O     O_R   0.227070 0.563990 0.390540 -0.645473
O9    O     O_R   0.227070 0.436010 0.390540 -0.644684
O10   O     O_R   0.772930 0.563990 0.609460 -0.645399
O11   O     O_R   0.227070 0.563990 0.609460 -0.645904
O12   O     O_R   0.772930 0.436010 0.390540 -0.646016
O13   O     O_R   0.272930 0.063990 0.890540 -0.646966
O14   O     O_R   0.727070 0.936010 0.109460 -0.646474
O15   O     O_R   0.272930 0.936010 0.109460 -0.647180
O16   O     O_R   0.727070 0.063990 0.890540 -0.644805
O17   O     O_R   0.727070 0.936010 0.890540 -0.646511
O18   O     O_R   0.272930 0.063990 0.109460 -0.647723
O19   O     O_R   0.727070 0.063990 0.109460 -0.646833
O20   O     O_R   0.272930 0.936010 0.890540 -0.647742
O21   O     O_R   0.727090 0.609470 0.563990 -0.644851
O22   O     O_R   0.272910 0.390530 0.436010 -0.646394
O23   O     O_R   0.727090 0.390530 0.436010 -0.644711
O24   O     O_R   0.272910 0.609470 0.563990 -0.646244
O25   O     O_R   0.272910 0.390530 0.563990 -0.644714
O26   O     O_R   0.727090 0.609470 0.436010 -0.647906
O27   O     O_R   0.272910 0.609470 0.436010 -0.644852
O28   O     O_R   0.727090 0.390530 0.563990 -0.646061
O29   O     O_R   0.227090 0.109470 0.063990 -0.645822
O30   O     O_R   0.772910 0.890530 0.936010 -0.647754
O31   O     O_R   0.227090 0.890530 0.936010 -0.645859
O32   O     O_R   0.772910 0.109470 0.063990 -0.647788
O33   O     O_R   0.772910 0.890530 0.063990 -0.644741
O34   O     O_R   0.227090 0.109470 0.936010 -0.647704
O35   O     O_R   0.772910 0.109470 0.936010 -0.646355
O36   O     O_R   0.227090 0.890530 0.063990 -0.647681
O37   O     O_R   0.662570 0.545500 0.500000 -0.647150
O38   O     O_R   0.337430 0.454500 0.500000 -0.648926
O39   O     O_R   0.662570 0.454500 0.500000 -0.649186
O40   O     O_R   0.337430 0.545500 0.500000 -0.648861
O41   O     O_R   0.162570 0.045500 0.000000 -0.646129
O42   O     O_R   0.837430 0.954500 0.000000 -0.647660
O43   O     O_R   0.162570 0.954500 0.000000 -0.646140
O44   O     O_R   0.837430 0.045500 0.000000 -0.646003
O45   O     O_R   0.837440 0.500000 0.454520 -0.651407
O46   O     O_R   0.162560 0.500000 0.545480 -0.650817
O47   O     O_R   0.837440 0.500000 0.545480 -0.648164
O48   O     O_R   0.162560 0.500000 0.454520 -0.649999
O49   O     O_R   0.337440 0.000000 0.954520 -0.648502
O50   O     O_R   0.662560 0.000000 0.045480 -0.646908
O51   O     O_R   0.337440 0.000000 0.045480 -0.649046
O52   O     O_R   0.662560 0.000000 0.954520 -0.648288
C1    C     C_R   0.750022 0.605108 0.394900 0.781752
C2    C     C_R   0.249982 0.394895 0.605103 0.783309
C3    C     C_R   0.750012 0.394901 0.605108 0.781844
C4    C     C_R   0.249978 0.605107 0.394901 0.782708
C5    C     C_R   0.249990 0.394900 0.394892 0.782633
C6    C     C_R   0.750018 0.605108 0.605103 0.783007
C7    C     C_R   0.249986 0.605101 0.605107 0.782408
C8    C     C_R   0.750013 0.394900 0.394892 0.783272
C9    C     C_R   0.250017 0.105106 0.894895 0.781388
C10   C     C_R   0.749987 0.894897 0.105110 0.782693
C11   C     C_R   0.250012 0.894898 0.105107 0.781193
C12   C     C_R   0.749982 0.105107 0.894899 0.782589
C13   C     C_R   0.749984 0.894896 0.894898 0.780827
C14   C     C_R   0.250021 0.105110 0.105100 0.781937
C15   C     C_R   0.749979 0.105107 0.105102 0.780831
C16   C     C_R   0.250018 0.894895 0.894895 0.781739
C17   C     C_R   0.644260 0.500001 0.499998 0.785744
C18   C     C_R   0.355740 0.499999 0.500000 0.785026
C19   C     C_R   0.144259 0.000001 0.999999 0.788039
C20   C     C_R   0.855740 0.999999 0.999997 0.787212
C21   C     C_R   0.855919 0.500064 0.499992 0.808317
C22   C     C_R   0.144080 0.500098 0.500009 0.807360
C23   C     C_R   0.355918 0.000038 0.999996 0.808472
C24   C     C_R   0.644090 0.000070 0.000000 0.811411
C25   C     C_R   0.081340 0.503716 0.450624 -0.224333
C26   C     C_R   0.918670 0.501209 0.549435 -0.220331
C27   C     C_R   0.081342 0.501566 0.549599 -0.237124
C28   C     C_R   0.918660 0.503593 0.450457 -0.235819
C29   C     C_R   0.581344 0.004007 0.049408 -0.219794
C30   C     C_R   0.418660 0.999305 0.950490 -0.238393
C31   C     C_R   0.581352 0.999666 0.950508 -0.216762
C32   C     C_R   0.418652 0.003859 0.049391 -0.236213
C33   C     C_R   0.101584 0.501568 0.500066 -0.061368
C34   C     C_R   0.898416 0.501367 0.499960 -0.063311
C35   C     C_R   0.601612 0.001078 0.999982 -0.077270
C36   C     C_R   0.398425 0.000869 0.999970 -0.048833
C37   C     C_R   0.040742 0.502985 0.550554 0.038481
C38   C     C_R   0.959251 0.506138 0.449541 0.044149
C39   C     C_R   0.040820 0.506884 0.449844 0.050301
C40   C     C_R   0.959201 0.503113 0.550209 0.049411
C41   C     C_R   0.540788 0.000032 0.949753 0.049535
C42   C     C_R   0.459223 0.006129 0.050258 0.044272
C43   C     C_R   0.540789 0.006849 0.050127 0.049629
C44   C     C_R   0.459248 0.000088 0.949537 0.038559
C45   C     C_R   0.020364 0.505327 0.500131 -0.025349
C46   C     C_R   0.979648 0.505039 0.499946 -0.026154
C47   C     C_R   0.520348 0.003779 0.999916 -0.037917
C48   C     C_R   0.479635 0.003485 0.999900 -0.013253
C49   C     C_R   0.020142 0.501569 0.600727 0.139403
C50   C     C_R   0.979790 0.510075 0.399434 0.127762
C51   C     C_R   0.020588 0.510561 0.399636 0.167894
C52   C     C_R   0.979410 0.502649 0.600431 0.163803
C53   C     C_R   0.520545 0.996745 0.899679 0.164552
C54   C     C_R   0.479725 0.011329 0.100298 0.126499
C55   C     C_R   0.520520 0.011757 0.100176 0.168888
C56   C     C_R   0.479824 0.997689 0.899370 0.138434
H1    H     H_    0.097495 0.502804 0.412652 0.195730
H2    H     H_    0.902586 0.499111 0.587450 0.195071
H3    H     H_    0.097698 0.499797 0.587270 0.171132
H4    H     H_    0.902298 0.503308 0.412762 0.170591
H5    H     H_    0.597502 0.004187 0.087384 0.197272
H6    H     H_    0.402292 0.997289 0.912843 0.171626
H7    H     H_    0.597462 0.997863 0.912500 0.195774
H8    H     H_    0.402276 0.004601 0.087070 0.170903
C57   C     C_R   0.781683 0.306999 0.723325 -0.180926
C58   C     C_R   0.218186 0.693138 0.276843 -0.181229
C59   C     C_R   0.781817 0.693155 0.276857 -0.181132
C60   C     C_R   0.218231 0.306887 0.723201 -0.181018
C61   C     C_R   0.218292 0.693038 0.723293 -0.181046
C62   C     C_R   0.781700 0.306940 0.276721 -0.181108
C63   C     C_R   0.218320 0.306956 0.276714 -0.180688
C64   C     C_R   0.765557 0.676686 0.739657 -0.181288
C65   C     C_R   0.265414 0.823401 0.239735 -0.181387
C66   C     C_R   0.734531 0.176660 0.760314 -0.180726
C67   C     C_R   0.265500 0.176650 0.760310 -0.181194
C68   C     C_R   0.734565 0.823400 0.239737 -0.180983
C69   C     C_R   0.734440 0.176693 0.239652 -0.181422
C70   C     C_R   0.265469 0.823357 0.760299 -0.181282
C71   C     C_R   0.718233 0.806869 0.776827 -0.181228
C72   C     C_R   0.265577 0.176707 0.239635 -0.181177
H9    H     H_    0.806801 0.303133 0.749595 0.130498
H10   H     H_    0.193037 0.697051 0.250638 0.129824
H11   H     H_    0.806971 0.697079 0.250658 0.129959
H12   H     H_    0.193083 0.302967 0.749411 0.129874
H13   H     H_    0.193168 0.696919 0.749554 0.130020
H14   H     H_    0.806836 0.303030 0.250485 0.129715
H15   H     H_    0.193186 0.303047 0.250482 0.130701
H16   H     H_    0.777086 0.666790 0.779690 0.130111
H17   H     H_    0.276886 0.833333 0.279794 0.129858
H18   H     H_    0.723090 0.166733 0.720239 0.130553
H19   H     H_    0.276998 0.166740 0.720260 0.129861
H20   H     H_    0.723081 0.833320 0.279792 0.129854
H21   H     H_    0.722942 0.166788 0.279703 0.129916
H22   H     H_    0.276919 0.833283 0.720226 0.129894
H23   H     H_    0.693075 0.802923 0.750646 0.130147
H24   H     H_    0.277075 0.166802 0.279683 0.129793
C73   C     C_R   0.781562 0.347536 0.683294 -0.189691
C74   C     C_R   0.218335 0.652574 0.316848 -0.189261
C75   C     C_R   0.781669 0.652588 0.316859 -0.189450
C76   C     C_R   0.218364 0.347441 0.683186 -0.189223
C77   C     C_R   0.218417 0.652493 0.683271 -0.189396
C78   C     C_R   0.781584 0.347481 0.316748 -0.189337
C79   C     C_R   0.218429 0.347488 0.316749 -0.188106
C80   C     C_R   0.765828 0.636542 0.699234 -0.188980
C81   C     C_R   0.265711 0.863530 0.199297 -0.190737
C82   C     C_R   0.734272 0.136503 0.800724 -0.188005
C83   C     C_R   0.265779 0.136509 0.800736 -0.190448
C84   C     C_R   0.734271 0.863528 0.199297 -0.189042
C85   C     C_R   0.734182 0.136538 0.199241 -0.190447
C86   C     C_R   0.265734 0.863508 0.800716 -0.190963
C87   C     C_R   0.718361 0.847417 0.816847 -0.190312
C88   C     C_R   0.265824 0.136547 0.199229 -0.190971
H25   H     H_    0.806388 0.374434 0.679850 0.156341
H26   H     H_    0.193495 0.625707 0.320348 0.155317
H27   H     H_    0.806516 0.625731 0.320364 0.154527
H28   H     H_    0.193516 0.374294 0.679688 0.154898
H29   H     H_    0.193587 0.625604 0.679821 0.154559
H30   H     H_    0.806430 0.374337 0.320224 0.154546
H31   H     H_    0.193580 0.374341 0.320232 0.156767
H32   H     H_    0.777895 0.596722 0.708723 0.156489
H33   H     H_    0.277732 0.903372 0.208801 0.154135
H34   H     H_    0.722302 0.096638 0.791186 0.156698
H35   H     H_    0.277817 0.096674 0.791234 0.154269
H36   H     H_    0.722239 0.903368 0.208797 0.154917
H37   H     H_    0.722155 0.096700 0.208753 0.154571
H38   H     H_    0.277716 0.903368 0.791185 0.154169
H39   H     H_    0.693498 0.874241 0.820376 0.155581
H40   H     H_    0.277845 0.096705 0.208743 0.154190
C89   C     C_R   0.750003 0.352542 0.647505 0.002626
C90   C     C_R   0.249947 0.647498 0.352538 0.002513
C91   C     C_R   0.750050 0.647499 0.352540 0.003326
C92   C     C_R   0.249970 0.352519 0.647481 0.002447
C93   C     C_R   0.249988 0.647466 0.647497 0.003194
C94   C     C_R   0.750003 0.352541 0.352496 0.002561
C95   C     C_R   0.250008 0.352545 0.352493 0.002498
C96   C     C_R   0.750028 0.647490 0.647484 0.001791
C97   C     C_R   0.249995 0.852537 0.147507 0.003331
C98   C     C_R   0.749964 0.147496 0.852529 0.002397
C99   C     C_R   0.250021 0.147480 0.852510 0.003215
C100  C     C_R   0.750003 0.852538 0.147511 0.002356
C101  C     C_R   0.749951 0.147497 0.147470 0.003330
C102  C     C_R   0.250032 0.852514 0.852518 0.003231
C103  C     C_R   0.749978 0.852525 0.852519 0.003199
C104  C     C_R   0.250054 0.147506 0.147462 0.003145
C105  C     C_R   0.718430 0.316790 0.652501 -0.189406
C106  C     C_R   0.281530 0.683222 0.347488 -0.188481
C107  C     C_R   0.718458 0.683211 0.347485 -0.190937
C108  C     C_R   0.281568 0.316817 0.652533 -0.188459
C109  C     C_R   0.281565 0.683210 0.652496 -0.189497
C110  C     C_R   0.718404 0.316839 0.347464 -0.188433
C111  C     C_R   0.281612 0.316849 0.347449 -0.189488
C112  C     C_R   0.734225 0.699214 0.636509 -0.188442
C113  C     C_R   0.234235 0.800792 0.136514 -0.190920
C114  C     C_R   0.765648 0.199274 0.863572 -0.189259
C115  C     C_R   0.234250 0.199220 0.863505 -0.190793
C116  C     C_R   0.765774 0.800796 0.136525 -0.188298
C117  C     C_R   0.765701 0.199243 0.136459 -0.190836
C118  C     C_R   0.234331 0.800743 0.863552 -0.189475
C119  C     C_R   0.781594 0.816859 0.847428 -0.190762
C120  C     C_R   0.234315 0.199259 0.136449 -0.189301
H41   H     H_    0.693610 0.320248 0.625583 0.154468
H42   H     H_    0.306385 0.679716 0.374336 0.156099
H43   H     H_    0.693599 0.679693 0.374328 0.154190
H44   H     H_    0.306419 0.320329 0.625676 0.156079
H45   H     H_    0.306393 0.679738 0.625588 0.154392
H46   H     H_    0.693568 0.320339 0.374352 0.156080
H47   H     H_    0.306448 0.320349 0.374333 0.154307
H48   H     H_    0.722171 0.708687 0.596663 0.156280
H49   H     H_    0.222240 0.791288 0.096639 0.154315
H50   H     H_    0.777615 0.208779 0.903463 0.154588
H51   H     H_    0.222228 0.208709 0.903370 0.154358
H52   H     H_    0.777781 0.791294 0.096654 0.156298
H53   H     H_    0.777725 0.208724 0.096594 0.154373
H54   H     H_    0.222355 0.791237 0.903441 0.154519
H55   H     H_    0.806455 0.820398 0.874260 0.154172
H56   H     H_    0.222291 0.208741 0.096586 0.154597
C121  C     C_R   0.718287 0.276769 0.693044 -0.181005
C122  C     C_R   0.281642 0.723269 0.306972 -0.181170
C123  C     C_R   0.718346 0.723261 0.306972 -0.181032
C124  C     C_R   0.281697 0.276784 0.693063 -0.181066
C125  C     C_R   0.281703 0.723239 0.693030 -0.181302
C126  C     C_R   0.718256 0.276821 0.306921 -0.181164
C127  C     C_R   0.281767 0.276836 0.306899 -0.181236
C128  C     C_R   0.734464 0.739625 0.676662 -0.181175
C129  C     C_R   0.234447 0.760397 0.176685 -0.181286
C130  C     C_R   0.765396 0.239697 0.823431 -0.181054
C131  C     C_R   0.234481 0.239627 0.823348 -0.181198
C132  C     C_R   0.765560 0.760403 0.176697 -0.180993
C133  C     C_R   0.765446 0.239665 0.176600 -0.181335
C134  C     C_R   0.234576 0.760327 0.823404 -0.181231
C135  C     C_R   0.781729 0.776833 0.806892 -0.181256
C136  C     C_R   0.234579 0.239686 0.176584 -0.181085
H57   H     H_    0.693161 0.250523 0.696893 0.130065
H58   H     H_    0.306781 0.749482 0.303069 0.130087
H59   H     H_    0.693201 0.749466 0.303065 0.130089
H60   H     H_    0.306846 0.250586 0.696965 0.130167
H61   H     H_    0.306833 0.749476 0.696884 0.129665
H62   H     H_    0.693108 0.250621 0.303040 0.130045
H63   H     H_    0.306917 0.250637 0.303010 0.129517
H64   H     H_    0.722927 0.779633 0.666746 0.130158
H65   H     H_    0.222950 0.720371 0.166757 0.129949
H66   H     H_    0.776839 0.279745 0.833395 0.129843
H67   H     H_    0.222972 0.279648 0.833278 0.129925
H68   H     H_    0.777067 0.720379 0.166773 0.130358
H69   H     H_    0.776943 0.279688 0.166667 0.129929
H70   H     H_    0.223120 0.720284 0.833362 0.129972
H71   H     H_    0.806892 0.750664 0.802960 0.129799
H72   H     H_    0.223087 0.279713 0.166642 0.130079
C137  C     C_R   0.749980 0.271369 0.728697 0.113982
C138  C     C_R   0.249907 0.728726 0.271404 0.113893
C139  C     C_R   0.750087 0.728731 0.271412 0.114233
C140  C     C_R   0.249964 0.271317 0.728640 0.113833
C141  C     C_R   0.250001 0.728656 0.728671 0.114077
C142  C     C_R   0.749970 0.271366 0.271307 0.113957
C143  C     C_R   0.250054 0.271384 0.271290 0.113764
C144  C     C_R   0.749998 0.728666 0.728677 0.113845
C145  C     C_R   0.249912 0.771395 0.228733 0.114420
C146  C     C_R   0.749969 0.228694 0.771361 0.113821
C147  C     C_R   0.249976 0.228647 0.771310 0.114402
C148  C     C_R   0.750081 0.771398 0.228740 0.113793
C149  C     C_R   0.749951 0.228693 0.228639 0.114401
C150  C     C_R   0.250013 0.771329 0.771337 0.114200
C151  C     C_R   0.749984 0.771335 0.771348 0.114358
C152  C     C_R   0.250074 0.228713 0.228621 0.114320
C153  C     C_R   0.541597 0.546659 0.482883 -0.183036
C154  C     C_R   0.458404 0.453325 0.482915 -0.183318
C155  C     C_R   0.541598 0.453336 0.517077 -0.183083
C156  C     C_R   0.458401 0.546670 0.517053 -0.183020
C157  C     C_R   0.041596 0.046674 0.982916 -0.182434
C158  C     C_R   0.958403 0.953338 0.982865 -0.182436
C159  C     C_R   0.041595 0.953321 0.017030 -0.182456
C160  C     C_R   0.958401 0.046656 0.017077 -0.182468
H73   H     H_    0.526467 0.582786 0.468627 0.130699
H74   H     H_    0.473535 0.417189 0.468681 0.130552
H75   H     H_    0.526468 0.417207 0.531330 0.130657
H76   H     H_    0.473530 0.582806 0.531283 0.130913
H77   H     H_    0.026467 0.082813 0.968690 0.131421
H78   H     H_    0.973534 0.917214 0.968602 0.131024
H79   H     H_    0.026465 0.917180 0.031250 0.131352
H80   H     H_    0.973530 0.082780 0.031336 0.131457
C161  C     C_R   0.581807 0.546792 0.483267 -0.191061
C162  C     C_R   0.418194 0.453194 0.483300 -0.192510
C163  C     C_R   0.581808 0.453206 0.516706 -0.192440
C164  C     C_R   0.418191 0.546800 0.516682 -0.192504
C165  C     C_R   0.081806 0.046807 0.983306 -0.189903
C166  C     C_R   0.918193 0.953207 0.983253 -0.191026
C167  C     C_R   0.081806 0.953193 0.016663 -0.189996
C168  C     C_R   0.918191 0.046786 0.016708 -0.189896
H81   H     H_    0.597013 0.583162 0.469768 0.154748
H82   H     H_    0.402989 0.416817 0.469824 0.154482
H83   H     H_    0.597014 0.416837 0.530209 0.154559
H84   H     H_    0.402985 0.583178 0.530164 0.154587
H85   H     H_    0.097012 0.083189 0.969842 0.156580
H86   H     H_    0.902987 0.916841 0.969749 0.154837
H87   H     H_    0.097010 0.916811 0.030135 0.156552
H88   H     H_    0.902985 0.083154 0.030218 0.156548
C169  C     C_R   0.602079 0.500001 0.499991 0.006549
C170  C     C_R   0.397921 0.499997 0.499995 0.006668
C171  C     C_R   0.102078 0.000001 0.999991 0.004985
C172  C     C_R   0.897921 0.999997 0.999987 0.005738
C173  C     C_R   0.521223 0.499997 0.499978 0.115619
C174  C     C_R   0.478777 0.499998 0.499981 0.115790
C175  C     C_R   0.021222 0.999996 0.999968 0.115179
C176  C     C_R   0.978776 0.999997 0.999968 0.115395
N1    N     N_2   0.039723 0.500845 0.652128 -0.308886
H89   H     H_    0.061434 0.529521 0.656227 0.223212
C177  C     C_3   0.050369 0.446874 0.671417 -0.815291
H90   H     H_    0.072538 0.428300 0.644199 0.241611
H91   H     H_    0.024599 0.419684 0.672826 0.243350
H92   H     H_    0.062500 0.450034 0.713404 0.241994
N2    N     N_2   0.960069 0.512904 0.348197 -0.314918
H93   H     H_    0.940429 0.481813 0.341580 0.217780
C178  C     C_3   0.945498 0.566550 0.333630 -0.781539
H94   H     H_    0.920820 0.578269 0.360288 0.234143
H95   H     H_    0.935414 0.566032 0.290466 0.236175
H96   H     H_    0.968504 0.597948 0.337655 0.248452
N3    N     N_2   0.041390 0.511905 0.349054 -0.307561
H97   H     H_    0.028020 0.492333 0.316762 0.249024
C179  C     C_3   0.057003 0.564819 0.333944 -0.793463
H98   H     H_    0.033465 0.592727 0.320840 0.242895
H99   H     H_    0.077474 0.559692 0.299257 0.237223
H100  H     H_    0.072924 0.583793 0.368605 0.244160
N4    N     N_2   0.958590 0.504122 0.650897 -0.311971
H101  H     H_    0.969945 0.479931 0.681511 0.252149
C180  C     C_3   0.949513 0.558760 0.669781 -0.790512
H102  H     H_    0.976561 0.581297 0.679850 0.246816
H103  H     H_    0.931264 0.556242 0.707142 0.237893
H104  H     H_    0.933158 0.581644 0.637967 0.247611
N5    N     N_2   0.541294 0.991062 0.849458 -0.310098
H105  H     H_    0.530154 0.013311 0.817242 0.252132
C181  C     C_3   0.549560 0.934966 0.834492 -0.794374
H106  H     H_    0.567850 0.934311 0.797092 0.237474
H107  H     H_    0.522194 0.912564 0.825968 0.247962
H108  H     H_    0.565566 0.913896 0.867878 0.245556
N6    N     N_2   0.459966 0.015636 0.151408 -0.315561
H109  H     H_    0.440268 0.984807 0.158865 0.218786
C182  C     C_3   0.445497 0.069719 0.164494 -0.777455
H110  H     H_    0.420735 0.080700 0.137685 0.235720
H111  H     H_    0.468509 0.100950 0.159368 0.247945
H112  H     H_    0.435565 0.070487 0.207727 0.236333
N7    N     N_2   0.541274 0.014342 0.150743 -0.307892
H113  H     H_    0.527898 0.995478 0.183456 0.248854
C183  C     C_3   0.556804 0.067629 0.164658 -0.788417
H114  H     H_    0.533245 0.095666 0.177409 0.242222
H115  H     H_    0.572538 0.085995 0.129495 0.245178
H116  H     H_    0.577421 0.063298 0.199276 0.238004
N8    N     N_2   0.460249 0.993750 0.848115 -0.309570
H117  H     H_    0.439019 0.964140 0.846262 0.223725
C184  C     C_3   0.448821 0.045694 0.824648 -0.809845
H118  H     H_    0.436652 0.038860 0.783122 0.241661
H119  H     H_    0.474232 0.073340 0.820904 0.243109
H120  H     H_    0.426454 0.065762 0.850451 0.243631

loop_
_geom_bond_atom_site_label_1
_geom_bond_atom_site_label_2
_geom_bond_distance
_ccdc_geom_bond_type
C31   C35   1.396313 A    
C107  C123  1.391251 A    
N5    H105  1.030563 S    
Zn7   O13   1.933526 S    
C28   C34   1.397189 A    
C126  C142  1.404404 A    
C40   C52   1.410922 A    
Zn6   O16   1.933525 S    
C83   C99   1.402034 A    
Zn5   O51   1.946673 S    
C89   C105  1.402038 A    
C71   C151  1.404514 A    
N1    H89   1.030768 S    
C32   C42   1.401841 A    
C85   H37   1.083214 S    
Zn3   O12   1.933569 S    
C64   C144  1.404476 A    
C44   C56   1.417100 A    
C32   C36   1.396136 A    
C57   C137  1.404480 A    
O33   C10   1.282753 A    
O49   C23   1.280605 A    
C65   C145  1.404480 A    
O35   C12   1.282819 A    
C39   C45   1.416888 A    
C184  H120  1.110573 S    
Zn2   O48   1.946673 S    
C63   C79   1.391355 A    
C67   C83   1.391342 A    
C68   H20   1.082746 S    
C88   H40   1.083214 S    
Zn4   O2    1.947924 S    
C62   H14   1.082736 S    
N8    C184  1.447042 S    
C93   C109  1.402043 A    
C38   C50   1.417256 A    
Zn10  O25   1.933217 S    
C110  C126  1.391273 A    
C20   C172  1.456142 S    
C95   C111  1.402039 A    
C66   H18   1.082744 S    
O11   C7    1.282841 A    
C180  H103  1.110295 S    
C86   C102  1.402030 A    
C52   N4    1.426925 S    
C49   N1    1.425674 S    
C114  C130  1.391295 A    
C109  H45   1.083210 S    
C177  H91   1.110749 S    
C87   H39   1.083241 S    
C31   H7    1.082740 S    
C113  H49   1.083210 S    
Zn8   O19   1.933567 S    
Zn12  O24   1.933207 S    
C74   C90   1.402071 A    
O16   C12   1.282894 A    
C86   H38   1.083211 S    
O40   C18   1.278622 A    
C120  H56   1.083209 S    
Zn16  O4    1.948833 S    
C61   H13   1.082742 S    
C15   C101  1.463684 S    
C64   H16   1.082743 S    
C65   H17   1.082799 S    
C13   C103  1.463566 S    
Zn7   O3    1.947926 S    
C112  C128  1.391297 A    
C53   N5    1.426807 S    
C30   H6    1.080182 S    
C90   C106  1.401999 A    
O34   C9    1.282752 A    
C42   C48   1.418582 A    
C105  H41   1.083207 S    
C116  C132  1.391292 A    
C51   N3    1.428977 S    
C153  C173  1.402927 A    
C2    C92   1.463599 S    
O42   C20   1.278622 A    
N8    H117  1.030727 S    
C32   H8    1.079927 S    
C143  C152  1.473746 S    
C108  C124  1.391256 A    
C162  H82   1.083288 S    
Zn6   O17   1.933508 S    
Zn10  O22   1.933274 S    
C84   C100  1.402035 A    
C140  C147  1.473729 S    
C115  H51   1.083210 S    
C182  H110  1.109612 S    
Zn13  O29   1.933274 S    
C41   C53   1.410591 A    
C69   H21   1.082740 S    
C160  C168  1.388140 A    
O52   C24   1.280457 A    
C156  C174  1.402919 A    
Zn3   O1    1.947926 S    
O43   C19   1.278623 A    
C78   C94   1.401996 A    
C177  H90   1.110456 S    
C71   C87   1.391371 A    
C26   C34   1.395820 A    
C181  H106  1.110299 S    
C82   C98   1.402021 A    
O37   C17   1.278636 A    
C123  H59   1.082738 S    
C124  H60   1.082739 S    
C31   C41   1.400498 A    
C12   C98   1.463689 S    
C136  C152  1.404416 A    
C99   C115  1.402064 A    
C138  C145  1.473723 S    
C131  C147  1.404397 A    
C134  H70   1.082740 S    
N4    H101  1.030357 S    
C74   H26   1.083255 S    
Zn16  O35   1.933245 S    
C121  H57   1.082738 S    
O44   C20   1.278625 A    
C133  C149  1.404408 A    
C5    C95   1.463628 S    
C28   H4    1.079949 S    
C91   C107  1.402002 A    
C37   C45   1.419163 A    
Zn10  O2    1.948738 S    
C9    C99   1.463697 S    
C118  H54   1.083214 S    
Zn13  O41   1.947062 S    
C47   C48   1.405521 A    
C70   C86   1.391359 A    
Zn16  O44   1.947013 S    
C125  H61   1.082739 S    
C88   C104  1.402048 A    
C29   H5    1.082134 S    
C166  H86   1.083287 S    
O36   C11   1.282808 A    
C19   C171  1.456173 S    
C157  C165  1.388154 A    
C102  C118  1.402056 A    
O47   C21   1.280784 A    
C109  C125  1.391279 A    
C18   C170  1.456152 S    
C157  H77   1.082942 S    
C14   C104  1.463697 S    
C178  H95   1.110016 S    
C113  C129  1.391304 A    
C30   C44   1.401489 A    
C72   H24   1.082740 S    
C111  H47   1.083212 S    
C181  H107  1.111464 S    
C182  H112  1.110010 S    
O38   C18   1.278630 A    
O50   C24   1.280532 A    
C11   C97   1.463725 S    
C4    C90   1.463611 S    
O41   C19   1.278641 A    
O5    C1    1.282764 A    
Zn4   O6    1.933528 S    
C162  C170  1.401042 A    
C63   H15   1.082737 S    
C183  H116  1.110092 S    
C68   C84   1.391361 A    
C56   N8    1.425566 S    
C58   C74   1.391400 A    
C54   N6    1.426021 S    
Zn11  O28   1.933241 S    
C127  C143  1.404414 A    
C165  C171  1.401038 A    
C105  C121  1.391282 A    
C116  H52   1.083202 S    
C168  H88   1.083283 S    
C66   C146  1.404468 A    
Zn1   O10   1.933506 S    
C153  H73   1.082942 S    
C159  H79   1.082942 S    
C44   C48   1.419336 A    
Zn4   O11   1.933567 S    
O8    C4    1.282824 A    
C155  H75   1.082943 S    
C156  H76   1.082942 S    
C120  C136  1.391287 A    
C100  C116  1.402075 A    
Zn1   O1    1.948073 S    
O32   C15   1.282794 A    
C94   C110  1.402037 A    
C71   H23   1.082739 S    
C179  H100  1.110502 S    
C166  C172  1.401038 A    
C6    C96   1.463760 S    
C98   C114  1.402058 A    
C92   C108  1.402008 A    
C181  H108  1.111202 S    
O9    C5    1.282852 A    
C123  C139  1.404400 A    
C10   C100  1.463737 S    
C184  H119  1.110833 S    
Zn13  O34   1.933220 S    
C136  H72   1.082737 S    
O13   C9    1.282821 A    
O7    C3    1.282870 A    
C72   C88   1.391340 A    
C59   C75   1.391386 A    
C121  C137  1.404409 A    
O18   C14   1.282820 A    
O6    C2    1.282776 A    
C27   C33   1.396719 A    
C167  C171  1.401046 A    
N7    C183  1.448211 S    
O21   C6    1.282830 A    
C67   C147  1.404485 A    
C68   C148  1.404476 A    
Zn7   O20   1.933569 S    
O48   C22   1.280823 A    
C161  C169  1.401037 A    
C158  C166  1.388162 A    
C180  H102  1.111503 S    
C7    C93   1.463645 S    
Zn14  O30   1.933274 S    
C164  C170  1.401043 A    
Zn15  O3    1.948837 S    
C70   H22   1.082743 S    
C125  C141  1.404402 A    
C96   C112  1.402071 A    
C59   C139  1.404510 A    
C60   C140  1.404514 A    
C29   C43   1.401845 A    
C16   C102  1.463690 S    
C62   C78   1.391369 A    
C168  C172  1.401029 A    
C26   H2    1.082778 S    
C117  H53   1.083211 S    
C183  H114  1.107855 S    
C72   C152  1.404477 A    
Zn4   O46   1.946748 S    
C132  C148  1.404385 A    
C40   C46   1.416491 A    
C80   C96   1.402049 A    
O10   C6    1.282861 A    
C60   H12   1.082740 S    
C128  H64   1.082738 S    
C129  H65   1.082742 S    
C163  H83   1.083293 S    
N6    H109  1.030875 S    
C164  H84   1.083287 S    
C135  H71   1.082737 S    
N3    C179  1.448243 S    
C122  H58   1.082741 S    
C141  C150  1.473733 S    
C153  C161  1.388160 A    
C134  C150  1.404402 A    
C130  C146  1.404411 A    
C61   C141  1.404492 A    
N5    C181  1.446566 S    
C111  C127  1.391294 A    
C37   C49   1.416886 A    
C101  C117  1.402051 A    
C39   C51   1.413804 A    
C179  H99   1.110090 S    
N1    C177  1.447407 S    
C159  C175  1.402913 A    
Zn14  O42   1.947063 S    
Zn13  O3    1.948734 S    
C43   C55   1.413226 A    
C58   C138  1.404507 A    
Zn14  O4    1.948738 S    
C126  H62   1.082738 S    
C76   H28   1.083239 S    
C49   C52   1.406375 A    
C179  H98   1.107862 S    
O19   C15   1.282825 A    
O39   C17   1.278616 A    
C175  C176  1.465314 S    
C57   C73   1.391357 A    
Zn7   O49   1.946748 S    
N2    H93   1.030864 S    
C78   H30   1.083214 S    
O51   C23   1.280686 A    
O31   C16   1.282776 A    
C163  C169  1.401042 A    
C69   C149  1.404491 A    
C82   H34   1.083201 S    
Zn9   O37   1.947063 S    
C25   C33   1.395936 A    
O12   C8    1.282844 A    
C180  H104  1.111177 S    
Zn11  O39   1.947013 S    
C45   C46   1.405610 A    
C154  C174  1.402926 A    
Zn11  O1    1.948837 S    
C76   C92   1.402037 A    
Zn15  O43   1.947013 S    
C177  H92   1.110147 S    
N4    C180  1.446403 S    
C67   H19   1.082742 S    
Zn5   O3    1.948073 S    
C79   H31   1.083217 S    
Zn6   O4    1.948075 S    
O24   C7    1.282757 A    
Zn8   O14   1.933528 S    
C77   H29   1.083220 S    
C128  C144  1.404400 A    
C42   C54   1.417753 A    
C119  H55   1.083213 S    
C59   H11   1.082743 S    
Zn2   O9    1.933508 S    
C8    C94   1.463632 S    
C155  C173  1.402922 A    
C79   C95   1.401995 A    
C25   H1    1.082134 S    
C154  H74   1.082942 S    
C77   C93   1.402013 A    
C104  C120  1.402046 A    
C27   H3    1.080166 S    
C81   C97   1.402027 A    
O25   C2    1.282748 A    
Zn8   O50   1.946748 S    
O27   C4    1.282850 A    
C21   C34   1.467398 S    
Zn2   O2    1.948075 S    
C173  C174  1.465328 S    
O29   C14   1.282837 A    
Zn15  O31   1.933209 S    
C23   C36   1.467530 S    
Zn16  O32   1.933209 S    
C66   C82   1.391344 A    
C131  H67   1.082739 S    
C178  H94   1.109635 S    
C132  H68   1.082742 S    
C26   C40   1.400096 A    
Zn9   O26   1.933219 S    
Zn8   O4    1.947924 S    
C97   C113  1.402082 A    
C38   C46   1.418215 A    
C107  H43   1.083212 S    
O20   C16   1.282844 A    
Zn12  O27   1.933243 S    
C73   C89   1.402020 A    
C182  H111  1.108535 S    
C83   H35   1.083212 S    
C129  C145  1.404388 A    
C84   H36   1.083209 S    
Zn14  O33   1.933217 S    
C58   H10   1.082744 S    
C87   C103  1.402025 A    
O28   C3    1.282819 A    
C160  C176  1.402915 A    
C85   C101  1.402037 A    
C122  C138  1.404400 A    
C50   C51   1.408482 A    
C53   C56   1.405997 A    
C27   C37   1.402223 A    
C24   C35   1.466638 S    
C167  H87   1.083280 S    
C161  H81   1.083292 S    
C155  C163  1.388149 A    
C144  C151  1.473746 S    
C183  H115  1.110579 S    
C61   C77   1.391369 A    
C119  C135  1.391264 A    
C160  H80   1.082940 S    
Zn6   O52   1.946673 S    
C64   C80   1.391342 A    
C103  C119  1.402004 A    
C65   C81   1.391352 A    
N6    C182  1.448045 S    
C62   C142  1.404510 A    
Zn1   O47   1.946673 S    
C17   C169  1.456145 S    
O45   C21   1.280529 A    
C3    C89   1.463643 S    
Zn3   O45   1.946748 S    
C75   H27   1.083254 S    
C124  C140  1.404398 A    
C55   N7    1.428951 S    
C57   H9    1.082738 S    
C110  H46   1.083203 S    
C60   C76   1.391381 A    
C156  C164  1.388150 A    
Zn15  O36   1.933241 S    
C130  H66   1.082739 S    
O26   C1    1.282746 A    
C127  H63   1.082738 S    
C22   C33   1.467492 S    
C118  C134  1.391285 A    
C157  C175  1.402922 A    
O30   C13   1.282783 A    
C142  C149  1.473748 S    
C154  C162  1.388155 A    
C135  C151  1.404417 A    
Zn5   O18   1.933506 S    
Zn9   O21   1.933272 S    
C106  C122  1.391250 A    
C29   C35   1.396751 A    
O23   C8    1.282749 A    
Zn11  O23   1.933209 S    
C184  H118  1.110177 S    
Zn12  O40   1.947013 S    
C158  H78   1.082940 S    
Zn9   O1    1.948736 S    
N2    C178  1.448008 S    
Zn1   O7    1.933527 S    
Zn2   O8    1.933525 S    
Zn3   O5    1.933526 S    
C69   C85   1.391341 A    
N7    H113  1.031262 S    
C178  H96   1.108504 S    
C28   C38   1.402852 A    
C75   C91   1.402051 A    
C112  H48   1.083202 S    
C165  H85   1.083281 S    
C50   N2    1.425995 S    
O15   C11   1.282923 A    
C159  C167  1.388148 A    
C137  C146  1.473723 S    
C133  H69   1.082685 S    
C63   C143  1.404496 A    
C73   H25   1.083214 S    
C139  C148  1.473715 S    
N3    H97   1.031189 S    
C117  C133  1.391274 A    
C25   C39   1.401109 A    
C70   C150  1.404481 A    
C114  H50   1.083213 S    
C80   H32   1.083204 S    
C30   C36   1.396020 A    
O46   C22   1.280513 A    
C81   H33   1.083208 S    
C158  C176  1.402926 A    
C108  H44   1.083204 S    
Zn10  O38   1.947062 S    
C41   C47   1.416435 A    
O14   C10   1.282842 A    
C115  C131  1.391285 A    
Zn12  O2    1.948835 S    
C1    C91   1.463573 S    
C43   C47   1.416599 A    
C54   C55   1.408340 A    
O17   C13   1.282806 A    
Zn5   O15   1.933527 S    
O22   C5    1.282768 A    
C106  H42   1.083203 S    
