data_mof_unit_45318.cif
_audit_creation_date              2012-10-26T20:03:17-0400
_audit_creation_method            fapswitch 2.2
_symmetry_space_group_name_H-M    P1
_symmetry_Int_Tables_number       1
_space_group_crystal_system       triclinic
_cell_length_a                    10.697377
_cell_length_b                    12.355622
_cell_length_c                    13.423465
_cell_angle_alpha                 116.311721
_cell_angle_beta                  79.1095
_cell_angle_gamma                 101.016759
_cell_volume                      1550.09943709

loop_
_atom_site_label
_atom_site_type_symbol
_atom_type_description
_atom_site_fract_x
_atom_site_fract_y
_atom_site_fract_z
_atom_type_partial_charge
C1    C     C_R   0.510955 0.854156 0.287388 0.518769
C2    C     C_R   0.559872 0.561814 0.027452 0.006985
C3    C     C_R   0.500689 0.639966 0.132924 -0.004435
C4    C     C_R   0.739903 0.999995 0.501160 0.554955
C5    C     C_R   0.522595 0.431959 0.984172 0.025925
C6    C     C_R   0.436624 0.386652 0.055870 0.021405
C7    C     C_R   0.395630 0.464139 0.164619 -0.149499
C8    C     C_R   0.417958 0.587692 0.199042 -0.119333
C9    C     C_R   0.552409 0.346352 0.870347 -0.026124
C10   C     C_R   0.404487 0.186958 0.906043 -0.145102
C11   C     C_R   0.520293 0.768543 0.166577 -0.037087
C12   C     C_3   0.021985 0.970469 0.574095 -0.164641
C13   C     C_R   0.718759 0.359959 0.347615 -0.028962
C14   C     C_R   0.323837 0.755897 0.639311 0.058878
C15   C     C_R   0.286263 0.657769 0.667994 0.199379
C16   C     C_R   0.489563 0.144931 0.711789 0.546215
C17   C     C_R   0.352582 0.555778 0.615361 -0.086202
C18   C     C_R   0.458107 0.550875 0.533384 -0.028603
C19   C     C_R   0.493399 0.654647 0.508279 0.162466
C20   C     C_R   0.530946 0.448291 0.476237 -0.040194
C21   C     C_R   0.642165 0.456372 0.401690 -0.016965
C22   C     C_R   0.676100 0.561569 0.383306 -0.180477
C23   C     C_3   0.936069 0.885798 0.481125 -0.154565
C24   C     C_R   0.600004 0.653926 0.430037 -0.090606
C25   C     C_R   0.500397 0.339187 0.491908 0.003695
C26   C     C_R   0.681327 0.254368 0.366379 0.379056
C27   C     C_R   0.260800 0.995583 0.492180 0.550900
C28   C     C_3   0.977203 0.019332 0.409413 -0.078661
C29   C     C_3   0.038266 0.907905 0.392542 -0.043170
C30   C     C_3   0.124337 0.992103 0.484959 0.043583
C31   C     C_3   0.062137 0.102282 0.502434 0.250133
C32   C     C_3   0.959546 0.081657 0.591548 -0.110773
C33   C     C_R   0.054418 0.807538 0.276359 0.030955
C34   C     C_3   0.876589 0.997111 0.498243 -0.004940
C35   C     C_R   0.947534 0.757462 0.215825 -0.089741
C36   C     C_R   0.960073 0.668549 0.105772 -0.098563
C37   C     C_R   0.079305 0.628990 0.054973 -0.070803
C38   C     C_R   0.185197 0.676630 0.115018 -0.108596
C39   C     C_R   0.172572 0.764543 0.226115 -0.102690
C40   C     C_R   0.658579 0.373374 0.792857 0.033621
C41   C     C_R   0.783111 0.352586 0.792777 -0.139225
C42   C     C_R   0.886356 0.387647 0.727839 -0.080676
C43   C     C_R   0.865839 0.441371 0.661017 -0.050288
C44   C     C_R   0.742201 0.461832 0.660154 -0.114638
C45   C     C_R   0.382317 0.265265 0.016986 -0.155456
C46   C     C_R   0.638432 0.427748 0.725389 -0.054968
C47   C     C_R   0.542691 0.936490 0.101298 0.062955
C48   C     C_R   0.641914 0.012386 0.070330 -0.026070
C49   C     C_R   0.623161 0.129016 0.090674 -0.085858
C50   C     C_R   0.510390 0.176154 0.152015 -0.105804
C51   C     C_R   0.409293 0.101255 0.180297 -0.091038
C52   C     C_R   0.423774 0.980612 0.151439 -0.057500
C53   C     C_R   0.670225 0.766107 0.885274 0.010131
C54   C     C_R   0.582054 0.800509 0.842538 -0.103642
C55   C     C_R   0.624631 0.844654 0.761414 -0.109190
C56   C     C_R   0.484716 0.227055 0.831402 -0.001180
C57   C     C_R   0.753575 0.848685 0.718303 -0.117741
C58   C     C_R   0.840788 0.807535 0.755143 -0.115708
C59   C     C_R   0.799532 0.767007 0.839220 -0.093402
C60   C     C_R   0.838119 0.367231 0.271615 0.040975
C61   C     C_R   0.834373 0.381594 0.173929 -0.109697
C62   C     C_R   0.944596 0.376439 0.098071 -0.108533
C63   C     C_R   0.059315 0.356596 0.118749 -0.098654
C64   C     C_R   0.064026 0.343316 0.216089 -0.092728
C65   C     C_R   0.955255 0.352221 0.293678 -0.043232
C66   C     C_R   0.562681 0.812025 0.082622 -0.013662
C67   C     C_R   0.627144 0.734397 0.981221 -0.021226
C68   C     C_R   0.643920 0.619572 0.967027 -0.145674
Cl1   Cl    Cl    0.769601 0.129366 0.291850 -0.630888
Cl2   Cl    Cl    0.156042 0.663040 0.770908 -0.720131
Cl3   Cl    Cl    0.140847 0.246993 0.512868 -0.689951
Cu1   Cu    Cu3+1 0.529830 0.098270 0.475420 1.039591
Cu2   Cu    Cu3+1 0.470170 0.901730 0.524580 0.891421
H1    H     H_    0.720495 0.578278 0.906441 0.136751
H2    H     H_    0.042219 0.951056 0.642236 0.120711
H3    H     H_    0.883665 0.795647 0.471546 0.122812
H4    H     H_    0.354096 0.095562 0.877801 0.140598
H5    H     H_    0.334872 0.429695 0.220638 0.108632
H6    H     H_    0.315155 0.232177 0.071540 0.110645
H7    H     H_    0.854561 0.788311 0.253537 0.113782
H8    H     H_    0.877630 0.630862 0.059733 0.112787
H9    H     H_    0.089533 0.560935 0.969299 0.144979
H10   H     H_    0.276890 0.645666 0.074344 0.127099
H11   H     H_    0.254590 0.800677 0.272140 0.098932
H12   H     H_    0.358841 0.638828 0.273976 0.161878
H13   H     H_    0.800503 0.312693 0.845538 0.090522
H14   H     H_    0.982597 0.374446 0.730411 0.174458
H15   H     H_    0.946018 0.468864 0.611199 0.174311
H16   H     H_    0.727558 0.507015 0.611141 0.122678
H17   H     H_    0.543577 0.447690 0.727091 0.113486
H18   H     H_    0.735473 0.983384 0.033194 0.145989
H19   H     H_    0.698315 0.183335 0.061577 0.118849
H20   H     H_    0.501608 0.270667 0.177546 0.120662
H21   H     H_    0.320098 0.136706 0.224886 0.135404
H22   H     H_    0.344368 0.923658 0.172990 0.105167
H23   H     H_    0.762168 0.574835 0.331166 0.120791
H24   H     H_    0.481535 0.798315 0.875700 0.137415
H25   H     H_    0.558265 0.878173 0.733698 0.163544
H26   H     H_    0.785175 0.885472 0.657702 0.139099
H27   H     H_    0.940680 0.809636 0.720683 0.139081
H28   H     H_    0.868639 0.739872 0.870549 0.162163
H29   H     H_    0.745462 0.394591 0.155501 0.102712
H30   H     H_    0.940388 0.385622 0.022296 0.098823
H31   H     H_    0.143772 0.350557 0.058777 0.122020
H32   H     H_    0.150373 0.322962 0.231106 0.107297
H33   H     H_    0.960890 0.342016 0.368783 0.159222
H34   H     H_    0.418621 0.327013 0.548095 0.167603
H35   H     H_    0.271941 0.834466 0.680194 0.154100
H36   H     H_    0.960228 0.040178 0.341200 0.189536
H37   H     H_    0.320752 0.482892 0.641186 0.166087
H38   H     H_    0.630021 0.723610 0.401963 0.190120
H39   H     H_    0.925107 0.150272 0.674618 0.113091
N1    N     N_R   0.575030 0.246270 0.438190 -0.231242
N2    N     N_R   0.425760 0.754330 0.561190 -0.285225
O1    O     O_R   0.537510 0.972500 0.318130 -0.439073
O2    O     O_R   0.487140 0.806530 0.359650 -0.546354
O3    O     O_R   0.708330 0.082950 0.479220 -0.431006
O4    O     O_R   0.657960 0.916980 0.520740 -0.551332
O5    O     O_R   0.512860 0.193470 0.640350 -0.502562
O6    O     O_R   0.462490 0.027500 0.681870 -0.531712
O7    O     O_R   0.342040 0.083020 0.479260 -0.468360
O8    O     O_R   0.291670 0.917050 0.520780 -0.521474

loop_
_geom_bond_atom_site_label_1
_geom_bond_atom_site_label_2
_ccdc_geom_bond_type
C40   C41   A    
C6    C45   A    
C38   H10   S    
C41   C42   A    
C35   C36   A    
C1    C11   S    
C23   H3    S    
C17   H37   S    
C53   C59   A    
C7    C8    A    
C13   C60   S    
C53   C54   A    
C40   C46   A    
C41   H13   S    
Cu1   O1    S    
C29   C30   S    
Cu2   O2    S    
C43   H15   S    
C23   C29   S    
C28   C29   S    
C39   H11   S    
C18   C19   A    
C2    C68   A    
C16   O6    A    
C30   C31   S    
Cu1   O7    S    
C20   C25   A    
C68   H1    S    
C57   H26   S    
C29   C33   S    
C35   H7    S    
C55   H25   S    
C52   H22   S    
C8    H12   S    
C27   O8    A    
C47   C48   A    
C48   H18   S    
Cu1   O3    S    
C54   H24   S    
C1    O2    A    
C10   C56   A    
C47   C66   S    
C11   C66   A    
C14   H35   S    
C66   C67   A    
C28   C34   S    
Cu2   O6    S    
C21   C22   A    
C12   C32   S    
C27   C30   S    
C4    O4    A    
C24   H38   S    
C10   C45   A    
C53   C67   S    
C10   H4    S    
C44   C46   A    
C50   C51   A    
C27   O7    A    
C38   C39   A    
C4    C34   S    
C67   C68   A    
C59   H28   S    
C64   H32   S    
C58   H27   S    
C3    C8    A    
C16   O5    A    
Cu1   Cu2   S    
C19   N2    A    
C58   C59   A    
C14   N2    A    
Cu1   N1    S    
C9    C40   S    
Cu2   N2    S    
C51   C52   A    
C60   C61   A    
C32   C34   S    
C43   C44   A    
C16   C56   S    
C5    C9    A    
C37   C38   A    
C25   N1    A    
C31   C32   S    
C12   C23   S    
C36   H8    S    
C23   C34   S    
C62   C63   A    
C17   C18   A    
C13   C21   A    
C45   H6    S    
C9    C56   A    
C33   C39   A    
C47   C52   A    
C7    H5    S    
C48   C49   A    
C60   C65   A    
C49   C50   A    
C55   C57   A    
C22   C24   A    
C13   C26   A    
C2    C5    A    
C42   C43   A    
C49   H19   S    
C65   H33   S    
C25   H34   S    
C62   H30   S    
C15   C17   A    
C15   Cl2   S    
C54   C55   A    
C36   C37   A    
Cu2   O4    S    
C32   H39   S    
C12   C30   S    
C22   H23   S    
C28   C31   S    
C63   H31   S    
C50   H20   S    
C6    C7    A    
C46   H17   S    
C28   H36   S    
C64   C65   A    
C19   C24   A    
C26   N1    A    
C57   C58   A    
C5    C6    A    
Cu1   O5    S    
C31   Cl3   S    
C33   C35   A    
C61   H29   S    
C18   C20   A    
C61   C62   A    
C4    O3    A    
C3    C11   A    
C51   H21   S    
C63   C64   A    
C37   H9    S    
C20   C21   A    
Cu2   O8    S    
C12   H2    S    
C26   Cl1   S    
C14   C15   A    
C2    C3    A    
C42   H14   S    
C1    O1    A    
C44   H16   S    
