data_mof_unit_48094.cif
_audit_creation_date              2012-12-10T20:27:59-0500
_audit_creation_method            fapswitch 2.2
_symmetry_space_group_name_H-M    P1
_symmetry_Int_Tables_number       1
_space_group_crystal_system       triclinic
_cell_length_a                    12.832228
_cell_length_b                    10.669423
_cell_length_c                    9.860403
_cell_angle_alpha                 90.296362
_cell_angle_beta                  97.68333
_cell_angle_gamma                 89.927802
_cell_volume                      1337.8737792

loop_
_atom_site_label
_atom_site_type_symbol
_atom_type_description
_atom_site_fract_x
_atom_site_fract_y
_atom_site_fract_z
_atom_type_partial_charge
C1    C     C_R   0.506449 0.259957 0.500473 0.894695
C2    C     C_R   0.559481 0.931330 0.396567 -0.218504
C3    C     C_R   0.523724 0.870771 0.507271 -0.189585
C4    C     C_R   0.298308 0.502508 0.472654 0.892132
C5    C     C_R   0.514468 0.937214 0.626655 0.139832
C6    C     C_3   0.431406 0.933664 0.720175 -0.021940
C7    C     C_3   0.432735 0.076149 0.717368 -0.479594
C8    C     C_R   0.407583 0.496349 0.055204 0.225735
C9    C     C_R   0.590859 0.514606 0.087572 -0.136242
C10   C     C_R   0.590836 0.514648 0.943777 -0.149186
C11   C     C_R   0.407626 0.496133 0.912665 0.213043
C12   C     C_R   0.029111 0.545320 0.559593 0.130684
C13   C     C_3   0.327087 0.394898 0.892397 -0.496679
C14   C     C_3   0.326655 0.395497 0.046274 -0.523872
C15   C     C_R   0.503739 0.740010 0.501228 0.890620
C16   C     C_R   0.701905 0.499920 0.527582 0.891919
C17   C     C_R   0.814211 0.505167 0.546498 -0.092268
C18   C     C_R   0.185912 0.506915 0.455260 -0.063884
C19   C     C_R   0.023705 0.421024 0.347383 -0.204863
C20   C     C_R   0.130788 0.432956 0.353207 -0.263952
C21   C     C_R   0.134789 0.574252 0.550256 0.126896
C22   C     C_3   0.470734 0.878958 0.861117 -0.845297
C23   C     C_R   0.973242 0.473947 0.450688 0.108091
C24   C     C_3   0.031568 0.627107 0.808607 -0.927335
C25   C     C_3   0.188923 0.687594 0.621562 -0.895236
C26   C     C_3   0.599021 0.124129 0.271100 -0.854899
C27   C     C_R   0.866668 0.456186 0.444657 -0.278286
C28   C     C_R   0.868280 0.562812 0.662079 -0.219178
C29   C     C_R   0.976410 0.581680 0.672194 0.204339
C30   C     C_R   0.515240 0.064838 0.624215 0.052531
C31   C     C_R   0.527360 0.128365 0.504195 -0.136612
C32   C     C_R   0.562864 0.061751 0.393816 0.170220
H1    H     H_    0.823756 0.405728 0.358861 0.151432
H2    H     H_    0.825661 0.595083 0.743498 0.156934
H3    H     H_    0.981069 0.365234 0.265997 0.146226
H4    H     H_    0.170919 0.382325 0.280007 0.159522
H5    H     H_    0.578460 0.877931 0.309260 0.175535
H6    H     H_    0.355940 0.892730 0.671418 0.161995
H7    H     H_    0.548963 0.917664 0.902803 0.241929
H8    H     H_    0.413834 0.901564 0.933174 0.236103
H9    H     H_    0.477033 0.775563 0.853833 0.258363
H10   H     H_    0.980505 0.617658 0.890557 0.235040
H11   H     H_    0.102238 0.569202 0.840888 0.241565
H12   H     H_    0.358237 0.117320 0.665722 0.174826
H13   H     H_    0.052072 0.727678 0.804485 0.248053
H14   H     H_    0.251815 0.723115 0.564805 0.219645
H15   H     H_    0.132824 0.766717 0.621892 0.237046
H16   H     H_    0.225424 0.664275 0.726733 0.254181
H17   H     H_    0.658214 0.197544 0.305144 0.241152
H18   H     H_    0.636739 0.056008 0.207267 0.218325
H19   H     H_    0.530995 0.165746 0.205161 0.251581
H20   H     H_    0.464064 0.121189 0.816422 0.213442
H21   H     H_    0.664602 0.524640 0.153695 0.157167
H22   H     H_    0.664310 0.524635 0.902557 0.150780
H23   H     H_    0.251959 0.427873 0.834469 0.205080
H24   H     H_    0.358245 0.306709 0.853069 0.210975
H25   H     H_    0.251272 0.429841 0.076469 0.201601
H26   H     H_    0.357096 0.307319 0.096700 0.211597
N1    N     N_R   0.499290 0.499140 0.142710 -0.107288
N2    N     N_R   0.499290 0.499180 0.857070 -0.110550
O1    O     O_R   0.500010 0.316790 0.614690 -0.611932
O2    O     O_R   0.500000 0.316760 0.385350 -0.616243
O3    O     O_R   0.346360 0.499990 0.595720 -0.609774
O4    O     O_R   0.346350 0.499960 0.366370 -0.620919
O5    O     O_R   0.500000 0.683240 0.614650 -0.617373
O6    O     O_R   0.499990 0.683210 0.385310 -0.617285
O7    O     O_R   0.653650 0.500040 0.633630 -0.631320
O8    O     O_R   0.653640 0.500010 0.404280 -0.633066
Zn1   Zn    Zn3+2 0.500010 0.500020 0.653130 0.936339
Zn2   Zn    Zn3+2 0.499990 0.499980 0.346870 0.935988

loop_
_geom_bond_atom_site_label_1
_geom_bond_atom_site_label_2
_ccdc_geom_bond_type
C10   N2    A    
C6    H6    S    
C26   C32   S    
C6    C7    S    
C16   O8    A    
O4    Zn2   S    
C12   C29   A    
C18   C21   A    
C24   H10   S    
C9    C10   A    
C25   H15   S    
C20   H4    S    
C19   C23   A    
C31   C32   A    
C2    H5    S    
C17   C27   A    
C30   C31   A    
C13   H24   S    
C4    C18   S    
C1    O2    A    
C9    N1    A    
C2    C3    A    
C22   H8    S    
C7    C30   S    
C19   H3    S    
C7    H12   S    
C27   H1    S    
O7    Zn1   S    
C11   C13   S    
C4    O3    A    
O6    Zn2   S    
C21   C25   S    
N2    Zn1   S    
C8    C11   A    
O5    Zn1   S    
C24   H13   S    
C12   C21   A    
C2    C32   A    
C28   C29   A    
C7    H20   S    
C26   H19   S    
C18   C20   A    
C23   C27   A    
C26   H18   S    
C8    N1    A    
C5    C6    S    
C10   H22   S    
C8    C14   S    
C22   H9    S    
C9    H21   S    
C22   H7    S    
N1    Zn2   S    
C28   H2    S    
C11   N2    A    
C6    C22   S    
O3    Zn1   S    
C1    C31   S    
C3    C15   S    
C15   O6    A    
O2    Zn2   S    
O8    Zn2   S    
C5    C30   A    
C26   H17   S    
O1    Zn1   S    
C16   O7    A    
C14   H25   S    
C4    O4    A    
C24   C29   S    
C24   H11   S    
C12   C23   A    
C3    C5    A    
C13   C14   S    
C17   C28   A    
C25   H16   S    
C25   H14   S    
C19   C20   A    
C14   H26   S    
C1    O1    A    
C16   C17   S    
C13   H23   S    
C15   O5    A    
