data_mof_unit_7218.cif
_audit_creation_date              2012-12-11T14:32:52-0500
_audit_creation_method            fapswitch 2.2
_symmetry_space_group_name_H-M    P1
_symmetry_Int_Tables_number       1
_space_group_crystal_system       triclinic
_cell_length_a                    6.949001
_cell_length_b                    13.756913
_cell_length_c                    17.932521
_cell_angle_alpha                 112.371881
_cell_angle_beta                  95.528477
_cell_angle_gamma                 90.247118
_cell_volume                      1576.32321945

loop_
_atom_site_label
_atom_site_type_symbol
_atom_type_description
_atom_site_fract_x
_atom_site_fract_y
_atom_site_fract_z
_atom_type_partial_charge
O1    O     O_R   0.484560 0.544530 0.414330 -0.537064
O2    O     O_R   0.197040 0.638810 0.585080 -0.537565
O3    O     O_R   0.026800 0.455470 0.585670 -0.543190
C1    C     C_R   0.373917 0.678600 0.610483 0.686300
O4    O     O_R   0.155000 0.556150 0.414940 -0.542076
O5    O     O_R   0.984450 0.372220 0.414320 -0.536154
C2    C     C_R   0.317676 0.565244 0.386673 0.759583
O6    O     O_R   0.526900 0.627780 0.585680 -0.539665
O7    O     O_3   0.339170 0.439750 0.499990 -0.376111
V1    V     V_3+5 0.064350 0.511180 0.500000 1.374060
O8    O     O_R   0.654880 0.361190 0.414920 -0.542706
C3    C     C_R   0.816984 0.324460 0.386511 0.763046
O9    O     O_R   0.696930 0.443850 0.585060 -0.541592
C4    C     C_R   0.873200 0.433813 0.612491 0.691282
V2    V     V_3+5 0.564340 0.488820 0.500000 1.369254
O10   O     O_3   0.839390 0.560250 0.500010 -0.374118
C5    C     C_R   0.041041 0.861270 0.822859 -0.051573
C6    C     C_R   0.906189 0.397798 0.680051 -0.051294
C7    C     C_R   0.920246 0.822031 0.683104 -0.127186
C8    C     C_R   0.973086 0.788573 0.745909 -0.143531
C9    C     C_R   0.051377 0.969061 0.837187 -0.210271
C10   C     C_R   0.996097 0.005629 0.774097 0.093780
C11   C     C_R   0.931258 0.929160 0.696319 0.111461
C12   C     C_R   0.001304 0.114725 0.785301 0.065231
C13   C     C_R   0.942650 0.144755 0.718318 0.041239
C14   C     C_R   0.881160 0.064772 0.642475 -0.142205
C15   C     C_R   0.875926 0.959555 0.631968 -0.156231
C16   C     C_R   0.063270 0.194743 0.861125 -0.174745
C17   C     C_R   0.070097 0.299877 0.871387 -0.218762
C18   C     C_R   0.015124 0.330198 0.806914 0.124257
C19   C     C_R   0.948697 0.253758 0.729337 0.094563
C20   C     C_R   0.028129 0.437184 0.819760 -0.128546
C21   C     C_R   0.975734 0.470479 0.756800 -0.144919
C22   C     C_R   0.893246 0.290208 0.666163 -0.209603
H1    H     H_    0.827469 0.900996 0.572457 0.112434
H2    H     H_    0.843250 0.237621 0.605299 0.093076
H3    H     H_    0.991606 0.553251 0.767881 0.091589
H4    H     H_    0.120658 0.358333 0.930686 0.117473
H5    H     H_    0.868238 0.763869 0.623973 0.138035
H6    H     H_    0.958990 0.705646 0.734535 0.091452
H7    H     H_    0.099476 0.021697 0.898259 0.091825
H8    H     H_    0.836745 0.080634 0.589258 0.117316
H9    H     H_    0.109515 0.178919 0.914236 0.122145
H10   H     H_    0.081399 0.495343 0.878707 0.138269
H11   H     H_    0.114173 0.223679 0.309015 0.154707
C23   C     C_2   0.135691 0.037421 0.184130 -0.354073
C24   C     C_2   0.972826 0.077653 0.217228 -0.129716
H12   H     H_    0.674783 0.177440 0.294683 0.124464
C25   C     C_2   0.812848 0.220831 0.318539 -0.352503
C26   C     C_2   0.975809 0.180444 0.285611 -0.129772
H13   H     H_    0.273721 0.080867 0.207927 0.124863
C27   C     C_R   0.408379 0.785364 0.676228 -0.088090
C28   C     C_R   0.539389 0.474495 0.824249 -0.061006
C29   C     C_R   0.525002 0.890156 0.815459 -0.127182
C30   C     C_R   0.473851 0.792831 0.754148 -0.136055
C31   C     C_R   0.399612 0.878486 0.660076 -0.190487
C32   C     C_R   0.446994 0.981197 0.722561 0.113257
C33   C     C_R   0.511559 0.983274 0.800896 0.116008
C34   C     C_R   0.437812 0.081231 0.711723 -0.042244
C35   C     C_R   0.498895 0.178352 0.780037 0.007344
C36   C     C_R   0.560614 0.172661 0.855247 -0.146302
C37   C     C_R   0.565586 0.077893 0.865248 -0.214752
C38   C     C_R   0.369124 0.089578 0.636764 0.457124
C39   C     C_R   0.363131 0.188219 0.630918 -0.286225
C40   C     C_R   0.425688 0.280766 0.695770 0.045279
C41   C     C_R   0.494232 0.278902 0.771869 0.097181
C42   C     C_R   0.413563 0.376147 0.684626 -0.097396
C43   C     C_R   0.468591 0.471418 0.747903 -0.140214
C44   C     C_R   0.551473 0.378584 0.836433 -0.187485
H14   H     H_    0.615062 0.078723 0.924732 0.115223
H15   H     H_    0.602553 0.385074 0.896819 0.087915
H16   H     H_    0.452918 0.543365 0.737271 0.087441
H17   H     H_    0.300367 0.193060 0.574796 0.133187
H18   H     H_    0.576767 0.892637 0.875125 0.140424
H19   H     H_    0.488257 0.722827 0.767589 0.093579
H20   H     H_    0.362416 0.865313 0.597672 0.167290
H21   H     H_    0.606926 0.240981 0.908645 0.120502
H22   H     H_    0.358629 0.377135 0.626390 0.145105
H23   H     H_    0.334536 0.668292 0.194963 0.154624
H24   H     H_    0.615000 0.591413 0.308487 0.155553
C45   C     C_2   0.314271 0.602840 0.319144 -0.353577
C46   C     C_2   0.476644 0.611628 0.285731 -0.132173
H25   H     H_    0.773080 0.636185 0.207073 0.126319
C47   C     C_2   0.635053 0.656244 0.183926 -0.349914
C48   C     C_2   0.472871 0.647943 0.217631 -0.131410
H26   H     H_    0.176251 0.622810 0.295922 0.126979
O11   O     O_R   0.421600 0.630430 0.917010 -0.539393
O12   O     O_R   0.793840 0.702190 0.087630 -0.542948
O13   O     O_R   0.964010 0.886170 0.088190 -0.536028
C49   C     C_R   0.631339 0.693332 0.116113 0.757764
O14   O     O_R   0.751460 0.619510 0.917500 -0.539110
O15   O     O_R   0.921330 0.802900 0.916840 -0.540907
C50   C     C_R   0.574625 0.579578 0.892091 0.682911
O16   O     O_R   0.464290 0.713700 0.088350 -0.537281
O17   O     O_3   0.609200 0.818520 0.002630 -0.373683
V3    V     V_3+5 0.884140 0.747190 0.002530 1.371964
O18   O     O_R   0.251150 0.814630 0.917340 -0.542210
C51   C     C_R   0.074731 0.824869 0.890139 0.691317
O19   O     O_R   0.293530 0.897310 0.087470 -0.542747
C52   C     C_R   0.131488 0.933912 0.116020 0.762668
V4    V     V_3+5 0.384070 0.769710 0.002370 1.371265
O20   O     O_3   0.109180 0.698190 0.002460 -0.374891
H27   H     H_    0.834499 0.034360 0.193887 0.155104
O21   O     O_3   0.278374 0.005120 0.572446 -0.558205
C53   C     C_3   0.381095 0.980782 0.503750 -0.314071
H28   H     H_    0.538750 0.975674 0.518734 0.129637
H29   H     H_    0.355079 0.038049 0.474274 0.149093
H30   H     H_    0.327221 0.902369 0.458738 0.167402

loop_
_geom_bond_atom_site_label_1
_geom_bond_atom_site_label_2
_ccdc_geom_bond_type
C33   C37   A    
O12   V3    S    
C13   C19   A    
V4    O20   S    
C31   H20   S    
V3    O20   S    
C4    C6    S    
O2    C1    A    
O17   V3    S    
C1    O6    A    
C28   C44   A    
C3    C25   S    
O15   C51   A    
C53   H29   S    
C14   C15   A    
C1    C27   S    
H25   C47   S    
C16   C17   A    
O5    C3    A    
C18   C19   A    
C8    H6    S    
C32   C34   A    
C41   C44   A    
V2    O10   S    
O18   C51   A    
O15   V3    S    
C5    C8    A    
C31   C32   A    
C37   H14   S    
C23   C24   D    
C44   H15   S    
C28   C43   A    
O14   V3    S    
C29   H18   S    
O8    V2    S    
C7    C8    A    
O16   V4    S    
C36   H21   S    
C40   C42   A    
C17   H4    S    
C39   H17   S    
O1    V2    S    
C11   C15   A    
C5    C51   S    
C45   H26   S    
C27   C30   A    
C30   H19   S    
C35   C41   A    
C34   C35   A    
O11   V4    S    
O9    C4    A    
C42   H22   S    
C47   C49   S    
O21   C53   S    
C49   O16   A    
C24   C26   S    
C53   H30   S    
C24   H27   S    
O13   C52   A    
C28   C50   S    
C42   C43   A    
C12   C13   A    
H24   C46   S    
O4    C2    A    
C15   H1    S    
C13   C14   A    
C23   H13   S    
C45   C46   D    
C35   C36   A    
C7    C11   A    
C17   C18   A    
O14   C50   A    
O19   C52   A    
C43   H16   S    
C29   C33   A    
C20   H10   S    
C19   C22   A    
C47   C48   D    
C6    C22   A    
O3    C4    A    
C7    H5    S    
C9    H7    S    
H12   C25   S    
O19   V4    S    
O12   C49   A    
C40   C41   A    
O6    V2    S    
O9    V2    S    
C10   C12   A    
O2    V1    S    
H23   C48   S    
C14   H8    S    
O7    V1    S    
C23   C52   S    
C29   C30   A    
C2    C45   S    
O1    C2    A    
C12   C16   A    
C38   O21   S    
O5    V1    S    
O8    C3    A    
C46   C48   S    
C53   H28   S    
C16   H9    S    
C34   C38   A    
C20   C21   A    
O13   V3    S    
O7    V2    S    
O4    V1    S    
O3    V1    S    
V1    O10   S    
C39   C40   A    
C18   C20   A    
C32   C33   A    
H11   C26   S    
O11   C50   A    
C22   H2    S    
C36   C37   A    
C6    C21   A    
C21   H3    S    
C38   C39   A    
C27   C31   A    
C25   C26   D    
C10   C11   A    
C9    C10   A    
O18   V4    S    
O17   V4    S    
C5    C9    A    
