data_mof_unit_65320.cif
_audit_creation_date              2012-12-10T17:00:48-0500
_audit_creation_method            fapswitch 2.2
_symmetry_space_group_name_H-M    P1
_symmetry_Int_Tables_number       1
_space_group_crystal_system       triclinic
_cell_length_a                    13.132728
_cell_length_b                    13.121938
_cell_length_c                    19.474499
_cell_angle_alpha                 100.097865
_cell_angle_beta                  80.278607
_cell_angle_gamma                 90.905307
_cell_volume                      3256.22050899

loop_
_atom_site_label
_atom_site_type_symbol
_atom_type_description
_atom_site_fract_x
_atom_site_fract_y
_atom_site_fract_z
_atom_type_partial_charge
C1    C     C_R   0.222933 0.536247 0.527054 0.812388
C2    C     C_2   0.463177 0.507548 0.986002 -0.266026
C3    C     C_2   0.542584 0.471320 0.010644 0.153168
C4    C     C_R   0.776015 0.462378 0.472307 0.850444
C5    C     C_R   0.517547 0.481504 0.232866 -0.045616
C6    C     C_2   0.887611 0.445127 0.458612 0.046202
C7    C     C_2   0.940508 0.491933 0.508458 -0.177906
C8    C     C_2   0.109974 0.549309 0.539982 0.039848
C9    C     C_2   0.053760 0.484744 0.500215 -0.213326
C10   C     C_2   0.545143 0.887735 0.529836 -0.273461
C11   C     C_2   0.507557 0.940489 0.486898 -0.148193
C12   C     C_R   0.464806 0.508104 0.910711 0.198943
C13   C     C_2   0.458769 0.110327 0.466923 -0.321989
C14   C     C_2   0.512306 0.053565 0.499562 -0.137763
C15   C     C_R   0.467270 0.223261 0.478894 0.861378
C16   C     C_R   0.533725 0.776338 0.521141 0.850952
C17   C     C_R   0.510680 0.486868 0.309391 0.810810
C18   C     C_R   0.488609 0.512669 0.690544 0.802912
C19   C     C_R   0.477854 0.511883 0.766457 -0.006683
C20   C     C_R   0.497717 0.419688 0.789323 -0.189754
C21   C     C_R   0.489453 0.417426 0.861029 -0.086309
C22   C     C_3   0.940496 0.380980 0.389141 -0.424634
C23   C     C_R   0.440169 0.599195 0.888502 -0.149587
C24   C     C_3   0.866915 0.337218 0.338478 -0.833638
C25   C     C_R   0.446644 0.601186 0.816453 -0.178175
C26   C     C_R   0.459953 0.411301 0.122224 0.172686
C27   C     C_R   0.452211 0.416776 0.195150 -0.210770
C28   C     C_R   0.591280 0.540571 0.196772 -0.189357
C29   C     C_R   0.599138 0.535654 0.124266 -0.168250
C30   C     C_R   0.533519 0.471872 0.086672 0.081574
H1    H     H_    0.519033 0.349064 0.751768 0.166717
H2    H     H_    0.642824 0.591034 0.224548 0.175112
H3    H     H_    0.418571 0.669093 0.926730 0.147030
H4    H     H_    0.429585 0.672659 0.799790 0.166551
H5    H     H_    0.395259 0.540112 0.022930 0.163507
H6    H     H_    0.503901 0.345279 0.877778 0.172998
H7    H     H_    0.808396 0.287381 0.363992 0.247264
H8    H     H_    0.827550 0.400908 0.321955 0.267931
H9    H     H_    0.911532 0.289481 0.290398 0.260612
H10   H     H_    0.997961 0.429626 0.361449 0.227854
H11   H     H_    0.981916 0.314561 0.400913 0.219747
H12   H     H_    0.655737 0.582803 0.097531 0.172528
H13   H     H_    0.093296 0.424711 0.459367 0.171946
H14   H     H_    0.898000 0.538483 0.556003 0.173798
H15   H     H_    0.559880 0.090944 0.537076 0.189883
H16   H     H_    0.470522 0.900257 0.444108 0.156853
H17   H     H_    0.409680 0.073273 0.430400 0.160364
H18   H     H_    0.576534 0.927546 0.575308 0.140042
H19   H     H_    0.395799 0.369737 0.222078 0.183946
I1    I     I_    0.042990 0.672114 0.621212 -0.318774
I2    I     I_    0.690079 0.429748 0.947326 -0.328496
I3    I     I_    0.362284 0.306415 0.068920 -0.360914
O1    O     O_3   0.500000 0.500000 0.500000 -0.491398
O2    O     O_R   0.441420 0.437150 0.344000 -0.643130
O3    O     O_R   0.438960 0.578560 0.667440 -0.638912
O4    O     O_R   0.575450 0.541060 0.341470 -0.649869
O5    O     O_R   0.544160 0.443230 0.647100 -0.641889
O6    O     O_R   0.530110 0.266880 0.518530 -0.643563
O7    O     O_R   0.465470 0.738830 0.563940 -0.628116
O8    O     O_R   0.266890 0.467300 0.476120 -0.658702
O9    O     O_R   0.737530 0.526990 0.441410 -0.637993
O10   O     O_R   0.276880 0.592620 0.567490 -0.606208
O11   O     O_R   0.718700 0.413090 0.514970 -0.641465
O12   O     O_R   0.414920 0.276880 0.447500 -0.637902
O13   O     O_R   0.589510 0.717410 0.470040 -0.631259
Zn1   Zn    Zn3+2 0.571990 0.407410 0.544380 0.977479
Zn2   Zn    Zn3+2 0.407420 0.421690 0.442900 0.973386
Zn3   Zn    Zn3+2 0.598910 0.570150 0.439280 0.976024
Zn4   Zn    Zn3+2 0.421690 0.600750 0.573440 1.007151

loop_
_geom_bond_atom_site_label_1
_geom_bond_atom_site_label_2
_ccdc_geom_bond_type
C2    H5    S    
C3    C30   S    
C24   H8    S    
C15   O12   A    
C6    C7    D    
O2    Zn2   S    
C26   I3    S    
C29   H12   S    
C5    C28   A    
O5    Zn1   S    
C18   O5    A    
C19   C20   A    
O9    Zn3   S    
C5    C27   A    
C25   H4    S    
O13   Zn3   S    
C22   H10   S    
C1    O10   A    
C23   C25   A    
C2    C3    D    
O11   Zn1   S    
C2    C12   S    
C21   H6    S    
C10   C16   S    
C13   C14   D    
O1    Zn1   S    
C17   O2    A    
C17   O4    A    
C26   C27   A    
O3    Zn4   S    
C18   O3    A    
O7    Zn4   S    
C19   C25   A    
C4    O9    A    
C4    O11   A    
C28   C29   A    
C11   C14   S    
C26   C30   A    
C14   H15   S    
C13   C15   S    
C10   H18   S    
O1    Zn2   S    
C15   O6    A    
C22   C24   S    
C9    H13   S    
C22   H11   S    
C5    C17   S    
C10   C11   D    
C29   C30   A    
C1    C8    S    
O12   Zn2   S    
C8    I1    S    
C28   H2    S    
C24   H9    S    
C20   C21   A    
O10   Zn4   S    
C24   H7    S    
C4    C6    S    
C1    O8    A    
C7    C9    S    
O1    Zn3   S    
C3    I2    S    
C20   H1    S    
C18   C19   S    
C11   H16   S    
C12   C23   A    
C16   O13   A    
C7    H14   S    
O1    Zn4   S    
O4    Zn3   S    
C13   H17   S    
C12   C21   A    
O6    Zn1   S    
C27   H19   S    
O8    Zn2   S    
C8    C9    D    
C23   H3    S    
C16   O7    A    
C6    C22   S    
