data_mof_unit_46780.cif
_audit_creation_date              2012-12-11T15:12:19-0500
_audit_creation_method            fapswitch 2.2
_symmetry_space_group_name_H-M    P1
_symmetry_Int_Tables_number       1
_space_group_crystal_system       triclinic
_cell_length_a                    31.018149
_cell_length_b                    22.498069
_cell_length_c                    18.040195
_cell_angle_alpha                 89.43426
_cell_angle_beta                  123.812511
_cell_angle_gamma                 90.362286
_cell_volume                      10459.4866583

loop_
_atom_site_label
_atom_site_type_symbol
_atom_type_description
_atom_site_fract_x
_atom_site_fract_y
_atom_site_fract_z
_atom_type_partial_charge
C1    C     C_R   0.534328 0.608474 0.709354 -0.128943
C2    C     C_R   0.258116 0.650083 0.531663 0.106570
C3    C     C_R   0.339012 0.263992 0.009544 0.125884
C4    C     C_R   0.810352 0.164273 0.935942 0.125219
C5    C     C_R   0.188887 0.834490 0.063107 0.124989
C6    C     C_R   0.149234 0.278013 0.904369 0.123973
C7    C     C_R   0.813234 0.833655 0.939865 0.124845
C8    C     C_R   0.293174 0.804125 0.132859 0.021383
C9    C     C_R   0.706218 0.195279 0.866794 0.022141
C10   C     C_R   0.708930 0.802327 0.869046 0.020813
C11   C     C_R   0.254625 0.300173 0.973304 0.018211
C12   C     C_R   0.731764 0.153674 0.937201 0.015362
C13   C     C_R   0.270264 0.353298 0.577423 0.110489
C14   C     C_R   0.267717 0.845870 0.062705 0.015098
C15   C     C_R   0.232469 0.246070 0.931150 0.024689
C16   C     C_R   0.733528 0.844938 0.937173 0.014896
C17   C     C_R   0.730314 0.212862 0.822797 -0.239735
C18   C     C_R   0.268909 0.786058 0.176377 -0.237283
C19   C     C_R   0.222269 0.345531 0.970248 -0.239308
C20   C     C_R   0.734118 0.783585 0.827933 -0.236457
C21   C     C_R   0.296470 0.875151 0.034120 -0.234595
C22   C     C_R   0.703126 0.124666 0.966203 -0.233183
C23   C     C_R   0.703793 0.874796 0.962480 -0.232283
C24   C     C_R   0.741765 0.649609 0.466048 0.109099
C25   C     C_R   0.261429 0.206851 0.914196 -0.241704
C26   C     C_R   0.781206 0.196033 0.854537 0.269234
C27   C     C_R   0.217892 0.802471 0.144262 0.267980
C28   C     C_R   0.169748 0.335327 0.935019 0.267684
C29   C     C_R   0.785101 0.800576 0.860348 0.268396
C30   C     C_R   0.347010 0.857572 0.064525 0.270171
C31   C     C_R   0.652706 0.142501 0.936174 0.270755
C32   C     C_R   0.652718 0.857672 0.929907 0.270028
C33   C     C_R   0.313998 0.216425 0.950312 0.275759
C34   C     C_R   0.591997 0.587050 0.423015 -0.146952
C35   C     C_R   0.208001 0.803706 0.469804 0.104534
C36   C     C_R   0.404057 0.418866 0.574453 -0.141889
C37   C     C_R   0.408007 0.586980 0.576413 -0.144787
C38   C     C_R   0.588099 0.406212 0.422965 -0.139095
C39   C     C_R   0.074536 0.110835 0.424010 -0.132828
C40   C     C_R   0.930196 0.887236 0.575985 -0.140820
C41   C     C_R   0.925748 0.110442 0.574589 -0.139301
C42   C     C_R   0.072075 0.888556 0.424785 -0.139330
C43   C     C_R   0.393099 0.607285 0.289355 -0.126874
C44   C     C_R   0.607053 0.393030 0.711910 -0.123232
C45   C     C_R   0.606975 0.607277 0.709823 -0.123847
C46   C     C_R   0.788319 0.189799 0.528541 0.106065
C47   C     C_R   0.387501 0.404095 0.269246 -0.130765
C48   C     C_R   0.882940 0.082662 0.257157 -0.132733
C49   C     C_R   0.117002 0.917156 0.742753 -0.135345
C50   C     C_R   0.113758 0.092089 0.735138 -0.128838
C51   C     C_R   0.882961 0.917787 0.256990 -0.136993
C52   C     C_R   0.579882 0.639999 0.736756 0.051468
C53   C     C_R   0.411567 0.381469 0.228665 0.058564
C54   C     C_R   0.420487 0.640388 0.262593 0.052159
C55   C     C_R   0.579272 0.359693 0.737720 0.051261
C56   C     C_R   0.090248 0.115162 0.775884 0.059710
C57   C     C_R   0.796518 0.800687 0.535044 0.105230
C58   C     C_R   0.902361 0.902917 0.206101 0.060317
C59   C     C_R   0.902037 0.097727 0.205573 0.059486
C60   C     C_R   0.097814 0.902012 0.794187 0.059492
C61   C     C_R   0.638289 0.605176 0.495891 0.074333
C62   C     C_R   0.354726 0.405378 0.500511 0.074652
C63   C     C_R   0.361717 0.605297 0.503090 0.075835
C64   C     C_R   0.632335 0.383820 0.496380 0.073008
C65   C     C_R   0.110713 0.144313 0.497391 0.071354
C66   C     C_R   0.896113 0.853351 0.503167 0.063728
C67   C     C_R   0.890324 0.143067 0.500519 0.066768
C68   C     C_R   0.147669 0.275106 0.414281 0.106058
C69   C     C_R   0.107226 0.855373 0.498562 0.063419
C70   C     C_R   0.675354 0.291042 0.523043 -0.263002
C71   C     C_R   0.319700 0.698667 0.476887 -0.260150
C72   C     C_R   0.261277 0.377740 0.417151 -0.247341
C73   C     C_R   0.681943 0.697522 0.523594 -0.260093
C74   C     C_R   0.146171 0.756918 0.525627 -0.253726
C75   C     C_R   0.848564 0.239380 0.471199 -0.255525
C76   C     C_R   0.856182 0.755139 0.475229 -0.255173
C77   C     C_R   0.166996 0.232018 0.576186 -0.246722
C78   C     C_R   0.668921 0.349343 0.493868 0.104692
C79   C     C_R   0.742407 0.282151 0.495171 -0.014364
C80   C     C_R   0.324706 0.640082 0.504640 0.102037
C81   C     C_R   0.308224 0.388964 0.498991 0.104262
C82   C     C_R   0.675361 0.639736 0.493639 0.104708
C83   C     C_R   0.140865 0.815006 0.495166 0.100530
C84   C     C_R   0.855448 0.181537 0.502869 0.099570
C85   C     C_R   0.863066 0.812335 0.508112 0.101747
C86   C     C_R   0.130848 0.203407 0.495947 0.107317
C87   C     C_R   0.697133 0.374949 0.463500 -0.239135
C88   C     C_R   0.295267 0.615399 0.533253 -0.238291
C89   C     C_R   0.311146 0.380449 0.578593 -0.238251
C90   C     C_R   0.251825 0.709758 0.502287 -0.013776
C91   C     C_R   0.703765 0.615435 0.463378 -0.240456
C92   C     C_R   0.170986 0.838313 0.466987 -0.233253
C93   C     C_R   0.826013 0.156689 0.531431 -0.235967
C94   C     C_R   0.834153 0.834866 0.538626 -0.233467
C95   C     C_R   0.118134 0.228580 0.414908 -0.225129
C96   C     C_3   0.313677 0.824732 0.427382 -1.007492
C97   C     C_3   0.684957 0.165222 0.575784 -1.006359
C98   C     C_3   0.691725 0.821993 0.578858 -1.007800
C99   C     C_3   0.164335 0.351123 0.242955 -1.024943
C100  C     C_3   0.833921 0.363185 0.406518 -1.016108
C101  C     C_R   0.225785 0.335097 0.495562 -0.018783
C102  C     C_3   0.157295 0.632586 0.587295 -1.012347
C103  C     C_3   0.247750 0.286858 0.747191 -1.003827
C104  C     C_3   0.841588 0.632519 0.408533 -1.015650
C105  C     C_3   0.804380 0.215963 0.803658 -1.017332
C106  C     C_3   0.194434 0.781761 0.194358 -1.015690
C107  C     C_3   0.137036 0.385594 0.932766 -1.022290
C108  C     C_3   0.809456 0.779423 0.812451 -1.016362
C109  C     C_3   0.375635 0.890828 0.031391 -1.025657
C110  C     C_3   0.624114 0.109331 0.969450 -1.024439
C111  C     C_3   0.622777 0.892093 0.958510 -1.023116
C112  C     C_R   0.460622 0.405195 0.270542 -0.134328
C113  C     C_R   0.749900 0.708354 0.498215 -0.014743
C114  C     C_3   0.342758 0.173510 0.928886 -1.042238
C115  C     C_R   0.214131 0.744333 0.499683 -0.017623
C116  C     C_R   0.780612 0.249010 0.497557 -0.017628
C117  C     C_R   0.788557 0.742316 0.502264 -0.017873
C118  C     C_R   0.189575 0.297637 0.495739 -0.019174
C119  C     C_R   0.711869 0.255984 0.523322 0.092024
C120  C     C_R   0.283556 0.734850 0.475961 0.091793
C121  C     C_R   0.219860 0.350047 0.414056 0.095629
C122  C     C_R   0.719028 0.733156 0.525884 0.092167
C123  C     C_R   0.182819 0.720064 0.527507 0.097164
C124  C     C_R   0.465883 0.608824 0.290262 -0.128416
C125  C     C_R   0.811024 0.274631 0.468723 0.096564
C126  C     C_R   0.818882 0.718558 0.472715 0.097054
C127  C     C_R   0.197724 0.278530 0.577567 0.098459
C128  C     C_R   0.764261 0.367108 0.436219 -0.245807
C129  C     C_R   0.227321 0.625846 0.558647 -0.242635
C130  C     C_R   0.275155 0.339975 0.657611 -0.244798
C131  C     C_R   0.771695 0.625731 0.437691 -0.245288
C132  C     C_R   0.239614 0.828708 0.445288 -0.240084
C133  C     C_R   0.757813 0.163586 0.554541 -0.241850
C134  C     C_R   0.765859 0.825414 0.561088 -0.241417
C135  C     C_R   0.533609 0.391055 0.708982 -0.129796
C136  C     C_R   0.138710 0.295337 0.333333 -0.243270
C137  C     C_R   0.278259 0.795093 0.449403 0.279763
C138  C     C_R   0.718823 0.195925 0.551204 0.280989
C139  C     C_R   0.726202 0.792503 0.555401 0.280645
C140  C     C_R   0.174381 0.332866 0.332025 0.290558
C141  C     C_R   0.802658 0.334124 0.437740 0.287689
C142  C     C_R   0.189574 0.660326 0.557210 0.284818
C143  C     C_R   0.239136 0.302872 0.658722 0.277502
C144  C     C_R   0.810325 0.659746 0.440295 0.287517
C145  C     C_R   0.404905 0.699424 0.218025 0.129038
C146  C     C_R   0.041124 0.092029 0.733688 -0.140308
C147  C     C_R   0.594837 0.300633 0.782369 0.129219
C148  C     C_R   0.595843 0.698718 0.781148 0.129145
C149  C     C_R   0.387793 0.345691 0.148443 0.128164
C150  C     C_R   0.870479 0.115966 0.110233 0.129117
C151  C     C_R   0.129130 0.883370 0.889264 0.127989
C152  C     C_R   0.110188 0.164611 0.837783 0.124269
C153  C     C_R   0.871507 0.884211 0.111491 0.128879
C154  C     C_R   0.415853 0.782212 0.142802 -0.194868
C155  C     C_R   0.584245 0.218380 0.858837 -0.194587
C156  C     C_R   0.583440 0.782774 0.850690 -0.194975
C157  C     C_R   0.954738 0.917733 0.256607 -0.137232
C158  C     C_R   0.393453 0.268983 0.061607 -0.200860
C159  C     C_R   0.864073 0.154789 0.978484 -0.198409
C160  C     C_R   0.135114 0.843688 0.020207 -0.198778
C161  C     C_R   0.096933 0.264277 0.870184 -0.196464
C162  C     C_R   0.866960 0.843506 0.983316 -0.198841
C163  C     C_R   0.433546 0.728669 0.190082 -0.176910
C164  C     C_R   0.566602 0.271932 0.811541 -0.175981
C165  C     C_R   0.565852 0.729220 0.804472 -0.176173
C166  C     C_R   0.417682 0.308937 0.131750 -0.182227
C167  C     C_R   0.893767 0.131468 0.064853 -0.179088
C168  C     C_R   0.954456 0.082765 0.256009 -0.140848
C169  C     C_R   0.105597 0.867288 0.934034 -0.179527
C170  C     C_R   0.077088 0.208417 0.833966 -0.173912
C171  C     C_R   0.895740 0.867872 0.068409 -0.178518
C172  C     C_R   0.360140 0.726668 0.202658 -0.229138
C173  C     C_R   0.639168 0.272838 0.796608 -0.228743
C174  C     C_R   0.642168 0.724579 0.800568 -0.230344
C175  C     C_R   0.334386 0.346852 0.090031 -0.235668
C176  C     C_R   0.816439 0.120257 0.065032 -0.232145
C177  C     C_R   0.183166 0.879308 0.934788 -0.233344
C178  C     C_R   0.162739 0.175305 0.883246 -0.241599
C179  C     C_R   0.045511 0.917253 0.743948 -0.138998
C180  C     C_R   0.817404 0.879923 0.064983 -0.231540
C181  C     C_R   0.341354 0.780390 0.155120 0.056510
C182  C     C_R   0.658150 0.219313 0.844819 0.056346
C183  C     C_R   0.660322 0.778853 0.845544 0.057578
C184  C     C_R   0.308984 0.305762 0.021251 0.057599
C185  C     C_R   0.785646 0.143812 0.978142 0.058672
C186  C     C_R   0.213792 0.855484 0.021479 0.058237
C187  C     C_R   0.181683 0.232999 0.906025 0.058769
C188  C     C_R   0.787511 0.855059 0.979346 0.058844
C189  C     C_R   0.642161 0.587332 0.572070 -0.150853
C190  C     C_R   0.734577 0.341602 0.464586 0.108025
C191  C     C_R   0.355485 0.418635 0.426372 -0.125735
C192  C     C_R   0.357888 0.587451 0.427352 -0.150711
C193  C     C_R   0.639224 0.406540 0.572517 -0.148657
C194  C     C_R   0.125944 0.109985 0.572639 -0.127390
C195  C     C_R   0.878733 0.887345 0.427456 -0.123674
C196  C     C_R   0.875587 0.110547 0.425676 -0.126220
C197  C     C_R   0.123271 0.888561 0.573693 -0.124634
C198  C     C_R   0.368604 0.807403 0.121290 0.123244
C199  C     C_R   0.631176 0.192743 0.879498 0.122646
C200  C     C_R   0.631657 0.807083 0.874948 0.122624
H1    H     H_    0.504540 0.620785 0.719684 0.092949
H2    H     H_    0.468920 0.709672 0.202366 0.116154
H3    H     H_    0.194062 0.331321 0.234607 0.251172
H4    H     H_    0.822003 0.410039 0.385205 0.251827
H5    H     H_    0.875690 0.363195 0.461587 0.252513
H6    H     H_    0.828336 0.338641 0.348672 0.251417
H7    H     H_    0.167874 0.585351 0.607599 0.254244
H8    H     H_    0.163359 0.657052 0.645546 0.250499
H9    H     H_    0.115609 0.634073 0.531961 0.252180
H10   H     H_    0.280682 0.311894 0.803035 0.254267
H11   H     H_    0.212446 0.297080 0.746176 0.255404
H12   H     H_    0.256717 0.238775 0.760281 0.257029
H13   H     H_    0.459608 0.308674 0.175602 0.120632
H14   H     H_    0.829732 0.585901 0.386459 0.252281
H15   H     H_    0.835932 0.658476 0.351088 0.250916
H16   H     H_    0.883363 0.632294 0.463552 0.252697
H17   H     H_    0.775911 0.240380 0.741399 0.259096
H18   H     H_    0.837617 0.246284 0.845370 0.248038
H19   H     H_    0.817705 0.176668 0.784906 0.254296
H20   H     H_    0.222765 0.757017 0.256343 0.259120
H21   H     H_    0.180902 0.820698 0.213414 0.254087
H22   H     H_    0.161295 0.751473 0.151968 0.248297
H23   H     H_    0.159642 0.427406 0.959603 0.253565
H24   H     H_    0.529352 0.711293 0.789155 0.116253
H25   H     H_    0.104235 0.394387 0.862922 0.252826
H26   H     H_    0.121738 0.373738 0.973888 0.252428
H27   H     H_    0.781681 0.753952 0.751434 0.259141
H28   H     H_    0.822976 0.818200 0.792063 0.253660
H29   H     H_    0.842736 0.749707 0.856883 0.248472
H30   H     H_    0.353279 0.929730 0.989150 0.253688
H31   H     H_    0.413213 0.907474 0.088995 0.253678
H32   H     H_    0.382754 0.860966 0.990646 0.250506
H33   H     H_    0.646301 0.070180 0.011185 0.251817
H34   H     H_    0.617358 0.139130 0.010709 0.250169
H35   H     H_    0.064062 0.870557 0.901629 0.114156
H36   H     H_    0.586357 0.093023 0.911902 0.254763
H37   H     H_    0.644893 0.931139 0.999841 0.252231
H38   H     H_    0.585970 0.908714 0.898766 0.254583
H39   H     H_    0.614092 0.863035 0.998738 0.249949
H40   H     H_    0.316332 0.140173 0.878683 0.252139
H41   H     H_    0.361863 0.198255 0.901108 0.254946
H42   H     H_    0.372407 0.149103 0.990178 0.256152
H43   H     H_    0.935259 0.127957 0.096914 0.112776
H44   H     H_    0.937317 0.871378 0.101469 0.113829
H45   H     H_    0.035710 0.200801 0.798803 0.118414
H46   H     H_    0.438516 0.802193 0.120345 0.143567
H47   H     H_    0.561856 0.198789 0.882109 0.143286
H48   H     H_    0.559680 0.803700 0.869646 0.143467
H49   H     H_    0.486994 0.402464 0.249416 0.090425
H50   H     H_    0.417761 0.239449 0.053140 0.145144
H51   H     H_    0.884161 0.168018 0.947547 0.141177
H52   H     H_    0.114863 0.830042 0.050685 0.141583
H53   H     H_    0.070431 0.297181 0.866199 0.143785
H54   H     H_    0.887793 0.829650 0.954337 0.141461
H55   H     H_    0.709600 0.239020 0.762234 0.131572
H56   H     H_    0.289571 0.759726 0.236751 0.131194
H57   H     H_    0.237056 0.389931 0.992618 0.139812
H58   H     H_    0.714102 0.756386 0.768994 0.131226
H59   H     H_    0.280251 0.912802 0.989050 0.137875
H60   H     H_    0.495779 0.621416 0.280009 0.093003
H61   H     H_    0.719358 0.087027 0.011316 0.135996
H62   H     H_    0.719549 0.912766 0.006134 0.136412
H63   H     H_    0.243142 0.169425 0.870167 0.132252
H64   H     H_    0.676215 0.588747 0.639596 0.100503
H65   H     H_    0.322940 0.422239 0.357836 0.085803
H66   H     H_    0.323881 0.589035 0.359766 0.099377
H67   H     H_    0.673692 0.403976 0.639489 0.100060
H68   H     H_    0.154912 0.120785 0.640914 0.089716
H69   H     H_    0.848813 0.875855 0.359528 0.105515
H70   H     H_    0.845125 0.120876 0.357329 0.104932
H71   H     H_    0.502916 0.378288 0.717275 0.095354
H72   H     H_    0.153509 0.877573 0.641901 0.105209
H73   H     H_    0.579839 0.588503 0.354033 0.096167
H74   H     H_    0.415556 0.421906 0.642876 0.086865
H75   H     H_    0.420186 0.588405 0.645369 0.095986
H76   H     H_    0.575266 0.402619 0.353887 0.096262
H77   H     H_    0.054210 0.123099 0.354519 0.094858
H78   H     H_    0.947297 0.875905 0.645276 0.106725
H79   H     H_    0.939458 0.120165 0.642663 0.098586
H80   H     H_    0.055315 0.877787 0.355660 0.105983
H81   H     H_    0.355845 0.616693 0.277712 0.090298
H82   H     H_    0.015260 0.095224 0.755758 0.086939
H83   H     H_    0.644923 0.384108 0.725973 0.089712
H84   H     H_    0.643951 0.617143 0.720350 0.090090
H85   H     H_    0.347761 0.398138 0.248968 0.094428
H86   H     H_    0.842851 0.079490 0.235523 0.083919
H87   H     H_    0.157101 0.920076 0.764362 0.085571
H88   H     H_    0.153841 0.096844 0.757183 0.082055
H89   H     H_    0.842761 0.920706 0.234766 0.085220
H90   H     H_    0.651586 0.273932 0.545262 0.148404
H91   H     H_    0.344425 0.715207 0.456318 0.148916
H92   H     H_    0.258116 0.386570 0.355603 0.137171
H93   H     H_    0.979744 0.921041 0.232604 0.084992
H94   H     H_    0.657865 0.713768 0.545248 0.149098
H95   H     H_    0.121968 0.741596 0.547861 0.147817
H96   H     H_    0.872334 0.255758 0.448632 0.148747
H97   H     H_    0.879429 0.740453 0.451145 0.147833
H98   H     H_    0.173831 0.215077 0.638001 0.137763
H99   H     H_    0.757451 0.412892 0.412985 0.135415
H100  H     H_    0.232853 0.579919 0.580996 0.141649
H101  H     H_    0.308737 0.355788 0.719975 0.137671
H102  H     H_    0.764770 0.580487 0.413297 0.135943
H103  H     H_    0.234545 0.874883 0.424103 0.138320
H104  H     H_    0.979183 0.079643 0.231502 0.085572
H105  H     H_    0.764185 0.117560 0.576689 0.136769
H106  H     H_    0.772379 0.870912 0.584465 0.136420
H107  H     H_    0.105385 0.279018 0.271060 0.137760
H108  H     H_    0.660876 0.295333 0.774957 0.112828
H109  H     H_    0.337851 0.703566 0.222593 0.112877
H110  H     H_    0.312903 0.376542 0.104429 0.115984
H111  H     H_    0.666066 0.700098 0.785967 0.113250
H112  H     H_    0.200939 0.890247 0.899636 0.113703
H113  H     H_    0.798794 0.109781 0.100543 0.112788
H114  H     H_    0.799086 0.891448 0.098795 0.112568
H115  H     H_    0.020812 0.920464 0.768505 0.085718
H116  H     H_    0.187880 0.138452 0.894367 0.120130
H117  H     H_    0.690477 0.420950 0.441025 0.120800
H118  H     H_    0.300840 0.569294 0.555000 0.127782
H119  H     H_    0.346323 0.391076 0.642059 0.113769
H120  H     H_    0.696904 0.569919 0.439930 0.119937
H121  H     H_    0.166533 0.884465 0.445553 0.127634
H122  H     H_    0.831747 0.110624 0.553666 0.125608
H123  H     H_    0.839638 0.880457 0.561677 0.125530
H124  H     H_    0.088402 0.209028 0.352107 0.113354
H125  H     H_    0.303768 0.872319 0.409072 0.256468
H126  H     H_    0.531594 0.291397 0.800176 0.115380
H127  H     H_    0.354420 0.822396 0.486174 0.252331
H128  H     H_    0.310570 0.802357 0.370248 0.248122
H129  H     H_    0.695980 0.117896 0.594603 0.255417
H130  H     H_    0.688549 0.187554 0.633367 0.250243
H131  H     H_    0.643855 0.166491 0.518075 0.252101
H132  H     H_    0.703223 0.868857 0.599700 0.256240
H133  H     H_    0.650963 0.821936 0.519935 0.252616
H134  H     H_    0.693978 0.797930 0.634690 0.247906
H135  H     H_    0.125657 0.335993 0.186507 0.253245
H136  H     H_    0.165488 0.400318 0.238807 0.252381
N1    N     N_R   0.532970 0.559900 0.665210 -0.041874
N2    N     N_R   0.402100 0.440070 0.454470 -0.038152
N3    N     N_R   0.402100 0.559930 0.454470 -0.037216
N4    N     N_R   0.597900 0.440070 0.545530 -0.037288
N5    N     N_R   0.097900 0.059930 0.545530 -0.041780
N6    N     N_R   0.902100 0.940070 0.454470 -0.044876
N7    N     N_R   0.902100 0.059930 0.454470 -0.044250
N8    N     N_R   0.097900 0.940070 0.545530 -0.044101
N9    N     N_R   0.567170 0.559950 0.454460 -0.038560
N10   N     N_R   0.432830 0.440050 0.545540 -0.039227
N11   N     N_R   0.432830 0.559950 0.545540 -0.038116
N12   N     N_R   0.467030 0.440100 0.334790 -0.039668
N13   N     N_R   0.567170 0.440050 0.454460 -0.038890
N14   N     N_R   0.067170 0.059950 0.454460 -0.043076
N15   N     N_R   0.932830 0.940050 0.545540 -0.046089
N16   N     N_R   0.932830 0.059950 0.545540 -0.044349
N17   N     N_R   0.067170 0.940050 0.454460 -0.044915
N18   N     N_R   0.421470 0.559970 0.334770 -0.040951
N19   N     N_R   0.578530 0.440030 0.665230 -0.040750
N20   N     N_R   0.578530 0.559970 0.665230 -0.040942
N21   N     N_R   0.421470 0.440030 0.334770 -0.040536
N22   N     N_R   0.921470 0.059970 0.334770 -0.036604
N23   N     N_R   0.467030 0.559900 0.334790 -0.041390
N24   N     N_R   0.078530 0.940030 0.665230 -0.037204
N25   N     N_R   0.078530 0.059970 0.665230 -0.036926
N26   N     N_R   0.921470 0.940030 0.334770 -0.036518
N27   N     N_R   0.532970 0.440100 0.665210 -0.042102
N28   N     N_R   0.032970 0.059900 0.665210 -0.035075
N29   N     N_R   0.967030 0.940100 0.334790 -0.036508
N30   N     N_R   0.967030 0.059900 0.334790 -0.037122
N31   N     N_R   0.032970 0.940100 0.665210 -0.036841
N32   N     N_R   0.597900 0.559930 0.545530 -0.037300
Ni1   Ni    Ni4+2 0.483030 0.500000 0.604430 0.211413
Ni2   Ni    Ni4+2 0.516970 0.500000 0.395570 0.211102
Ni3   Ni    Ni4+2 0.983030 0.000000 0.604430 0.208186
Ni4   Ni    Ni4+2 0.016970 0.000000 0.395570 0.210087
Ni5   Ni    Ni4+2 0.587400 0.500000 0.604430 0.215251
Ni6   Ni    Ni4+2 0.412600 0.500000 0.395570 0.211587
Ni7   Ni    Ni4+2 0.087400 0.000000 0.604430 0.212938
Ni8   Ni    Ni4+2 0.912600 0.000000 0.395570 0.209818

loop_
_geom_bond_atom_site_label_1
_geom_bond_atom_site_label_2
_ccdc_geom_bond_type
C88   H118  S    
C7    C29   A    
C171  H44   S    
C177  H112  S    
C160  H52   S    
C131  H102  S    
C74   C83   A    
C136  C140  A    
C66   C85   S    
C41   C67   A    
C33   C114  S    
C111  H37   S    
C49   C60   A    
N3    Ni6   S    
C122  C139  A    
C65   C194  A    
C147  C164  A    
C107  H26   S    
N10   Ni1   S    
C2    C90   A    
C9    C182  A    
N29   Ni4   S    
C11   C15   A    
C113  C122  A    
C154  H46   S    
C10   C20   A    
C45   N20   A    
C3    C158  A    
C13   C130  A    
C29   C108  S    
C35   C115  A    
C117  C126  A    
C47   C53   A    
C194  N5    A    
C74   C123  A    
C153  C180  A    
C178  H116  S    
C61   C189  A    
C148  C165  A    
C39   C65   A    
C5    C186  A    
C36   C62   A    
C26   C105  S    
C36   H74   S    
C37   C63   A    
C38   C64   A    
N25   N28   A    
C68   C95   A    
C115  C123  A    
C30   C109  S    
C193  H67   S    
C176  C185  A    
C194  H68   S    
C104  H16   S    
C16   C188  A    
N14   Ni4   S    
C129  C142  A    
C108  H28   S    
C18   H56   S    
C132  C137  A    
C44   H83   S    
C34   C61   A    
C148  C174  A    
C82   C91   A    
N11   Ni1   S    
C149  C175  A    
C60   C151  S    
C75   H96   S    
C58   C153  S    
C152  C170  A    
C91   H120  S    
C7    C188  A    
C43   C54   A    
C43   N18   A    
C99   H136  S    
N7    N16   A    
C135  H71   S    
C127  C143  A    
N12   N21   A    
C54   C145  S    
C62   C81   S    
C164  H126  S    
C173  C182  A    
C105  H17   S    
C131  C144  A    
C130  H101  S    
N22   N30   A    
C124  N23   A    
C191  N2    A    
N22   Ni8   S    
C121  C140  A    
C114  H40   S    
C92   H121  S    
C168  N30   A    
C173  H108  S    
N26   Ni8   S    
C182  C199  A    
C103  C143  S    
C19   H57   S    
N24   N31   A    
C155  H47   S    
C45   C52   A    
C61   C82   S    
C112  N12   A    
C159  H51   S    
N7    Ni8   S    
C80   C88   A    
C10   C16   A    
C44   C55   A    
C12   C185  A    
C98   H132  S    
C31   C110  S    
C159  C167  A    
C128  C190  A    
C84   C93   A    
C86   C95   A    
C14   C21   A    
C4    C159  A    
C103  H10   S    
C168  H104  S    
C102  H8    S    
C35   C132  A    
C97   H129  S    
C78   C87   A    
C98   H133  S    
C32   C111  S    
C100  H4    S    
C94   H123  S    
C24   C131  A    
C162  H54   S    
C48   N22   A    
C112  H49   S    
C60   C179  A    
C101  C118  A    
C70   H90   S    
C51   H89   S    
C76   H97   S    
C154  C198  A    
C109  H32   S    
C146  N28   A    
C75   C84   A    
C151  C177  A    
C63   C192  A    
C12   C22   A    
C2    C129  A    
N27   Ni1   S    
C68   C118  A    
C43   H81   S    
C189  N32   A    
C172  C181  A    
C6    C28   A    
N15   Ni3   S    
C105  H19   S    
C132  H103  S    
N8    N17   A    
C77   C127  A    
C110  H33   S    
N4    N13   A    
C145  C172  A    
C176  H113  S    
C52   C148  S    
C53   C149  S    
C191  H65   S    
C51   N26   A    
C63   C80   S    
C34   H73   S    
C162  C171  A    
C103  H11   S    
C134  C139  A    
C21   H59   S    
C145  C163  A    
C27   C106  S    
C50   C56   A    
C189  H64   S    
C73   H94   S    
C197  H72   S    
C90   C120  A    
C47   N21   A    
C42   H80   S    
N5    N14   A    
C6    C161  A    
C5    C160  A    
N16   Ni3   S    
N8    Ni7   S    
C19   C28   A    
C97   H131  S    
C87   C190  A    
C113  C117  A    
C30   C198  A    
C105  H18   S    
C16   C23   A    
C167  H43   S    
C116  C125  A    
C44   N19   A    
C118  C127  A    
N2    Ni6   S    
C67   C196  A    
C195  H69   S    
C155  C199  A    
C48   C59   A    
C96   H128  S    
C3    C184  A    
C193  N4    A    
C169  H35   S    
C99   H3    S    
C119  C138  A    
C64   C78   S    
C11   C184  A    
C58   C157  A    
C100  H5    S    
C102  H9    S    
C62   C191  A    
C120  C137  A    
N3    N11   A    
C183  C200  A    
C151  C169  A    
C98   C139  S    
C57   C94   A    
C72   H92   S    
C134  H106  S    
C107  H25   S    
C126  C144  A    
C9    C12   A    
C135  N27   A    
C37   N11   A    
C166  H13   S    
C20   C29   A    
C42   N17   A    
C77   H98   S    
N31   Ni3   S    
C102  C142  S    
N12   Ni2   S    
C25   C33   A    
C8    C181  A    
C106  H20   S    
C72   C121  A    
C76   C126  A    
C22   H61   S    
C1    H1    S    
C31   C199  A    
C66   C195  A    
C65   C86   S    
C163  H2    S    
C11   C19   A    
N28   Ni3   S    
C74   H95   S    
C100  C141  S    
C106  H21   S    
C3    C33   A    
C38   N13   A    
C157  H93   S    
C196  N7    A    
C180  C188  A    
C48   H86   S    
C49   H87   S    
C99   H135  S    
N4    Ni5   S    
C79   C119  A    
C160  C169  A    
C196  H70   S    
C56   C152  S    
C128  C141  A    
C72   C81   A    
C146  H82   S    
N24   Ni7   S    
C81   C89   A    
C35   C92   A    
C40   H78   S    
C133  C138  A    
C45   H84   S    
C40   C66   A    
C10   C183  A    
C110  H36   S    
N18   Ni6   S    
C111  H38   S    
C149  C166  A    
C156  H48   S    
C6    C187  A    
C101  C121  A    
C75   C125  A    
C4    C185  A    
C41   H79   S    
N19   Ni5   S    
C87   H117  S    
C51   C58   A    
C90   C115  A    
C95   H124  S    
C178  C187  A    
C96   H125  S    
C57   C134  A    
C17   C26   A    
N30   Ni4   S    
C73   C82   A    
C13   C101  A    
C158  C166  A    
C128  H99   S    
C57   C117  A    
C59   C150  S    
C54   C124  A    
C98   H134  S    
C50   H88   S    
C158  H50   S    
C104  H15   S    
C174  C183  A    
C50   N25   A    
C4    C26   A    
C147  C173  A    
C192  N3    A    
C108  H27   S    
C21   C30   A    
C46   C116  A    
C23   C32   A    
C89   H119  S    
C32   C200  A    
C46   C133  A    
C109  H31   S    
C156  C165  A    
C175  H110  S    
C25   H63   S    
C150  C167  A    
C123  C142  A    
N13   Ni2   S    
C56   C146  A    
C1    C52   A    
C8    C18   A    
C15   C25   A    
N6    N15   A    
C177  C186  A    
C124  H60   S    
C73   C122  A    
C195  N6    A    
N20   Ni5   S    
C28   C107  S    
C59   C168  A    
C110  H34   S    
C165  H24   S    
C20   H58   S    
C175  C184  A    
N26   N29   A    
C150  C176  A    
C39   N14   A    
C70   C78   A    
C161  H53   S    
C83   C92   A    
C46   C93   A    
N9    N32   A    
C71   C120  A    
N21   Ni6   S    
N32   Ni5   S    
C14   C186  A    
C40   N15   A    
N18   N23   A    
C109  H30   S    
C36   N10   A    
N5    Ni7   S    
C79   C190  A    
C96   H127  S    
C104  C144  S    
C170  H45   S    
C2    C88   A    
C102  H7    S    
C93   H122  S    
C97   H130  S    
C34   N9    A    
C24   C113  A    
C5    C27   A    
C79   C116  A    
C69   C197  A    
C156  C200  A    
C71   H91   S    
C181  C198  A    
C157  N29   A    
C71   C80   A    
C107  H23   S    
C108  H29   S    
C7    C162  A    
C22   C31   A    
C154  C163  A    
C68   C136  A    
N23   Ni2   S    
C47   H85   S    
C125  C141  A    
C96   C137  S    
C100  H6    S    
C23   H62   S    
C76   C85   A    
C15   C187  A    
C172  H109  S    
C42   C69   A    
C111  H39   S    
C174  H111  S    
C69   C83   S    
C85   C94   A    
C39   H77   S    
C55   C147  S    
C70   C119  A    
C64   C193  A    
C153  C171  A    
C49   N24   A    
C192  H66   S    
N17   Ni4   S    
C130  C143  A    
C133  H105  S    
C161  C170  A    
C53   C112  A    
C9    C17   A    
C77   C86   A    
C99   C140  S    
C41   N16   A    
C1    N1    A    
C24   C91   A    
C97   C138  S    
N9    Ni2   S    
C17   H55   S    
C8    C14   A    
C13   C89   A    
C18   C27   A    
C103  H12   S    
N6    Ni8   S    
C114  H42   S    
N1    N20   A    
C155  C164  A    
N19   N27   A    
C129  H100  S    
N2    N10   A    
C104  H14   S    
C37   H75   S    
C136  H107  S    
C38   H76   S    
C106  H22   S    
C197  N8    A    
C180  H114  S    
C55   C135  A    
C152  C178  A    
C179  H115  S    
C67   C84   S    
C114  H41   S    
N1    Ni1   S    
N25   Ni7   S    
C179  N31   A    
