data_mof_unit_65448.cif
_audit_creation_date              2012-12-10T18:00:43-0500
_audit_creation_method            fapswitch 2.2
_symmetry_space_group_name_H-M    P1
_symmetry_Int_Tables_number       1
_space_group_crystal_system       triclinic
_cell_length_a                    38.5812
_cell_length_b                    21.687749
_cell_length_c                    21.638666
_cell_angle_alpha                 89.99986
_cell_angle_beta                  55.489756
_cell_angle_gamma                 89.996353
_cell_volume                      14919.7323025

loop_
_atom_site_label
_atom_site_type_symbol
_atom_type_description
_atom_site_fract_x
_atom_site_fract_y
_atom_site_fract_z
_atom_type_partial_charge
C1    C     C_R   0.999004 0.500066 0.380924 0.918162
C2    C     C_R   0.000994 0.500065 0.619079 0.918223
C3    C     C_R   0.499008 0.000065 0.380918 0.918113
C4    C     C_R   0.500992 0.000065 0.619080 0.918217
C5    C     C_3   0.708687 0.499675 0.791269 0.164748
C6    C     C_3   0.291316 0.499783 0.208741 0.164703
C7    C     C_3   0.208685 0.999763 0.791262 0.164726
C8    C     C_3   0.791315 0.999738 0.208739 0.164710
C9    C     C_3   0.763118 0.506176 0.794879 -0.002464
C10   C     C_3   0.236872 0.509561 0.205624 -0.002599
C11   C     C_3   0.263124 0.008547 0.794550 -0.002544
C12   C     C_3   0.736876 0.008238 0.205407 -0.002579
C13   C     C_3   0.735634 0.553489 0.787927 -0.197749
C14   C     C_3   0.264321 0.554839 0.215289 -0.198044
C15   C     C_3   0.235661 0.054461 0.785702 -0.197980
C16   C     C_3   0.764336 0.054330 0.214029 -0.197839
C17   C     C_1   0.836756 0.499734 0.663327 -0.000810
C18   C     C_1   0.163245 0.499729 0.336688 -0.000587
C19   C     C_1   0.336755 0.999743 0.663316 -0.000653
C20   C     C_1   0.663244 0.999725 0.336685 -0.000673
C21   C     C_1   0.663264 0.499755 0.836311 -0.034689
C22   C     C_1   0.336739 0.499842 0.163695 -0.034704
C23   C     C_1   0.163262 0.999825 0.836308 -0.034731
C24   C     C_1   0.836738 0.999807 0.163693 -0.034704
C25   C     C_R   0.024198 0.542632 0.259298 -0.201789
C26   C     C_R   0.975808 0.542648 0.740698 -0.201599
C27   C     C_R   0.524173 0.042665 0.259313 -0.201638
C28   C     C_R   0.475769 0.042602 0.740733 -0.201708
C29   C     C_R   0.024632 0.546728 0.194897 0.112422
C30   C     C_R   0.975373 0.546741 0.805102 0.112316
C31   C     C_R   0.524590 0.046768 0.194927 0.112245
C32   C     C_R   0.475333 0.046702 0.805137 0.112411
C33   C     C_R   0.999479 0.504688 0.186911 -0.074911
C34   C     C_R   0.000518 0.504686 0.813094 -0.074889
C35   C     C_R   0.499473 0.004679 0.186914 -0.074869
C36   C     C_R   0.500517 0.004696 0.813091 -0.074966
C37   C     C_R   0.972745 0.463174 0.243842 -0.250862
C38   C     C_R   0.027236 0.463144 0.756180 -0.250710
C39   C     C_R   0.472778 0.963116 0.243808 -0.250804
C40   C     C_R   0.527271 0.963203 0.756141 -0.250760
C41   C     C_R   0.970612 0.461593 0.309898 -0.029824
C42   C     C_R   0.029364 0.461555 0.690131 -0.029905
C43   C     C_R   0.470649 0.961536 0.309859 -0.029853
C44   C     C_R   0.529397 0.961612 0.690093 -0.029893
C45   C     C_R   0.918782 0.499998 0.581251 0.940876
C46   C     C_R   0.081219 0.499993 0.418751 0.940621
C47   C     C_R   0.418781 0.999997 0.581249 0.940662
C48   C     C_R   0.581218 0.999993 0.418749 0.940808
C49   C     C_R   0.997634 0.500849 0.316092 -0.130003
C50   C     C_R   0.002360 0.500844 0.683915 -0.129920
C51   C     C_R   0.497640 0.000842 0.316082 -0.130042
C52   C     C_R   0.502357 0.000846 0.683915 -0.129958
C53   C     C_R   0.500008 0.380530 0.999991 0.932767
C54   C     C_R   0.000004 0.880531 0.999996 0.932750
C55   C     C_R   0.581253 0.499922 0.918607 0.915586
C56   C     C_R   0.418748 0.499930 0.081392 0.915701
C57   C     C_R   0.081253 0.999929 0.918608 0.915678
C58   C     C_R   0.918747 0.999927 0.081393 0.915695
C59   C     C_R   0.500000 0.620114 1.000000 0.842087
C60   C     C_R   0.000000 0.120114 1.000000 0.842101
C61   C     C_R   0.000001 0.379434 0.999998 0.884738
C62   C     C_R   0.500001 0.879434 0.999998 0.884710
C63   C     C_R   0.999892 0.502675 0.120408 0.866951
C64   C     C_R   0.000107 0.502676 0.879593 0.866945
C65   C     C_R   0.499891 0.002659 0.120409 0.866865
C66   C     C_R   0.500107 0.002681 0.879592 0.866894
C67   C     C_R   0.999999 0.620888 0.999998 0.868286
C68   C     C_R   0.499998 0.120887 0.999988 0.868267
C69   C     C_R   0.462370 0.285097 0.050686 -0.039871
C70   C     C_R   0.537636 0.285078 0.949280 -0.040122
C71   C     C_R   0.962363 0.785099 0.050661 -0.039958
C72   C     C_R   0.037642 0.785087 0.949329 -0.040021
C73   C     C_R   0.962190 0.720869 0.054772 0.050758
C74   C     C_R   0.037810 0.720858 0.945214 0.050851
C75   C     C_R   0.462196 0.220867 0.054786 0.050689
C76   C     C_R   0.537795 0.220850 0.945149 0.051046
C77   C     C_R   0.999999 0.688229 0.999994 -0.153019
C78   C     C_R   0.499995 0.188226 0.999971 -0.153232
C79   C     C_3   0.736300 0.493041 0.705411 -0.164505
C80   C     C_3   0.263715 0.489772 0.294108 -0.164047
C81   C     C_3   0.236290 0.990776 0.705724 -0.164181
C82   C     C_3   0.763709 0.991042 0.294320 -0.164250
C83   C     C_R   0.500006 0.315427 0.999989 -0.227325
C84   C     C_R   0.000003 0.815430 0.999995 -0.227239
C85   C     C_R   0.526845 0.717879 0.013008 -0.171811
C86   C     C_R   0.473161 0.717885 0.986982 -0.171702
C87   C     C_R   0.026845 0.217879 0.013007 -0.171742
C88   C     C_R   0.973160 0.217885 0.986984 -0.171698
C89   C     C_R   0.027333 0.281680 0.011796 -0.171221
C90   C     C_R   0.972674 0.281686 0.988190 -0.171141
C91   C     C_R   0.527333 0.781680 0.011799 -0.171255
C92   C     C_R   0.472674 0.781686 0.988190 -0.171165
C93   C     C_R   0.000004 0.313333 0.999993 -0.021756
C94   C     C_R   0.500004 0.813333 0.999993 -0.021715
C95   C     C_R   0.500002 0.686226 0.999998 -0.007566
C96   C     C_R   0.000002 0.186226 0.999997 -0.007601
C97   C     C_3   0.764196 0.546637 0.701264 -0.201838
C98   C     C_3   0.235770 0.544618 0.301451 -0.201305
C99   C     C_3   0.264216 0.045262 0.699365 -0.201473
C100  C     C_3   0.735781 0.045421 0.300410 -0.201491
C101  C     C_1   0.874294 0.499911 0.625656 -0.110141
C102  C     C_1   0.125708 0.499894 0.374353 -0.110069
C103  C     C_1   0.374292 0.999908 0.625648 -0.110124
C104  C     C_1   0.625707 0.999896 0.374351 -0.110057
C105  C     C_1   0.625733 0.499825 0.873796 -0.158299
C106  C     C_1   0.374269 0.499876 0.126205 -0.158023
C107  C     C_1   0.125732 0.999867 0.873796 -0.158211
C108  C     C_1   0.874268 0.999856 0.126205 -0.158064
C109  C     C_3   0.763716 0.446513 0.713647 0.118787
C110  C     C_3   0.236337 0.445346 0.283204 0.119309
C111  C     C_3   0.263683 0.945695 0.715826 0.119136
C112  C     C_3   0.736319 0.945776 0.284442 0.119120
C113  C     C_3   0.791244 0.499553 0.709366 0.087802
C114  C     C_3   0.208758 0.499606 0.290649 0.087720
C115  C     C_3   0.291242 0.999603 0.709355 0.087748
C116  C     C_3   0.708757 0.999580 0.290646 0.087745
C117  C     C_3   0.735370 0.452408 0.800010 -0.222644
C118  C     C_3   0.264670 0.454609 0.197289 -0.222880
C119  C     C_3   0.235346 0.953936 0.801899 -0.222789
C120  C     C_3   0.764657 0.953727 0.198329 -0.222849
H1    H     H_    0.776603 0.585189 0.660334 0.155826
H2    H     H_    0.223330 0.581444 0.344602 0.155968
H3    H     H_    0.276643 0.082626 0.656882 0.155920
H4    H     H_    0.723352 0.082935 0.342707 0.155917
H5    H     H_    0.547754 0.693239 0.022786 0.147759
H6    H     H_    0.452250 0.693251 0.977208 0.147969
H7    H     H_    0.047755 0.193239 0.022783 0.147885
H8    H     H_    0.952250 0.193251 0.977210 0.147933
H9    H     H_    0.048374 0.306319 0.021243 0.149365
H10   H     H_    0.951633 0.306330 0.978743 0.149442
H11   H     H_    0.548373 0.806319 0.021247 0.149316
H12   H     H_    0.451634 0.806330 0.978741 0.149426
H13   H     H_    0.724531 0.487436 0.669325 0.136207
H14   H     H_    0.275496 0.481436 0.329775 0.136122
H15   H     H_    0.224514 0.983269 0.669913 0.136160
H16   H     H_    0.775486 0.983772 0.330170 0.136156
H17   H     H_    0.723342 0.597439 0.819481 0.155243
H18   H     H_    0.276571 0.599840 0.186355 0.155288
H19   H     H_    0.223395 0.099157 0.815443 0.155242
H20   H     H_    0.776599 0.098938 0.184066 0.155332
H21   H     H_    0.722996 0.413904 0.841027 0.161146
H22   H     H_    0.277072 0.417838 0.154057 0.160424
H23   H     H_    0.222955 0.916624 0.844465 0.160681
H24   H     H_    0.777051 0.916264 0.155948 0.160667
H25   H     H_    0.044564 0.572511 0.265564 0.156701
H26   H     H_    0.955449 0.572542 0.734424 0.156505
H27   H     H_    0.544519 0.072575 0.265594 0.156660
H28   H     H_    0.455383 0.072454 0.734483 0.156593
H29   H     H_    0.952940 0.432565 0.236880 0.191695
H30   H     H_    0.047030 0.432515 0.763154 0.191644
H31   H     H_    0.452999 0.932468 0.236822 0.191613
H32   H     H_    0.547093 0.932612 0.763086 0.191708
O1    O     O_R   0.000010 0.448280 0.408380 -0.603497
O2    O     O_R   0.999990 0.448280 0.591620 -0.603267
O3    O     O_R   0.500010 0.948280 0.408380 -0.603420
O4    O     O_R   0.499990 0.948280 0.591620 -0.603427
O5    O     O_R   0.034780 0.499900 0.056880 -0.626180
O6    O     O_R   0.965220 0.499900 0.943120 -0.626163
O7    O     O_R   0.534780 0.999900 0.056880 -0.626101
O8    O     O_R   0.465220 0.999900 0.943120 -0.626190
O9    O     O_R   0.965220 0.499940 0.126430 -0.626068
O10   O     O_R   0.034780 0.499940 0.873570 -0.626058
O11   O     O_R   0.465220 0.999940 0.126430 -0.626046
O12   O     O_R   0.534780 0.999940 0.873570 -0.626055
O13   O     O_R   0.034810 0.591520 0.965270 -0.640456
O14   O     O_R   0.965190 0.591520 0.034730 -0.640463
O15   O     O_R   0.534810 0.091520 0.965270 -0.640411
O16   O     O_R   0.465190 0.091520 0.034730 -0.640455
O17   O     O_R   0.000010 0.551730 0.408430 -0.631183
O18   O     O_R   0.999990 0.551730 0.591570 -0.631354
O19   O     O_R   0.500010 0.051730 0.408430 -0.631242
O20   O     O_R   0.499990 0.051730 0.591570 -0.631217
O21   O     O_R   0.938390 0.448280 0.561610 -0.595021
O22   O     O_R   0.061610 0.448280 0.438390 -0.595795
O23   O     O_R   0.438390 0.948280 0.561610 -0.595534
O24   O     O_R   0.561610 0.948280 0.438390 -0.595530
O25   O     O_R   0.938400 0.551730 0.561660 -0.626876
O26   O     O_R   0.061600 0.551730 0.438340 -0.625975
O27   O     O_R   0.438400 0.051730 0.561660 -0.626275
O28   O     O_R   0.561600 0.051730 0.438340 -0.626311
O29   O     O_R   0.500010 0.408260 0.948350 -0.592255
O30   O     O_R   0.499990 0.408260 0.051650 -0.592452
O31   O     O_R   0.000010 0.908260 0.948350 -0.592328
O32   O     O_R   0.999990 0.908260 0.051650 -0.592489
O33   O     O_R   0.561620 0.499890 0.886700 -0.608064
O34   O     O_R   0.438380 0.499890 0.113300 -0.608108
O35   O     O_R   0.061620 0.999890 0.886700 -0.608043
O36   O     O_R   0.938380 0.999890 0.113300 -0.608127
O37   O     O_R   0.561610 0.499990 0.990150 -0.612271
O38   O     O_R   0.438390 0.499990 0.009850 -0.612332
O39   O     O_R   0.061610 0.999990 0.990150 -0.612320
O40   O     O_R   0.938390 0.999990 0.009850 -0.612268
O41   O     O_R   0.500010 0.591500 0.948260 -0.624397
O42   O     O_R   0.499990 0.591500 0.051740 -0.624413
O43   O     O_R   0.000010 0.091500 0.948260 -0.624383
O44   O     O_R   0.999990 0.091500 0.051740 -0.624403
O45   O     O_R   0.034760 0.408280 0.965230 -0.614669
O46   O     O_R   0.965240 0.408280 0.034770 -0.614654
O47   O     O_R   0.534760 0.908280 0.965230 -0.614693
O48   O     O_R   0.465240 0.908280 0.034770 -0.614656
Zn1   Zn    Zn3+2 0.000000 0.430930 0.500000 1.030267
Zn2   Zn    Zn3+2 0.500000 0.930930 0.500000 1.030065
Zn3   Zn    Zn3+2 0.000000 0.569080 0.500000 0.973635
Zn4   Zn    Zn3+2 0.500000 0.069080 0.500000 0.973806
Zn5   Zn    Zn3+2 0.500010 0.499860 0.930960 1.012693
Zn6   Zn    Zn3+2 0.499990 0.499860 0.069040 1.012767
Zn7   Zn    Zn3+2 0.000010 0.999860 0.930960 1.012809
Zn8   Zn    Zn3+2 0.999990 0.999860 0.069040 1.012679
Zn9   Zn    Zn3+2 0.046450 0.499890 0.953590 0.942685
Zn10  Zn    Zn3+2 0.953550 0.499890 0.046410 0.942711
Zn11  Zn    Zn3+2 0.546450 0.999890 0.953590 0.942774
Zn12  Zn    Zn3+2 0.453550 0.999890 0.046410 0.942676
C121  C     C_2   0.938739 0.420712 0.371334 0.913757
O49   O     O_2   0.921480 0.435842 0.436933 -0.645854
O50   O     O_R   0.927156 0.365728 0.353855 -0.807401
H33   H     H_    0.904816 0.342241 0.400175 0.343704
C122  C     C_2   0.061207 0.420621 0.628726 0.914036
O51   O     O_2   0.078494 0.435735 0.563117 -0.645543
O52   O     O_R   0.072726 0.365595 0.646250 -0.807257
H34   H     H_    0.095046 0.342063 0.599949 0.343769
C123  C     C_2   0.438816 0.920594 0.371258 0.913984
O53   O     O_2   0.421517 0.935717 0.436868 -0.645584
O54   O     O_R   0.427317 0.865555 0.353726 -0.807332
H35   H     H_    0.405000 0.842022 0.400024 0.343748
C124  C     C_2   0.561276 0.920736 0.628650 0.913871
O55   O     O_2   0.578529 0.935864 0.563053 -0.645705
O56   O     O_R   0.572867 0.865755 0.646123 -0.807349
H36   H     H_    0.595206 0.842264 0.599800 0.343718
C125  C     C_2   0.423345 0.321856 0.099432 0.862928
O57   O     O_2   0.396774 0.323761 0.085469 -0.647370
O58   O     O_R   0.417274 0.353910 0.160860 -0.790770
H37   H     H_    0.389504 0.376874 0.189851 0.333417
C126  C     C_2   0.576676 0.321811 0.900577 0.862828
O59   O     O_2   0.603299 0.323489 0.914425 -0.646635
O60   O     O_R   0.582704 0.354096 0.839317 -0.790692
H38   H     H_    0.610486 0.377026 0.810352 0.333441
C127  C     C_2   0.923331 0.821854 0.099358 0.862908
O61   O     O_2   0.896781 0.823740 0.085343 -0.647096
O62   O     O_R   0.917231 0.853929 0.160797 -0.790813
H39   H     H_    0.889458 0.876887 0.189751 0.333414
C128  C     C_2   0.076679 0.821828 0.900642 0.862838
O63   O     O_2   0.103262 0.823602 0.914582 -0.647106
O64   O     O_R   0.082748 0.854016 0.839294 -0.790738
H40   H     H_    0.110525 0.876957 0.810342 0.333412
C129  C     C_3   0.921905 0.689459 0.119535 -0.345360
C130  C     C_3   0.927536 0.662283 0.179009 -0.334310
C131  C     C_3   0.926940 0.712534 0.229119 -0.826926
H41   H     H_    0.954203 0.744009 0.195639 0.284497
H42   H     H_    0.897342 0.739621 0.256348 0.271463
H43   H     H_    0.928695 0.691052 0.273837 0.234166
H44   H     H_    0.901241 0.629813 0.214835 0.212778
H45   H     H_    0.957346 0.635940 0.152763 0.226165
H46   H     H_    0.894454 0.720735 0.149640 0.199003
H47   H     H_    0.909835 0.654988 0.098490 0.194609
C132  C     C_3   0.078088 0.689437 0.880434 -0.345325
C133  C     C_3   0.072439 0.662270 0.820977 -0.334384
C134  C     C_3   0.073025 0.712529 0.770886 -0.826983
H48   H     H_    0.045760 0.744003 0.804380 0.284441
H49   H     H_    0.102621 0.739615 0.743655 0.271438
H50   H     H_    0.071269 0.691055 0.726167 0.234222
H51   H     H_    0.098732 0.629793 0.785136 0.212820
H52   H     H_    0.042628 0.635935 0.847238 0.226162
H53   H     H_    0.105539 0.720703 0.850312 0.199077
H54   H     H_    0.090166 0.654959 0.901459 0.194644
C135  C     C_3   0.421924 0.189456 0.119577 -0.345503
C136  C     C_3   0.427586 0.162286 0.179016 -0.334321
C137  C     C_3   0.426997 0.212539 0.229115 -0.826563
H55   H     H_    0.454273 0.243991 0.195631 0.284503
H56   H     H_    0.397409 0.239650 0.256321 0.271468
H57   H     H_    0.428731 0.191059 0.273855 0.234125
H58   H     H_    0.401299 0.129806 0.214856 0.212782
H59   H     H_    0.457403 0.135956 0.152743 0.226236
H60   H     H_    0.394473 0.220731 0.149701 0.198954
H61   H     H_    0.409840 0.154982 0.098560 0.194617
C138  C     C_3   0.578045 0.189427 0.880301 -0.345074
C139  C     C_3   0.572324 0.162268 0.820929 -0.334493
C140  C     C_3   0.572870 0.212532 0.770882 -0.827144
H62   H     H_    0.545611 0.244009 0.804425 0.284392
H63   H     H_    0.602468 0.239615 0.743595 0.271368
H64   H     H_    0.571073 0.191063 0.726204 0.234242
H65   H     H_    0.598601 0.129782 0.785043 0.212903
H66   H     H_    0.542504 0.135943 0.847265 0.226068
H67   H     H_    0.605494 0.220694 0.850116 0.199174
H68   H     H_    0.590159 0.154945 0.901257 0.194775
C141  C     C_2   0.777249 0.513765 0.846220 0.905942
O65   O     O_2   0.751023 0.518617 0.913707 -0.615782
O66   O     O_R   0.820119 0.515263 0.817003 -0.815013
H69   H     H_    0.825576 0.520608 0.857340 0.343665
C142  C     C_2   0.222729 0.520890 0.154843 0.905903
O67   O     O_2   0.248948 0.528160 0.087715 -0.616199
O68   O     O_R   0.179856 0.523091 0.184166 -0.815091
H70   H     H_    0.174391 0.531054 0.144223 0.343346
C143  C     C_2   0.277263 0.018742 0.845525 0.905905
O69   O     O_2   0.251042 0.025279 0.912777 -0.616109
O70   O     O_R   0.320135 0.020729 0.816237 -0.815083
H71   H     H_    0.325597 0.027896 0.856317 0.343417
C144  C     C_2   0.722737 0.018109 0.154382 0.905948
O71   O     O_2   0.748959 0.024437 0.087097 -0.615960
O72   O     O_R   0.679866 0.020037 0.183660 -0.815069
H72   H     H_    0.674403 0.026980 0.143545 0.343494
C145  C     C_3   0.780532 0.385912 0.670569 -0.416177
C146  C     C_3   0.744509 0.343027 0.687819 -0.342509
C147  C     C_3   0.761307 0.282495 0.644790 -0.849289
H73   H     H_    0.780959 0.291343 0.583425 0.263236
H74   H     H_    0.780444 0.258108 0.660782 0.265036
H75   H     H_    0.734565 0.252418 0.658353 0.250027
H76   H     H_    0.724325 0.332782 0.748885 0.237088
H77   H     H_    0.724829 0.365851 0.671921 0.223000
H78   H     H_    0.800677 0.396255 0.609543 0.216637
H79   H     H_    0.800153 0.363164 0.686621 0.212219
C148  C     C_3   0.219608 0.383299 0.322651 -0.417955
C149  C     C_3   0.255698 0.339488 0.302820 -0.340359
C150  C     C_3   0.238996 0.277505 0.342207 -0.849470
H80   H     H_    0.219337 0.283886 0.404025 0.262964
H81   H     H_    0.219892 0.255134 0.324831 0.265133
H82   H     H_    0.265787 0.246787 0.326830 0.250153
H83   H     H_    0.275893 0.331663 0.241217 0.237970
H84   H     H_    0.275349 0.360272 0.320007 0.222964
H85   H     H_    0.199455 0.391228 0.384217 0.216341
H86   H     H_    0.200015 0.362596 0.305316 0.211933
C151  C     C_3   0.280443 0.884067 0.675261 -0.417378
C152  C     C_3   0.244376 0.840524 0.694295 -0.341060
C153  C     C_3   0.261111 0.778960 0.653787 -0.849346
H87   H     H_    0.280770 0.786094 0.592092 0.263045
H88   H     H_    0.280225 0.755966 0.670755 0.265116
H89   H     H_    0.234337 0.748427 0.668603 0.250110
H90   H     H_    0.224183 0.831959 0.755749 0.237725
H91   H     H_    0.224717 0.861938 0.677487 0.222965
H92   H     H_    0.300594 0.892733 0.613845 0.216439
H93   H     H_    0.300044 0.862732 0.692219 0.212039
C154  C     C_3   0.719560 0.884269 0.325315 -0.417239
C155  C     C_3   0.755627 0.840806 0.306499 -0.341235
C156  C     C_3   0.738891 0.779365 0.347315 -0.849572
H94   H     H_    0.719233 0.786711 0.408973 0.263075
H95   H     H_    0.719778 0.756194 0.330461 0.265070
H96   H     H_    0.765665 0.748887 0.332651 0.250086
H97   H     H_    0.775820 0.832033 0.245088 0.237585
H98   H     H_    0.775286 0.862398 0.323201 0.222965
H99   H     H_    0.699408 0.893144 0.386687 0.216451
H100  H     H_    0.699959 0.862756 0.308463 0.211991
C157  C     C_3   0.051188 0.596935 0.138073 -0.434388
C158  C     C_3   0.036964 0.661522 0.172734 -0.390808
C159  C     C_3   0.056946 0.711783 0.112791 -0.807227
H101  H     H_    0.091784 0.709152 0.080404 0.269242
H102  H     H_    0.046997 0.706679 0.073912 0.261158
H103  H     H_    0.046641 0.757778 0.139893 0.258113
H104  H     H_    0.002297 0.665100 0.203840 0.237304
H105  H     H_    0.045756 0.669606 0.212876 0.231478
H106  H     H_    0.084678 0.590004 0.117278 0.209469
H107  H     H_    0.049556 0.595424 0.088720 0.226013
C160  C     C_3   0.948816 0.596952 0.861930 -0.434356
C161  C     C_3   0.963020 0.661539 0.827269 -0.390787
C162  C     C_3   0.943044 0.711801 0.887215 -0.807397
H108  H     H_    0.908205 0.709165 0.919629 0.269187
H109  H     H_    0.953011 0.706706 0.926069 0.261179
H110  H     H_    0.953334 0.757796 0.860113 0.258115
H111  H     H_    0.997686 0.665123 0.796131 0.237334
H112  H     H_    0.954206 0.669615 0.787154 0.231358
H113  H     H_    0.915323 0.590011 0.882750 0.209629
H114  H     H_    0.950464 0.595450 0.911267 0.225955
C163  C     C_3   0.551086 0.097028 0.138135 -0.434114
C164  C     C_3   0.536935 0.161589 0.172930 -0.390798
C165  C     C_3   0.556669 0.211904 0.113039 -0.807044
H115  H     H_    0.591523 0.209254 0.080132 0.269506
H116  H     H_    0.546394 0.206882 0.074627 0.261045
H117  H     H_    0.546483 0.257877 0.140239 0.258106
H118  H     H_    0.502245 0.165136 0.204490 0.237353
H119  H     H_    0.546000 0.169646 0.212695 0.231383
H120  H     H_    0.584606 0.090051 0.117115 0.209505
H121  H     H_    0.549320 0.095611 0.088921 0.225851
C166  C     C_3   0.448728 0.096862 0.862008 -0.434348
C167  C     C_3   0.462853 0.161477 0.827397 -0.390744
C168  C     C_3   0.442847 0.211703 0.887389 -0.807554
H122  H     H_    0.408010 0.208989 0.919842 0.269124
H123  H     H_    0.452845 0.206637 0.926202 0.261207
H124  H     H_    0.453082 0.257717 0.860325 0.258115
H125  H     H_    0.497518 0.165142 0.796219 0.237361
H126  H     H_    0.454003 0.169524 0.787328 0.231404
H127  H     H_    0.415240 0.089837 0.882846 0.209494
H128  H     H_    0.450393 0.095388 0.911327 0.226022

loop_
_geom_bond_atom_site_label_1
_geom_bond_atom_site_label_2
_ccdc_geom_bond_type
C133  H52   S    
C119  H23   S    
C88   C90   A    
O54   H35   S    
C120  H24   S    
C110  C118  S    
C147  H74   S    
C164  H119  S    
C156  H94   S    
C59   C95   S    
C55   C105  S    
C158  H104  S    
C26   C50   A    
C36   C66   S    
C98   C114  S    
C73   C129  S    
C29   C33   A    
C151  H92   S    
C167  C168  S    
O21   Zn1   S    
C9    C13   S    
C11   C15   S    
C12   C16   S    
C46   O22   A    
O3    Zn2   S    
C11   C115  S    
C44   C124  S    
C5    C13   S    
C7    C15   S    
C8    C16   S    
C129  C130  S    
O42   Zn6   S    
C41   C49   A    
C162  H109  S    
C15   H19   S    
C121  O50   S    
C25   C29   A    
C31   C163  S    
C79   C109  S    
C27   C31   A    
C153  H87   S    
C7    C119  S    
C163  H121  S    
C28   C32   A    
C166  H127  S    
C168  H124  S    
C61   O45   A    
C71   C73   A    
C30   C34   A    
C158  C159  S    
C81   C99   S    
C145  C146  S    
C129  H46   S    
O22   Zn1   S    
C100  H4    S    
O50   H33   S    
C125  O57   D    
C45   O21   A    
C41   C121  S    
C6    C80   S    
O56   H36   S    
O37   Zn6   S    
C23   C107  T    
C148  H86   S    
C92   C94   A    
C56   C106  S    
C72   C84   A    
C132  H53   S    
C87   C89   A    
C58   O40   A    
C156  H96   S    
O2    Zn1   S    
C90   C93   A    
C75   C135  S    
C131  H43   S    
C63   O9    A    
C79   C97   S    
C146  H77   S    
O9    Zn10  S    
C9    C141  S    
C141  O66   S    
O14   Zn10  S    
C91   C94   A    
C154  H99   S    
C139  H66   S    
C31   C35   A    
C13   C97   S    
C57   O35   A    
C86   C95   A    
C91   H11   S    
C151  C152  S    
O35   Zn7   S    
C73   C77   A    
C54   O31   A    
C153  H88   S    
O64   H40   S    
O5    Zn9   S    
C30   C160  S    
C161  H112  S    
C86   H6    S    
O31   Zn7   S    
C160  C161  S    
C67   C77   S    
C43   C51   A    
C17   C113  S    
C59   O41   A    
C123  O53   D    
C10   C118  S    
C55   O37   A    
C92   H12   S    
C76   C78   A    
C62   O47   A    
C136  H58   S    
C137  H57   S    
C150  H81   S    
C164  C165  S    
C39   H31   S    
C149  C150  S    
C40   H32   S    
C111  C119  S    
C134  H48   S    
C18   C102  T    
O19   Zn4   S    
C26   H26   S    
C97   H1    S    
C2    C50   S    
C152  H91   S    
C74   C77   A    
C5    C79   S    
C138  H67   S    
C126  O59   D    
C110  C114  S    
C33   C63   S    
C44   C52   A    
C2    O2    A    
C140  H62   S    
C133  C134  S    
C144  O72   S    
C16   H20   S    
C27   C51   A    
C67   O13   A    
C14   C98   S    
C130  H44   S    
C32   C166  S    
C56   O38   A    
O41   Zn5   S    
C167  H125  S    
O34   Zn6   S    
O24   Zn2   S    
C155  C156  S    
C10   C14   S    
C16   C100  S    
C122  O51   D    
C76   C138  S    
O30   Zn6   S    
C70   C126  S    
O44   Zn8   S    
C143  O69   D    
C69   C125  S    
C6    C14   S    
C157  H107  S    
C165  H115  S    
C65   O11   A    
C34   C64   S    
C142  O67   D    
C66   O12   A    
C42   C50   A    
C68   O16   A    
C135  H60   S    
C7    C81   S    
C145  H79   S    
C26   C30   A    
C159  H102  S    
C165  H117  S    
C149  H84   S    
C63   O5    A    
C79   H13   S    
C112  C116  S    
C160  H114  S    
C11   C143  S    
C130  C131  S    
C4    O20   A    
O23   Zn2   S    
C155  H97   S    
C137  H55   S    
C134  H50   S    
C9    C113  S    
C127  O62   S    
C158  H105  S    
C53   O30   A    
C85   C95   A    
C7    C23   S    
C124  O56   S    
C89   C93   A    
O46   Zn10  S    
C40   C44   A    
C139  C140  S    
C140  H64   S    
C64   O6    A    
C47   O23   A    
C60   O43   A    
C12   C116  S    
C88   C96   A    
O62   H39   S    
C100  C116  S    
C48   O28   A    
C148  C149  S    
C54   C84   S    
C162  H108  S    
C109  C117  S    
C121  O49   D    
C8    C120  S    
C12   C144  S    
C8    C82   S    
C163  H120  S    
C43   C123  S    
C57   O39   A    
C168  H123  S    
C99   C115  S    
C61   C93   S    
C35   C65   S    
C166  C167  S    
C6    C22   S    
C80   H14   S    
C98   H2    S    
O20   Zn4   S    
O16   Zn12  S    
C112  C154  S    
C85   H5    S    
C14   H18   S    
C148  H85   S    
O60   H38   S    
O25   Zn3   S    
C24   C108  T    
O1    Zn1   S    
C74   C132  S    
C10   C114  S    
C156  H95   S    
C152  C153  S    
C11   C119  S    
C133  H51   S    
C66   O8    A    
C81   H15   S    
C147  H75   S    
C164  H118  S    
C131  H42   S    
C68   C78   S    
C109  C145  S    
C28   H28   S    
C47   C103  S    
C72   C74   A    
O70   H71   S    
C3    C51   S    
C146  H76   S    
C33   C37   A    
C151  H93   S    
C5    C21   S    
C82   C112  S    
C117  H21   S    
O72   H72   S    
C141  O65   D    
O38   Zn5   S    
O66   H69   S    
O11   Zn12  S    
C3    O3    A    
C1    O1    A    
C70   C83   A    
O18   Zn3   S    
C45   C101  S    
C2    O18   A    
C60   C96   S    
C4    O4    A    
C56   O34   A    
C62   C94   S    
C54   O32   A    
C32   C36   A    
O52   H34   S    
C162  H110  S    
C112  C120  S    
O36   Zn8   S    
C80   C98   S    
C37   H29   S    
O28   Zn4   S    
C61   O46   A    
C38   C42   A    
O10   Zn9   S    
C129  H47   S    
O32   Zn8   S    
C53   C83   S    
C62   O48   A    
C125  O58   S    
C154  C155  S    
C136  H59   S    
C137  H56   S    
O13   Zn9   S    
C150  H80   S    
C110  C148  S    
C69   C75   A    
C58   C108  S    
C25   C49   A    
O40   Zn7   S    
C90   H10   S    
O43   Zn7   S    
C132  H54   S    
C123  O54   S    
C89   H9    S    
C21   C105  T    
O6    Zn10  S    
C159  H101  S    
C9    C117  S    
C144  O71   D    
C46   O26   A    
C35   C39   A    
C65   O7    A    
C42   C122  S    
O4    Zn2   S    
C18   C114  S    
C87   H7    S    
C85   C91   A    
C130  H45   S    
C157  C158  S    
C46   C102  S    
O48   Zn12  S    
C167  H126  S    
C4    C52   S    
C71   C127  S    
C128  O63   D    
C154  H100  S    
C139  H65   S    
O12   Zn11  S    
C48   C104  S    
C17   C101  T    
C47   O27   A    
C8    C24   S    
C12   C120  S    
C19   C103  T    
C81   C111  S    
O26   Zn3   S    
C135  C136  S    
C45   O25   A    
C143  O70   S    
O68   H70   S    
C145  H78   S    
C147  H73   S    
C161  H111  S    
C161  C162  S    
C37   C41   A    
C165  H116  S    
C157  H106  S    
C111  C151  S    
C160  H113  S    
C10   C142  S    
C59   O42   A    
O8    Zn12  S    
C58   O36   A    
O33   Zn5   S    
C36   C40   A    
C64   O10   A    
C155  H98   S    
C20   C116  S    
C150  H82   S    
C39   C43   A    
C22   C106  T    
C5    C117  S    
C128  O64   S    
C13   H17   S    
O29   Zn5   S    
C69   C83   A    
C53   O29   A    
O17   Zn3   S    
C152  H90   S    
C19   C115  S    
C87   C96   A    
C124  O55   D    
C138  H68   S    
C126  O60   S    
C67   O14   A    
C57   C107  S    
C138  C139  S    
C140  H63   S    
C70   C76   A    
C97   C113  S    
C132  C133  S    
C60   O44   A    
C99   H3    S    
C71   C84   A    
C146  C147  S    
C166  H128  S    
C34   C38   A    
C82   C100  S    
C72   C128  S    
C15   C99   S    
C118  H22   S    
C25   H25   S    
C131  H41   S    
C20   C104  T    
C109  C113  S    
C122  O52   S    
C163  C164  S    
C29   C157  S    
C153  H89   S    
O15   Zn11  S    
C88   H8    S    
C86   C92   A    
C168  H122  S    
C28   C52   A    
C3    O19   A    
C1    O17   A    
C142  O68   S    
C38   H30   S    
O47   Zn11  S    
O39   Zn8   S    
C55   O33   A    
C82   H16   S    
C75   C78   A    
C127  O61   D    
O45   Zn9   S    
C136  C137  S    
C68   O15   A    
C135  H61   S    
O27   Zn4   S    
C27   H27   S    
C159  H103  S    
C80   C110  S    
O58   H37   S    
C149  H83   S    
C111  C115  S    
C48   O24   A    
C134  H49   S    
O7    Zn11  S    
C1    C49   S    
C6    C118  S    
