data_mof_unit_59471.cif
_audit_creation_date              2012-12-10T19:47:46-0500
_audit_creation_method            fapswitch 2.2
_symmetry_space_group_name_H-M    P1
_symmetry_Int_Tables_number       1
_space_group_crystal_system       triclinic
_cell_length_a                    18.251059
_cell_length_b                    18.251872
_cell_length_c                    21.723886
_cell_angle_alpha                 89.988668
_cell_angle_beta                  89.92104
_cell_angle_gamma                 90.225789
_cell_volume                      7236.51063923

loop_
_atom_site_label
_atom_site_type_symbol
_atom_type_description
_atom_site_fract_x
_atom_site_fract_y
_atom_site_fract_z
_atom_type_partial_charge
C1    C     C_R   0.999882 0.358725 0.999962 1.021659
C2    C     C_1   0.282217 0.999706 0.999910 -0.066675
C3    C     C_1   0.000303 0.717779 0.999922 -0.040653
C4    C     C_1   0.717775 0.000327 0.000124 -0.073607
C5    C     C_1   0.499734 0.782213 0.500185 -0.070139
C6    C     C_1   0.782220 0.499688 0.500045 -0.040919
C7    C     C_1   0.500288 0.217782 0.499997 -0.042449
C8    C     C_1   0.217778 0.500317 0.500066 -0.071080
C9    C     C_R   0.000127 0.502256 0.879784 1.052771
C10   C     C_R   0.499969 0.000008 0.879756 0.892732
C11   C     C_R   0.999957 0.499990 0.120250 0.892634
C12   C     C_R   0.358724 0.999895 0.999947 0.991680
C13   C     C_R   0.498993 0.999977 0.120187 1.059154
C14   C     C_R   0.500089 0.001108 0.379715 1.055721
C15   C     C_R   0.999979 0.500006 0.379758 0.895217
C16   C     C_R   0.499961 0.999978 0.620248 0.899825
C17   C     C_R   0.997741 0.499907 0.620217 1.053670
C18   C     C_R   0.077761 0.616753 0.807623 0.275885
C19   C     C_R   0.615207 0.925549 0.809586 0.330235
C20   C     C_R   0.923940 0.388782 0.812546 0.312292
C21   C     C_R   0.384725 0.074504 0.809826 0.329505
C22   C     C_R   0.075134 0.385220 0.190257 0.331094
C23   C     C_R   0.000111 0.641277 0.999870 0.993572
C24   C     C_R   0.610579 0.078443 0.188070 0.311109
C25   C     C_R   0.924577 0.614665 0.190383 0.330481
C26   C     C_R   0.385012 0.923001 0.190780 0.312625
C27   C     C_R   0.575275 0.117569 0.308309 0.276364
C28   C     C_R   0.115621 0.426197 0.309578 0.330730
C29   C     C_R   0.426395 0.884420 0.310574 0.314004
C30   C     C_R   0.884237 0.573746 0.309856 0.330202
C31   C     C_R   0.574502 0.884803 0.690264 0.330061
C32   C     C_R   0.111338 0.575943 0.687426 0.312104
C33   C     C_R   0.425354 0.115158 0.690361 0.330134
C34   C     C_R   0.641273 0.000120 0.000136 1.016473
C35   C     C_R   0.883154 0.422432 0.692430 0.275758
C36   C     C_R   0.124860 0.662424 0.772225 0.254396
C37   C     C_R   0.652628 0.867816 0.780247 0.265225
C38   C     C_R   0.860566 0.355039 0.787876 0.224880
C39   C     C_R   0.347302 0.132229 0.780550 0.270000
C40   C     C_R   0.133175 0.348244 0.219473 0.264162
C41   C     C_R   0.642752 0.142342 0.213196 0.226088
C42   C     C_R   0.866535 0.651616 0.219739 0.268821
C43   C     C_R   0.344456 0.869100 0.223237 0.241631
C44   C     C_R   0.621577 0.164557 0.273331 0.253204
C45   C     C_R   0.499904 0.858724 0.500310 1.001214
C46   C     C_R   0.153418 0.368730 0.280211 0.264900
C47   C     C_R   0.372830 0.842194 0.279181 0.238574
C48   C     C_R   0.846360 0.631155 0.280552 0.265682
C49   C     C_R   0.632283 0.847452 0.719506 0.265017
C50   C     C_R   0.145242 0.639211 0.712160 0.224921
C51   C     C_R   0.367618 0.152558 0.719740 0.270388
C52   C     C_R   0.837415 0.375398 0.727829 0.254342
C53   C     C_R   0.140909 0.999924 0.999966 0.884386
C54   C     C_R   0.000071 0.859090 0.000002 0.882773
C55   C     C_R   0.859089 0.000079 0.000035 0.891975
C56   C     C_R   0.858723 0.499888 0.500163 0.996118
C57   C     C_R   0.999924 0.140911 0.999996 0.893062
C58   C     C_R   0.640909 0.499920 0.499969 0.879682
C59   C     C_R   0.500064 0.359091 0.500006 0.878576
C60   C     C_R   0.359089 0.500081 0.500032 0.888657
C61   C     C_R   0.499943 0.640908 0.500001 0.886279
C62   C     C_R   0.050196 0.543983 0.717391 -0.098719
C63   C     C_R   0.541775 0.946910 0.718650 -0.148003
C64   C     C_R   0.944851 0.457939 0.719597 -0.107181
C65   C     C_R   0.458078 0.053061 0.718711 -0.147539
C66   C     C_R   0.053294 0.458507 0.281278 -0.147963
C67   C     C_R   0.500106 0.141279 0.499978 1.002444
C68   C     C_R   0.541310 0.055189 0.280750 -0.104075
C69   C     C_R   0.946560 0.541465 0.281402 -0.147536
C70   C     C_R   0.457937 0.947172 0.281814 -0.095269
C71   C     C_R   0.550149 0.044798 0.217714 -0.101033
C72   C     C_R   0.042054 0.447137 0.218650 -0.147418
C73   C     C_R   0.446854 0.956881 0.218822 -0.100872
C74   C     C_R   0.957719 0.552786 0.218727 -0.146992
C75   C     C_R   0.553073 0.958219 0.781278 -0.147800
C76   C     C_R   0.042175 0.555109 0.780423 -0.107018
C77   C     C_R   0.446839 0.041814 0.781384 -0.147218
C78   C     C_R   0.141274 0.500118 0.500057 1.024450
C79   C     C_R   0.956010 0.449863 0.782601 -0.098563
C80   C     C_R   0.997695 0.499846 0.686497 -0.023645
C81   C     C_R   0.499900 0.999962 0.686549 -0.048273
C82   C     C_R   0.999954 0.500009 0.313465 -0.046177
C83   C     C_R   0.500228 0.001045 0.313425 -0.023004
C84   C     C_R   0.498769 0.000097 0.186390 -0.023334
C85   C     C_R   0.999881 0.499957 0.186555 -0.045334
C86   C     C_R   0.499964 0.000023 0.813459 -0.045467
C87   C     C_R   0.000237 0.502288 0.813506 -0.023575
C88   C     C_1   0.999739 0.217414 0.999996 -0.138028
C89   C     C_1   0.999682 0.282222 0.999997 -0.074895
C90   C     C_1   0.217409 0.999757 0.999904 -0.115093
C91   C     C_1   0.000239 0.782588 0.999987 -0.104905
C92   C     C_1   0.782585 0.000270 0.000104 -0.137170
C93   C     C_1   0.499787 0.717407 0.500049 -0.109027
C94   C     C_1   0.717410 0.499749 0.499941 -0.108352
C95   C     C_1   0.500221 0.282590 0.500019 -0.107138
C96   C     C_1   0.282587 0.500263 0.500082 -0.136078
H1    H     H_    0.818462 0.249882 0.927823 0.372932
H2    H     H_    0.734303 0.678020 0.415587 0.371028
H3    H     H_    0.641319 0.314730 0.388145 0.380457
H4    H     H_    0.265477 0.321746 0.414979 0.370700
H5    H     H_    0.319681 0.264062 0.584800 0.369220
H6    H     H_    0.686547 0.352809 0.614212 0.380433
H7    H     H_    0.680236 0.735966 0.584486 0.370957
H8    H     H_    0.251393 0.680048 0.572528 0.376408
H9    H     H_    0.109832 0.636114 0.888857 0.382342
H10   H     H_    0.638043 0.007557 0.862289 0.317576
H11   H     H_    0.957513 0.305958 0.859703 0.373489
H12   H     H_    0.235807 0.180110 0.915668 0.369625
H13   H     H_    0.361865 0.992486 0.862575 0.316941
H14   H     H_    0.993227 0.361870 0.137646 0.316639
H15   H     H_    0.694184 0.047214 0.140615 0.373943
H16   H     H_    0.006437 0.638108 0.137561 0.317483
H17   H     H_    0.340226 0.905352 0.111533 0.378900
H18   H     H_    0.606386 0.137000 0.389685 0.380932
H19   H     H_    0.138014 0.508314 0.362283 0.317931
H20   H     H_    0.411798 0.839313 0.390077 0.377300
H21   H     H_    0.861920 0.491625 0.362646 0.317344
H22   H     H_    0.492477 0.861884 0.637669 0.318162
H23   H     H_    0.147255 0.813470 0.885817 0.380785
H24   H     H_    0.194094 0.542033 0.640263 0.373182
H25   H     H_    0.507349 0.138068 0.637536 0.316296
H26   H     H_    0.863885 0.390423 0.611161 0.381632
H27   H     H_    0.764154 0.819914 0.915108 0.370735
H28   H     H_    0.817580 0.762567 0.084727 0.369660
H29   H     H_    0.171355 0.890350 0.140578 0.382032
H30   H     H_    0.181924 0.237164 0.084405 0.371850
H31   H     H_    0.746944 0.188460 0.073504 0.374309
H32   H     H_    0.399218 0.669502 0.361741 0.383615
O1    O     O_R   0.939380 0.392670 0.000020 -0.589076
O2    O     O_R   0.892670 0.560620 0.500020 -0.575863
O3    O     O_3   0.355233 0.046373 0.863277 -0.685380
O4    O     O_3   0.047148 0.355486 0.136916 -0.685127
O5    O     O_3   0.640102 0.044567 0.137115 -0.739055
O6    O     O_3   0.952504 0.644392 0.136943 -0.685837
O7    O     O_3   0.361968 0.947292 0.133987 -0.736157
O8    O     O_3   0.558729 0.135570 0.367855 -0.719649
O9    O     O_3   0.144911 0.454461 0.362983 -0.686034
O10   O     O_3   0.452632 0.862198 0.366933 -0.732367
O11   O     O_3   0.855003 0.545475 0.363353 -0.687052
O12   O     O_3   0.546368 0.855254 0.636912 -0.684786
O13   O     O_R   0.560620 0.107330 0.500020 -0.640575
O14   O     O_3   0.139970 0.540825 0.636721 -0.738065
O15   O     O_3   0.453453 0.144651 0.636898 -0.686616
O16   O     O_3   0.864538 0.438206 0.632868 -0.720622
O17   O     O_R   0.107330 0.439380 0.500020 -0.578657
O18   O     O_R   0.439380 0.107330 0.499980 -0.570920
O19   O     O_R   0.892670 0.439380 0.499980 -0.639788
O20   O     O_R   0.560620 0.892670 0.499980 -0.562790
O21   O     O_R   0.107330 0.560620 0.499980 -0.587184
O22   O     O_R   0.939380 0.500000 0.908420 -0.592376
O23   O     O_R   0.500000 0.060620 0.908420 -0.597715
O24   O     O_R   0.060620 0.500000 0.908420 -0.623979
O25   O     O_R   0.392670 0.060620 0.000020 -0.568400
O26   O     O_R   0.500000 0.939380 0.908420 -0.596872
O27   O     O_R   0.939380 0.500000 0.091580 -0.597056
O28   O     O_R   0.500000 0.939380 0.091580 -0.615998
O29   O     O_R   0.060620 0.500000 0.091580 -0.595171
O30   O     O_R   0.500000 0.060620 0.091580 -0.590960
O31   O     O_R   0.439380 0.000000 0.408420 -0.611300
O32   O     O_R   0.000000 0.560620 0.408420 -0.597904
O33   O     O_R   0.560620 0.000000 0.408420 -0.619271
O34   O     O_R   0.000000 0.439380 0.408420 -0.597894
O35   O     O_R   0.439380 0.000000 0.591580 -0.593119
O36   O     O_R   0.060620 0.607330 0.000020 -0.636121
O37   O     O_R   0.000000 0.439380 0.591580 -0.624329
O38   O     O_R   0.560620 0.000000 0.591580 -0.596847
O39   O     O_R   0.000000 0.560620 0.591580 -0.592647
O40   O     O_R   0.107300 0.999970 0.948290 -0.600242
O41   O     O_R   0.999970 0.892700 0.948290 -0.591881
O42   O     O_R   0.892700 0.000030 0.948290 -0.589979
O43   O     O_R   0.000030 0.107300 0.948290 -0.603492
O44   O     O_R   0.107300 0.000030 0.051710 -0.600219
O45   O     O_R   0.999970 0.107300 0.051710 -0.590019
O46   O     O_R   0.892700 0.999970 0.051710 -0.604576
O47   O     O_R   0.607330 0.939380 0.000020 -0.578515
O48   O     O_R   0.000030 0.892700 0.051710 -0.606494
O49   O     O_R   0.607300 0.499970 0.448290 -0.599400
O50   O     O_R   0.499970 0.392700 0.448290 -0.590588
O51   O     O_R   0.392700 0.500030 0.448290 -0.599466
O52   O     O_R   0.500030 0.607300 0.448290 -0.604163
O53   O     O_R   0.607300 0.500030 0.551710 -0.591634
O54   O     O_R   0.499970 0.607300 0.551710 -0.592343
O55   O     O_R   0.392700 0.499970 0.551710 -0.602435
O56   O     O_R   0.500030 0.392700 0.551710 -0.602471
O57   O     O_2   0.730915 0.299331 0.830585 -0.172612
O58   O     O_R   0.939380 0.607330 0.999980 -0.576113
O59   O     O_2   0.831142 0.213849 0.810828 -0.268317
O60   O     O_3   0.836467 0.295704 0.908480 -0.532837
O61   O     O_2   0.279083 0.258631 0.811569 -0.203496
O62   O     O_2   0.203307 0.148305 0.799682 -0.240072
O63   O     O_3   0.282450 0.162017 0.898061 -0.482193
O64   O     O_2   0.236975 0.753961 0.798160 -0.218757
O65   O     O_2   0.121221 0.808824 0.764868 -0.209436
O66   O     O_3   0.130605 0.762990 0.876356 -0.543175
O67   O     O_2   0.720867 0.741428 0.811158 -0.197986
O68   O     O_2   0.796635 0.851753 0.799015 -0.231707
O69   O     O_R   0.392670 0.939380 0.999980 -0.640592
O70   O     O_3   0.717534 0.838068 0.897607 -0.482583
O71   O     O_2   0.739549 0.718700 0.188850 -0.197538
O72   O     O_2   0.849200 0.795450 0.200741 -0.242695
O73   O     O_3   0.836255 0.716177 0.102302 -0.483149
O74   O     O_2   0.266491 0.780347 0.149652 -0.271230
O75   O     O_2   0.208685 0.814867 0.247467 -0.188637
O76   O     O_3   0.214779 0.911998 0.161089 -0.518697
O77   O     O_2   0.260081 0.281027 0.188277 -0.195466
O78   O     O_2   0.150372 0.204380 0.200528 -0.230839
O79   O     O_3   0.163320 0.283590 0.101997 -0.482110
O80   O     O_R   0.060620 0.392670 0.999980 -0.577224
O81   O     O_2   0.695306 0.273631 0.171345 -0.171561
O82   O     O_2   0.783243 0.175426 0.190491 -0.269462
O83   O     O_3   0.701725 0.168825 0.092768 -0.530887
O84   O     O_2   0.287103 0.763336 0.354821 -0.271930
O85   O     O_2   0.320715 0.705131 0.256993 -0.187183
O86   O     O_3   0.419438 0.713973 0.341720 -0.518915
O87   O     O_2   0.777053 0.756998 0.311487 -0.201456
O88   O     O_2   0.702218 0.646032 0.299624 -0.226243
O89   O     O_3   0.781185 0.660485 0.398028 -0.485216
O90   O     O_2   0.731551 0.258575 0.299574 -0.220728
O91   O     O_R   0.607330 0.060620 0.999980 -0.590317
O92   O     O_2   0.614255 0.310887 0.267203 -0.205075
O93   O     O_3   0.625521 0.264089 0.378278 -0.547046
O94   O     O_2   0.222599 0.242827 0.311051 -0.198998
O95   O     O_2   0.297554 0.353699 0.298894 -0.229176
O96   O     O_3   0.218636 0.339399 0.397529 -0.484267
O97   O     O_2   0.241183 0.220730 0.688930 -0.204337
O98   O     O_2   0.351484 0.296544 0.700791 -0.239467
O99   O     O_3   0.337797 0.217425 0.602333 -0.483883
O100  O     O_2   0.745691 0.263358 0.702090 -0.220057
O101  O     O_2   0.691005 0.379372 0.735101 -0.208008
O102  O     O_R   0.439380 0.892670 0.500020 -0.638279
O103  O     O_3   0.737053 0.369374 0.623654 -0.544948
O104  O     O_2   0.758739 0.779329 0.688398 -0.198814
O105  O     O_2   0.648476 0.703467 0.700574 -0.231052
O106  O     O_3   0.662088 0.782587 0.602052 -0.483137
O107  O     O_2   0.201550 0.768633 0.669569 -0.173921
O108  O     O_2   0.286599 0.668126 0.689427 -0.268319
O109  O     O_3   0.205060 0.663004 0.591647 -0.530562
O110  O     O_3   0.062028 0.635370 0.867227 -0.720870
O111  O     O_3   0.644691 0.953671 0.862972 -0.684770
O112  O     O_3   0.959012 0.360083 0.863189 -0.737566
S1    S     S_3+6 0.812370 0.289118 0.833898 0.101342
S2    S     S_3+6 0.774470 0.675635 0.321812 0.147392
S3    S     S_3+6 0.649684 0.251248 0.304297 0.117712
S4    S     S_3+6 0.225283 0.324193 0.321305 0.146220
S5    S     S_3+6 0.322532 0.224033 0.678562 0.141455
S6    S     S_3+6 0.751096 0.345366 0.697484 0.116883
S7    S     S_3+6 0.677386 0.775990 0.678243 0.145865
S8    S     S_3+6 0.211477 0.687141 0.666247 0.101185
S9    S     S_3+6 0.275815 0.177283 0.821856 0.142129
S10   S     S_3+6 0.154932 0.748741 0.802589 0.117409
S11   S     S_3+6 0.724136 0.822780 0.821392 0.146402
S12   S     S_3+6 0.820878 0.722689 0.178521 0.142512
S13   S     S_3+6 0.256693 0.841073 0.195634 0.096252
S14   S     S_3+6 0.178742 0.277105 0.178178 0.148208
S15   S     S_3+6 0.707563 0.192495 0.167511 0.101859
S16   S     S_3+6 0.347059 0.754204 0.307967 0.095955
Zn1   Zn    Zn3+2 0.919060 0.500000 0.000000 1.142497
Zn2   Zn    Zn3+2 0.000000 0.000000 0.069040 1.102271
Zn3   Zn    Zn3+2 0.500000 0.500000 0.430960 1.115214
Zn4   Zn    Zn3+2 0.500000 0.500000 0.569040 1.116445
Zn5   Zn    Zn3+2 0.500000 0.080940 0.000000 1.145409
Zn6   Zn    Zn3+2 0.080940 0.500000 0.000000 1.092491
Zn7   Zn    Zn3+2 0.500000 0.919060 0.000000 1.098180
Zn8   Zn    Zn3+2 0.419060 0.000000 0.500000 1.104280
Zn9   Zn    Zn3+2 0.000000 0.580940 0.500000 1.140365
Zn10  Zn    Zn3+2 0.580940 0.000000 0.500000 1.088774
Zn11  Zn    Zn3+2 0.000000 0.419060 0.500000 1.083956
Zn12  Zn    Zn3+2 0.000000 1.000000 0.930960 1.116571

loop_
_geom_bond_atom_site_label_1
_geom_bond_atom_site_label_2
_ccdc_geom_bond_type
C24   O5    S    
H1    O60   S    
C39   C51   A    
H3    O93   S    
C9    O24   A    
O87   S2    D    
C45   O20   A    
H25   O15   S    
C15   O34   A    
C3    C23   S    
C8    C96   T    
C46   S4    S    
C12   O25   A    
O59   S1    D    
C2    C12   S    
C10   O26   A    
C79   C87   A    
C72   C85   A    
C33   C65   A    
H29   O76   S    
O53   Zn4   S    
C33   O15   S    
C60   O51   A    
C40   C46   A    
C29   O10   S    
C13   C84   S    
C28   C46   A    
C61   O54   A    
O56   Zn4   S    
C63   C81   A    
C58   O53   A    
C27   O8    S    
C30   C48   A    
C51   S5    S    
O79   S14   S    
C11   C85   S    
C71   C84   A    
C1    O1    A    
O22   Zn1   S    
O27   Zn1   S    
O61   S9    D    
C50   S8    S    
O74   S13   D    
C38   C52   A    
H4    O96   S    
O58   Zn1   S    
O20   Zn10  S    
O34   Zn11  S    
C26   C73   A    
C37   C49   A    
C3    C91   T    
C25   C74   A    
C54   O48   A    
C2    C90   T    
C1    O80   A    
O108  S8    D    
O89   S2    S    
C21   O3    S    
C27   C68   A    
H27   O70   S    
C78   O17   A    
O47   Zn7   S    
O52   Zn3   S    
C27   C44   A    
C66   C72   A    
H19   O9    S    
C16   O38   A    
O31   Zn8   S    
C6    C94   T    
O67   S11   D    
O35   Zn8   S    
H13   O3    S    
C36   S10   S    
H9    O110  S    
O66   S10   S    
H12   O63   S    
H14   O4    S    
C35   C64   A    
C34   O47   A    
O21   Zn9   S    
O25   Zn5   S    
O99   S5    S    
O95   S4    D    
C73   C84   A    
C32   O14   S    
C53   O44   A    
C11   O27   A    
C35   O16   S    
C40   S14   S    
C43   S13   S    
C60   O55   A    
O29   Zn6   S    
O70   S11   S    
C42   S12   S    
O32   Zn9   S    
C5    C45   S    
O97   S5    D    
C24   C41   A    
C64   C80   A    
C54   O41   A    
C62   C76   A    
O60   S1    S    
H21   O11   S    
C59   C95   S    
C14   C83   S    
C31   C49   A    
H22   O12   S    
O40   Zn12  S    
C22   C72   A    
H32   O86   S    
C26   C43   A    
C15   C82   S    
C4    C34   S    
C16   O35   A    
O88   S2    D    
H8    O109  S    
O92   S3    D    
O102  Zn8   S    
C9    O22   A    
C65   C77   A    
O86   S16   S    
O54   Zn4   S    
C54   C91   S    
C31   C63   A    
C8    C78   S    
H24   O14   S    
O78   S14   D    
C48   S2    S    
C17   O39   A    
H16   O6    S    
O94   S4    D    
C34   O91   A    
O96   S4    S    
O57   S1    D    
O91   Zn5   S    
C23   O58   A    
C37   S11   S    
C14   O31   A    
O42   Zn12  S    
C17   C80   S    
O109  S8    S    
O36   Zn6   S    
O84   S16   D    
C42   C48   A    
C28   C66   A    
O39   Zn9   S    
C55   O46   A    
C55   C92   S    
C70   C83   A    
C13   O30   A    
C19   O111  S    
C10   O23   A    
C66   C82   A    
O28   Zn7   S    
C20   C38   A    
C53   O40   A    
C65   C81   A    
C39   S9    S    
H30   O79   S    
C12   O69   A    
O73   S12   S    
C22   C40   A    
C41   C44   A    
C70   C73   A    
O38   Zn10  S    
O43   Zn12  S    
C13   O28   A    
O26   Zn7   S    
O90   S3    D    
O18   Zn8   S    
C25   O6    S    
O49   Zn3   S    
C76   C87   A    
C32   C50   A    
C49   S7    S    
C57   O45   A    
O101  S6    D    
C60   C96   S    
H31   O83   S    
C29   C47   A    
C77   C86   A    
H7    O106  S    
H10   O111  S    
O80   Zn6   S    
O37   Zn11  S    
H6    O103  S    
C64   C79   A    
O103  S6    S    
C19   C37   A    
C45   O102  A    
C44   S3    S    
O44   Zn2   S    
C67   O13   A    
H20   O10   S    
O107  S8    D    
C35   C52   A    
C30   C69   A    
C36   C50   A    
C11   O29   A    
O98   S5    D    
O45   Zn2   S    
C29   C70   A    
O93   S3    S    
C62   C80   A    
C38   S1    S    
C10   C86   S    
O41   Zn12  S    
C1    C89   S    
C30   O11   S    
C55   O42   A    
C20   C79   A    
C22   O4    S    
C68   C83   A    
C57   O43   A    
C21   C39   A    
O2    Zn9   S    
C59   O50   A    
H15   O5    S    
C28   O9    S    
C6    C56   S    
C43   C47   A    
O85   S16   D    
C52   S6    S    
C25   C42   A    
O46   Zn2   S    
O33   Zn10  S    
C5    C93   T    
C7    C95   T    
O17   Zn11  S    
C33   C51   A    
O65   S10   D    
H11   O112  S    
C41   S15   S    
O1    Zn1   S    
C57   C88   S    
H28   O73   S    
H5    O99   S    
H23   O66   S    
O13   Zn10  S    
O104  S7    D    
C14   O33   A    
C19   C75   A    
O30   Zn5   S    
C32   C62   A    
C15   O32   A    
O69   Zn7   S    
C20   O112  S    
H26   O16   S    
O72   S12   D    
O105  S7    D    
O76   S13   S    
O48   Zn2   S    
C9    C87   S    
C23   O36   A    
C63   C75   A    
C56   O19   A    
C68   C71   A    
O64   S10   D    
O68   S11   D    
O51   Zn3   S    
C16   C81   S    
O63   S9    S    
C69   C82   A    
C58   O49   A    
C61   C93   S    
O62   S9    D    
C74   C85   A    
C58   C94   S    
C59   O56   A    
C67   O18   A    
C56   O2    A    
O82   S15   D    
O50   Zn3   S    
O23   Zn5   S    
C7    C67   S    
O71   S12   D    
C47   S16   S    
O100  S6    D    
C88   C89   T    
C78   O21   A    
C61   O52   A    
O19   Zn11  S    
O55   Zn4   S    
H17   O7    S    
H2    O89   S    
C21   C77   A    
C53   C90   S    
H18   O8    S    
C69   C74   A    
O83   S15   S    
C75   C86   A    
C17   O37   A    
O75   S13   D    
C31   O12   S    
C18   C36   A    
O24   Zn6   S    
O106  S7    S    
O81   S15   D    
O77   S14   D    
C18   O110  S    
C24   C71   A    
C18   C76   A    
C4    C92   T    
C26   O7    S    
