data_mof_unit_56906.cif
_audit_creation_date              2012-12-11T14:01:24-0500
_audit_creation_method            fapswitch 2.2
_symmetry_space_group_name_H-M    P1
_symmetry_Int_Tables_number       1
_space_group_crystal_system       triclinic
_cell_length_a                    18.958253
_cell_length_b                    10.981948
_cell_length_c                    18.776654
_cell_angle_alpha                 90.203156
_cell_angle_beta                  90.099986
_cell_angle_gamma                 89.864858
_cell_volume                      3909.23076662

loop_
_atom_site_label
_atom_site_type_symbol
_atom_type_description
_atom_site_fract_x
_atom_site_fract_y
_atom_site_fract_z
_atom_type_partial_charge
C1    C     C_R   0.292669 0.991379 0.859503 0.571041
C2    C     C_R   0.726311 0.039840 0.145950 0.545364
C3    C     C_R   0.792195 0.491992 0.859330 0.555225
C4    C     C_R   0.207673 0.491491 0.140372 0.571933
C5    C     C_R   0.477219 0.048972 0.075523 -0.089062
C6    C     C_R   0.503413 0.058717 0.929661 -0.087332
C7    C     C_R   0.961937 0.532839 0.078014 -0.098899
C8    C     C_R   0.984537 0.564328 0.932815 -0.084492
C9    C     C_R   0.946659 0.644129 0.046235 -0.135093
C10   C     C_R   0.959775 0.660810 0.974138 -0.136892
C11   C     C_R   0.476177 0.160268 0.040366 -0.133064
C12   C     C_R   0.491002 0.165189 0.967922 -0.138746
C13   C     C_2   0.248890 0.590404 0.921867 -0.085621
C14   C     C_2   0.751726 0.595369 0.077291 -0.089841
C15   C     C_2   0.772642 0.153723 0.932607 -0.090003
C16   C     C_2   0.249581 0.090182 0.077524 -0.089189
C17   C     C_2   0.212571 0.491744 0.062299 -0.130645
C18   C     C_2   0.785746 0.491626 0.936828 -0.128306
C19   C     C_2   0.740290 0.070176 0.073047 -0.116714
C20   C     C_2   0.289393 0.991178 0.937866 -0.128972
C21   C     C_2   0.270595 0.464379 0.022969 -0.018337
C22   C     C_2   0.724332 0.483732 0.973280 -0.014566
C23   C     C_2   0.797745 0.036114 0.036891 -0.022455
C24   C     C_2   0.234777 0.953568 0.979062 -0.021902
C25   C     C_2   0.264119 0.478171 0.944913 -0.000565
C26   C     C_2   0.728651 0.489940 0.051182 -0.016861
C27   C     C_2   0.792132 0.044360 0.959279 0.020698
C28   C     C_2   0.242113 0.974038 0.056652 -0.004273
C29   C     C_2   0.512442 0.839099 0.584688 -0.110112
C30   C     C_2   0.514089 0.829395 0.428582 -0.104030
C31   C     C_2   0.986044 0.328811 0.571533 -0.103680
C32   C     C_2   0.987594 0.339934 0.415483 -0.111262
C33   C     C_2   0.546531 0.749190 0.472000 -0.152099
C34   C     C_2   0.531789 0.741444 0.547490 -0.161490
C35   C     C_2   0.968042 0.242247 0.452098 -0.158396
C36   C     C_2   0.953454 0.249368 0.527682 -0.148905
C37   C     C_2   0.242466 0.557619 0.586342 -0.110295
C38   C     C_2   0.753644 0.566961 0.416999 -0.106837
C39   C     C_2   0.742467 0.057922 0.586291 -0.111812
C40   C     C_2   0.253787 0.066951 0.416967 -0.104084
C41   C     C_2   0.221895 0.520468 0.434245 -0.093093
C42   C     C_2   0.761666 0.569431 0.572232 -0.092596
C43   C     C_2   0.721975 0.020302 0.434233 -0.093876
C44   C     C_2   0.261683 0.069474 0.572241 -0.091946
C45   C     C_R   0.471887 0.822645 0.852857 0.530566
C46   C     C_R   0.528871 0.821704 0.146619 0.537960
C47   C     C_R   0.972564 0.323733 0.852281 0.527649
C48   C     C_R   0.032142 0.321243 0.144764 0.527481
C49   C     C_2   0.168319 0.527856 0.480314 -0.168417
C50   C     C_2   0.817656 0.560805 0.528392 -0.147229
C51   C     C_2   0.668347 0.029776 0.480082 -0.163973
C52   C     C_2   0.317737 0.061529 0.528450 -0.149464
C53   C     C_2   0.179521 0.567240 0.554025 -0.157008
C54   C     C_2   0.813082 0.586250 0.452992 -0.162660
C55   C     C_2   0.679617 0.068324 0.553880 -0.152114
C56   C     C_2   0.313118 0.086879 0.453047 -0.168040
C57   C     C_R   0.259860 0.634208 0.850159 0.534917
C58   C     C_R   0.739604 0.637298 0.148883 0.547739
C59   C     C_R   0.774864 0.185377 0.858416 0.548333
C60   C     C_R   0.239929 0.134383 0.149577 0.534425
C61   C     C_R   0.273722 0.042434 0.646340 0.557792
C62   C     C_R   0.708465 0.997284 0.359803 0.571875
C63   C     C_R   0.773711 0.542443 0.646340 0.560558
C64   C     C_R   0.208432 0.497238 0.359812 0.576442
C65   C     C_R   0.472356 0.824404 0.649440 0.555799
C66   C     C_R   0.532081 0.823449 0.353886 0.542552
C67   C     C_R   0.967922 0.323112 0.646147 0.551045
C68   C     C_R   0.027676 0.324771 0.350634 0.548360
C69   C     C_R   0.259411 0.633196 0.647648 0.557502
C70   C     C_R   0.740099 0.634315 0.352591 0.543940
C71   C     C_R   0.759419 0.133240 0.647653 0.560201
C72   C     C_R   0.240132 0.134272 0.352563 0.550062
C73   C     C_R   0.503116 0.828098 0.073452 -0.006147
C74   C     C_R   0.501490 0.832866 0.924538 -0.005254
C75   C     C_R   0.015947 0.328160 0.069152 0.000946
C76   C     C_R   0.007782 0.340961 0.921090 -0.007501
C77   C     C_R   0.493114 0.940439 0.038257 0.020608
C78   C     C_R   0.499713 0.944152 0.963242 0.020552
C79   C     C_R   0.990438 0.435883 0.037497 0.011605
C80   C     C_R   0.994847 0.447561 0.962796 0.017463
C81   C     C_R   0.509575 0.723370 0.960833 -0.176954
C82   C     C_R   0.509547 0.720707 0.033607 -0.164885
C83   C     C_R   0.036864 0.238634 0.953141 -0.182567
C84   C     C_R   0.043858 0.234870 0.026110 -0.167714
Cr1   Cr    Cr6+3 0.230530 0.836340 0.748870 1.003647
Cr2   Cr    Cr6+3 0.769470 0.836340 0.251130 1.000913
Cr3   Cr    Cr6+3 0.730530 0.336340 0.748870 0.998554
Cr4   Cr    Cr6+3 0.269470 0.336340 0.251130 1.000692
Cr5   Cr    Cr6+3 0.387420 0.989430 0.750820 0.997303
Cr6   Cr    Cr6+3 0.612580 0.989430 0.249180 1.006168
Cr7   Cr    Cr6+3 0.887420 0.489430 0.750820 0.992778
Cr8   Cr    Cr6+3 0.112580 0.489430 0.249180 1.002646
Cr9   Cr    Cr6+3 0.385640 0.677860 0.749230 1.008133
Cr10  Cr    Cr6+3 0.614360 0.677860 0.250770 1.006798
Cr11  Cr    Cr6+3 0.885640 0.177860 0.749230 1.002287
Cr12  Cr    Cr6+3 0.114360 0.177860 0.250770 1.002417
H1    H     H_    0.512272 0.637195 0.932860 0.138897
H2    H     H_    0.517795 0.633064 0.058480 0.144415
H3    H     H_    0.050578 0.158751 0.922101 0.132969
H4    H     H_    0.069160 0.155837 0.049039 0.147424
H5    H     H_    0.114330 0.518065 0.461621 0.130507
H6    H     H_    0.870264 0.542674 0.549036 0.156180
H7    H     H_    0.614336 0.022479 0.461149 0.137510
H8    H     H_    0.370406 0.043996 0.549125 0.152664
H9    H     H_    0.136368 0.616205 0.579254 0.153798
H10   H     H_    0.857842 0.631681 0.428750 0.152632
H11   H     H_    0.636575 0.117579 0.579113 0.152186
H12   H     H_    0.357742 0.132819 0.428877 0.153734
H13   H     H_    0.276320 0.533463 0.450454 0.112544
H14   H     H_    0.708465 0.587009 0.553354 0.086013
H15   H     H_    0.776513 0.031028 0.450613 0.105421
H16   H     H_    0.208443 0.086386 0.553300 0.093792
H17   H     H_    0.284394 0.501690 0.564288 0.104911
H18   H     H_    0.710649 0.514891 0.439902 0.106725
H19   H     H_    0.784333 0.001808 0.564298 0.098397
H20   H     H_    0.210946 0.014428 0.439801 0.113865
H21   H     H_    0.464201 0.048589 0.131576 0.127765
H22   H     H_    0.517320 0.067675 0.874128 0.135495
H23   H     H_    0.950911 0.523584 0.134217 0.130801
H24   H     H_    0.997098 0.583597 0.877907 0.141394
H25   H     H_    0.926264 0.718117 0.078144 0.117958
H26   H     H_    0.950042 0.748083 0.949666 0.100345
H27   H     H_    0.465134 0.242749 0.069877 0.111445
H28   H     H_    0.492164 0.251267 0.940624 0.103255
H29   H     H_    0.163823 0.514784 0.034683 0.096935
H30   H     H_    0.835181 0.490670 0.966184 0.102025
H31   H     H_    0.694915 0.105766 0.044110 0.103175
H32   H     H_    0.336978 0.023592 0.964270 0.108565
H33   H     H_    0.234571 0.660577 0.960305 0.084029
H34   H     H_    0.774908 0.662283 0.041590 0.091689
H35   H     H_    0.761858 0.229472 0.968273 0.063104
H36   H     H_    0.256007 0.161073 0.037706 0.085192
H37   H     H_    0.581428 0.679259 0.450772 0.154817
H38   H     H_    0.531164 0.651071 0.570873 0.153881
H39   H     H_    0.968454 0.152031 0.428125 0.156233
H40   H     H_    0.918572 0.179637 0.548560 0.156662
H41   H     H_    0.479343 0.900782 0.448043 0.086045
H42   H     H_    0.517093 0.930012 0.562488 0.093909
H43   H     H_    0.983071 0.430800 0.438194 0.093981
H44   H     H_    0.020812 0.399936 0.552450 0.082612
O1    O     O_R   0.215090 0.709860 0.828130 -0.549155
O2    O     O_R   0.784910 0.709860 0.171870 -0.535183
O3    O     O_R   0.715090 0.209860 0.828130 -0.539681
O4    O     O_R   0.284910 0.209860 0.171870 -0.539243
O5    O     O_R   0.445660 0.919250 0.676780 -0.507221
O6    O     O_R   0.554340 0.919250 0.323220 -0.519740
O7    O     O_R   0.945660 0.419250 0.676780 -0.501806
O8    O     O_R   0.054340 0.419250 0.323220 -0.521413
O9    O     O_R   0.456260 0.718170 0.670000 -0.508928
O10   O     O_R   0.543740 0.718170 0.330000 -0.508201
O11   O     O_R   0.956260 0.218170 0.670000 -0.510127
O12   O     O_R   0.043740 0.218170 0.330000 -0.506999
O13   O     O_R   0.320940 0.626760 0.674370 -0.495156
O14   O     O_R   0.679060 0.626760 0.325630 -0.508654
O15   O     O_R   0.820940 0.126760 0.674370 -0.499781
O16   O     O_R   0.179060 0.126760 0.325630 -0.497033
O17   O     O_3   0.334530 0.834540 0.749640 -0.260522
O18   O     O_3   0.665470 0.834540 0.250360 -0.262498
O19   O     O_3   0.834530 0.334540 0.749640 -0.280842
O20   O     O_3   0.165470 0.334540 0.250360 -0.284133
O21   O     O_R   0.236990 0.958390 0.823710 -0.514849
O22   O     O_R   0.763010 0.958390 0.176290 -0.500135
O23   O     O_R   0.736990 0.458390 0.823710 -0.512864
O24   O     O_R   0.263010 0.458390 0.176290 -0.506529
O25   O     O_R   0.332380 0.074750 0.830850 -0.524758
O26   O     O_R   0.667620 0.074750 0.169150 -0.518872
O27   O     O_R   0.832380 0.574750 0.830850 -0.516585
O28   O     O_R   0.167620 0.574750 0.169150 -0.515473
O29   O     O_R   0.445800 0.917770 0.825070 -0.527184
O30   O     O_R   0.554200 0.917770 0.174930 -0.502647
O31   O     O_R   0.945800 0.417770 0.825070 -0.532255
O32   O     O_R   0.054200 0.417770 0.174930 -0.521304
O33   O     O_R   0.456410 0.716580 0.829970 -0.522780
O34   O     O_R   0.543590 0.716580 0.170030 -0.521915
O35   O     O_R   0.956410 0.216580 0.829970 -0.520998
O36   O     O_R   0.043590 0.216580 0.170030 -0.523713
O37   O     O_R   0.321080 0.625290 0.822650 -0.498069
O38   O     O_R   0.678920 0.625290 0.177350 -0.494364
O39   O     O_R   0.821080 0.125290 0.822650 -0.500947
O40   O     O_R   0.178920 0.125290 0.177350 -0.501126
O41   O     O_R   0.214930 0.711450 0.668160 -0.511430
O42   O     O_R   0.785070 0.711450 0.331840 -0.520599
O43   O     O_R   0.714930 0.211450 0.668160 -0.508961
O44   O     O_R   0.285070 0.211450 0.331840 -0.520980
O45   O     O_R   0.236850 0.959870 0.675420 -0.487308
O46   O     O_R   0.763150 0.959870 0.324580 -0.500408
O47   O     O_R   0.736850 0.459870 0.675420 -0.489324
O48   O     O_R   0.263150 0.459870 0.324580 -0.491407
O49   O     O_R   0.332230 0.076350 0.670880 -0.514262
O50   O     O_R   0.667770 0.076350 0.329120 -0.507130
O51   O     O_R   0.832230 0.576350 0.670880 -0.511425
O52   O     O_R   0.167770 0.576350 0.329120 -0.498800
C85   C     C_3   0.343651 0.446408 0.055599 -0.245285
C86   C     C_3   0.404442 0.457746 0.002693 -0.464664
H45   H     H_    0.402630 0.383613 0.962871 0.146160
H46   H     H_    0.401614 0.546698 0.975015 0.178656
H47   H     H_    0.455517 0.451576 0.031349 0.119172
H48   H     H_    0.353155 0.518685 0.096005 0.174531
H49   H     H_    0.346474 0.355852 0.081405 0.176097
C87   C     C_3   0.652993 0.517016 0.942068 -0.241206
C88   C     C_3   0.606523 0.405918 0.931210 -0.433904
H50   H     H_    0.633554 0.336530 0.898382 0.201425
H51   H     H_    0.592637 0.365925 0.983486 0.134161
H52   H     H_    0.557140 0.433252 0.903691 0.119528
H53   H     H_    0.625827 0.578802 0.979992 0.138099
H54   H     H_    0.656951 0.570769 0.892392 0.171821
C89   C     C_3   0.864079 0.988236 0.072444 -0.251775
C90   C     C_3   0.929824 0.009895 0.028133 -0.454707
H55   H     H_    0.931311 0.948780 0.981230 0.135190
H56   H     H_    0.929724 0.105278 0.009393 0.183392
H57   H     H_    0.977231 0.992980 0.061318 0.140088
H58   H     H_    0.872547 0.037152 0.123691 0.165671
H59   H     H_    0.858023 0.889708 0.083256 0.162938
C91   C     C_3   0.162621 0.921359 0.948499 -0.253883
C92   C     C_3   0.106893 0.883037 0.002682 -0.461711
H60   H     H_    0.119340 0.791951 0.024826 0.156373
H61   H     H_    0.102152 0.950451 0.046453 0.158285
H62   H     H_    0.055242 0.876308 0.975272 0.132413
H63   H     H_    0.142051 0.001582 0.919125 0.152924
H64   H     H_    0.167623 0.844943 0.911056 0.200317
C93   C     C_3   0.277525 0.371161 0.895538 -0.252909
C94   C     C_3   0.210356 0.333864 0.856309 -0.426872
H65   H     H_    0.168848 0.309225 0.895234 0.153602
H66   H     H_    0.190864 0.409017 0.822076 0.150525
H67   H     H_    0.221295 0.253462 0.822034 0.172461
H68   H     H_    0.319518 0.393420 0.856579 0.162309
H69   H     H_    0.295783 0.291384 0.926909 0.154613
C95   C     C_3   0.702506 0.387573 0.097660 -0.252460
C96   C     C_3   0.761520 0.341037 0.146380 -0.421029
H70   H     H_    0.803540 0.296577 0.114274 0.142864
H71   H     H_    0.785607 0.415592 0.177980 0.150510
H72   H     H_    0.739798 0.275140 0.184964 0.167050
H73   H     H_    0.656796 0.418050 0.129986 0.165831
H74   H     H_    0.683723 0.311456 0.063931 0.138491
C97   C     C_3   0.799743 0.927010 0.916344 -0.232631
C98   C     C_3   0.729833 0.888395 0.882604 -0.419100
H75   H     H_    0.688381 0.880498 0.924115 0.146046
H76   H     H_    0.712484 0.954900 0.841827 0.182754
H77   H     H_    0.736353 0.798256 0.856394 0.153662
H78   H     H_    0.841722 0.933783 0.875578 0.171211
H79   H     H_    0.816375 0.851737 0.952145 0.133882
C99   C     C_3   0.240287 0.868196 0.108167 -0.249861
C100  C     C_3   0.311860 0.849274 0.143873 -0.427853
H80   H     H_    0.352907 0.832339 0.102883 0.149427
H81   H     H_    0.326824 0.930082 0.176153 0.151968
H82   H     H_    0.309379 0.768912 0.179510 0.165453
H83   H     H_    0.198882 0.883074 0.149083 0.165705
H84   H     H_    0.227541 0.782795 0.079139 0.157369

loop_
_geom_bond_atom_site_label_1
_geom_bond_atom_site_label_2
_ccdc_geom_bond_type
C16   C28   D    
C86   H46   S    
C38   C70   S    
C87   H53   S    
C72   O16   A    
C37   C69   S    
Cr8   O8    S    
Cr1   O21   S    
C97   H78   S    
Cr3   O23   S    
C35   C36   S    
C53   H9    S    
Cr9   O13   S    
C2    O22   A    
Cr7   O7    S    
C81   C82   A    
C3    O27   A    
C62   O50   A    
Cr12  O16   S    
C77   C78   A    
Cr5   O5    S    
C29   H42   S    
C8    H24   S    
Cr1   O1    S    
C50   C54   S    
C75   C79   A    
C28   C99   S    
Cr11  O19   S    
C98   H76   S    
C22   C87   S    
C47   C76   S    
C66   O10   A    
C96   H72   S    
C91   H63   S    
C92   H61   S    
C6    C12   A    
C38   H18   S    
C63   O51   A    
C75   C84   A    
Cr4   O44   S    
C86   H47   S    
C37   H17   S    
C34   H38   S    
C51   H7    S    
C100  H80   S    
Cr12  O12   S    
C89   H59   S    
C98   H75   S    
C3    C18   S    
C51   C55   S    
C16   C60   S    
Cr9   O33   S    
Cr11  O35   S    
C97   H79   S    
C22   C26   S    
C48   O32   A    
Cr11  O11   S    
Cr9   O9    S    
C70   O42   A    
C39   C55   D    
C20   C24   D    
C26   C95   S    
C87   C88   S    
C40   C56   D    
C12   H28   S    
C9    H25   S    
C97   C98   S    
C4    O24   A    
C25   C93   S    
Cr2   O22   S    
C23   C27   S    
C18   C22   D    
Cr12  O36   S    
C9    C10   A    
C2    O26   A    
Cr7   O19   S    
C68   O8    A    
C27   C97   S    
C62   O46   A    
C37   C53   D    
C44   C52   D    
C86   H45   S    
C1    O21   A    
Cr10  O18   S    
C30   H41   S    
C83   H3    S    
Cr6   O26   S    
C61   O49   A    
C88   H51   S    
C48   C75   S    
C13   C25   D    
C56   H12   S    
C60   O4    A    
Cr1   O17   S    
C36   H40   S    
C76   C83   A    
C41   C49   D    
C95   C96   S    
C64   O52   A    
C61   O45   A    
C99   C100  S    
Cr1   O45   S    
C14   C58   S    
C54   H10   S    
C24   C91   S    
C67   O11   A    
C89   C90   S    
C84   H4    S    
C32   C35   D    
C7    H23   S    
C72   O44   A    
C32   H43   S    
C92   H62   S    
C35   H39   S    
Cr9   O37   S    
C91   C92   S    
C90   H55   S    
Cr3   O47   S    
C41   H13   S    
C94   H67   S    
C100  H81   S    
Cr4   O24   S    
Cr7   O51   S    
C93   H68   S    
C69   O13   A    
C46   O30   A    
C55   H11   S    
C45   C74   S    
Cr6   O18   S    
C19   C23   D    
C92   H60   S    
C17   H29   S    
C96   H70   S    
C68   O12   A    
C45   O33   A    
C93   C94   S    
C99   H84   S    
Cr8   O28   S    
C15   C27   D    
C83   C84   A    
C38   C54   D    
C1    O25   A    
Cr10  O14   S    
C100  H82   S    
C71   O15   A    
Cr6   O30   S    
C46   O34   A    
C33   C34   S    
Cr3   O43   S    
C15   H35   S    
C58   O38   A    
C64   O48   A    
C14   C26   D    
Cr9   O17   S    
Cr2   O18   S    
Cr5   O25   S    
C95   H73   S    
C30   C66   S    
Cr2   O46   S    
C42   C50   D    
C29   C65   S    
C4    C17   S    
C44   H16   S    
Cr11  O39   S    
Cr12  O20   S    
Cr10  O34   S    
C50   H6    S    
C63   O47   A    
Cr7   O31   S    
C5    C11   A    
C67   O7    A    
C89   H58   S    
C96   H71   S    
C88   H52   S    
C76   C80   A    
C74   C81   A    
C5    C77   A    
Cr3   O19   S    
C73   C82   A    
Cr2   O2    S    
C7    C79   A    
C49   H5    S    
Cr6   O50   S    
Cr7   O27   S    
C7    C9    A    
C14   H34   S    
C21   C25   S    
C94   H66   S    
C1    C20   S    
C13   H33   S    
C58   O2    A    
C40   C72   S    
C30   C33   D    
C23   C89   S    
C2    C19   S    
C70   O14   A    
C4    O28   A    
C15   C59   S    
C95   H74   S    
C33   H37   S    
C11   H27   S    
C24   C28   S    
Cr2   O42   S    
C10   H26   S    
Cr10  O38   S    
C45   O29   A    
C47   O31   A    
C11   C12   A    
Cr5   O17   S    
Cr1   O41   S    
C3    O23   A    
C44   C61   S    
C60   O40   A    
C93   H69   S    
C39   H19   S    
C99   H83   S    
C98   H77   S    
C57   O1    A    
C20   H32   S    
Cr8   O20   S    
Cr3   O3    S    
Cr12  O40   S    
C59   O39   A    
C42   H14   S    
Cr5   O29   S    
Cr6   O6    S    
C90   H56   S    
C85   H49   S    
Cr5   O49   S    
C18   H30   S    
C32   C68   S    
C57   O37   A    
C69   O41   A    
C43   C51   D    
C40   H20   S    
C81   H1    S    
Cr8   O32   S    
C90   H57   S    
C49   C53   S    
C52   C56   S    
C29   C34   D    
C19   H31   S    
C52   H8    S    
Cr11  O15   S    
Cr4   O20   S    
C65   O9    A    
C94   H65   S    
C16   H36   S    
C87   H54   S    
C82   H2    S    
C66   O6    A    
C6    C78   A    
C31   C67   S    
C59   O3    A    
C79   C80   A    
C43   H15   S    
Cr8   O52   S    
Cr10  O10   S    
Cr4   O48   S    
C13   C57   S    
C88   H50   S    
C73   C77   A    
C8    C10   A    
C85   C86   S    
C74   C78   A    
C5    H21   S    
C8    C80   A    
C39   C71   S    
C31   C36   D    
C91   H64   S    
C41   C64   S    
C21   C85   S    
C31   H44   S    
C65   O5    A    
C42   C63   S    
Cr4   O4    S    
C46   C73   S    
C47   O35   A    
C85   H48   S    
C43   C62   S    
C6    H22   S    
C48   O36   A    
C71   O43   A    
C17   C21   D    
