data_mof_unit_45472.cif
_audit_creation_date              2012-12-10T17:18:12-0500
_audit_creation_method            fapswitch 2.2
_symmetry_space_group_name_H-M    P1
_symmetry_Int_Tables_number       1
_space_group_crystal_system       triclinic
_cell_length_a                    10.228983
_cell_length_b                    10.645188
_cell_length_c                    14.939763
_cell_angle_alpha                 90.247481
_cell_angle_beta                  81.670465
_cell_angle_gamma                 98.574873
_cell_volume                      1591.38115429

loop_
_atom_site_label
_atom_site_type_symbol
_atom_type_description
_atom_site_fract_x
_atom_site_fract_y
_atom_site_fract_z
_atom_type_partial_charge
C1    C     C_R   0.559056 0.733724 0.489266 0.902380
C2    C     C_2   0.080671 0.537620 0.472989 0.280224
C3    C     C_R   0.499194 0.495836 0.672139 0.913040
C4    C     C_R   0.501003 0.505100 0.327859 0.908791
C5    C     C_R   0.433363 0.397860 0.195230 0.106107
C6    C     C_R   0.555995 0.602974 0.806744 0.094936
C7    C     C_R   0.499891 0.505840 0.232439 -0.084427
C8    C     C_R   0.498706 0.492624 0.767726 -0.073966
C9    C     C_R   0.564523 0.612966 0.180192 0.099602
C10   C     C_R   0.436048 0.383606 0.818999 0.107582
C11   C     C_R   0.555677 0.614137 0.086844 0.067429
C12   C     C_R   0.440168 0.266099 0.508291 0.892485
C13   C     C_R   0.438000 0.383854 0.913598 0.081207
C14   C     C_R   0.492842 0.502830 0.047823 -0.098333
C15   C     C_R   0.499071 0.495671 0.953129 -0.087564
C16   C     C_R   0.419568 0.400728 0.103222 0.068661
C17   C     C_R   0.571045 0.598722 0.898163 0.033168
C18   C     C_R   0.616426 0.719006 0.029601 0.205102
C19   C     C_R   0.373969 0.280190 0.971393 0.157109
C20   C     C_3   0.401601 0.273868 0.250138 -0.910308
C21   C     C_3   0.575239 0.728691 0.754082 -0.954133
C22   C     C_3   0.659708 0.714371 0.220888 -0.916849
C23   C     C_R   0.649099 0.698386 0.937544 0.155224
C24   C     C_3   0.350237 0.278428 0.774839 -0.910279
C25   C     C_3   0.621854 0.855705 0.059354 -0.920079
C26   C     C_3   0.364627 0.142462 0.943364 -0.952187
C27   C     C_3   0.777415 0.772170 0.886250 -0.405985
C28   C     C_3   0.899523 0.753912 0.930197 -0.872340
C29   C     C_3   0.207657 0.230777 0.111402 -0.392814
C30   C     C_3   0.113882 0.322337 0.151399 -0.879723
C31   C     C_3   0.574176 0.084928 0.597557 -0.907955
C32   C     C_3   0.411782 0.901677 0.394779 -0.917316
C33   C     C_3   0.251531 0.079341 0.505942 -0.941798
C34   C     C_R   0.340408 0.301601 0.063367 0.161093
C35   C     C_3   0.743286 0.928485 0.464896 -0.976807
C36   C     C_3   0.139812 0.565799 0.375939 -0.860321
C37   C     C_3   0.896334 0.659322 0.528378 -0.874153
C38   C     C_3   0.098161 0.530076 0.632122 -0.216708
C39   C     C_3   0.061924 0.389119 0.656807 -0.860659
C40   C     C_3   0.880073 0.347463 0.403097 -0.207480
C41   C     C_3   0.950780 0.252887 0.447677 -0.959508
C42   C     C_2   0.598288 0.870486 0.475403 0.000954
C43   C     C_2   0.396079 0.129216 0.512722 -0.003736
C44   C     C_2   0.501899 0.940503 0.465841 0.228658
C45   C     C_2   0.486617 0.053176 0.523938 0.207795
C46   C     C_2   0.932884 0.535615 0.491863 0.281583
H1    H     H_    0.298133 0.262659 0.286988 0.248431
H2    H     H_    0.247196 0.263072 0.812489 0.250705
H3    H     H_    0.338529 0.298490 0.704336 0.234573
H4    H     H_    0.394501 0.189843 0.771454 0.242270
H5    H     H_    0.536363 0.865440 0.112510 0.242330
H6    H     H_    0.718365 0.892033 0.082534 0.248294
H7    H     H_    0.609885 0.918246 0.002687 0.231772
H8    H     H_    0.272734 0.111238 0.913030 0.248770
H9    H     H_    0.456096 0.127315 0.897354 0.251308
H10   H     H_    0.360901 0.078738 0.002755 0.235201
H11   H     H_    0.893751 0.794677 0.998849 0.261250
H12   H     H_    0.418152 0.191589 0.206350 0.231511
H13   H     H_    0.907082 0.651180 0.935018 0.260809
H14   H     H_    0.991535 0.802735 0.888327 0.246661
H15   H     H_    0.797942 0.738027 0.816200 0.225465
H16   H     H_    0.770204 0.875000 0.882608 0.208575
H17   H     H_    0.094798 0.385718 0.097380 0.261936
H18   H     H_    0.017165 0.267624 0.182723 0.246570
H19   H     H_    0.157233 0.381276 0.204119 0.263520
H20   H     H_    0.153769 0.172298 0.062496 0.215980
H21   H     H_    0.220093 0.161865 0.163350 0.205652
H22   H     H_    0.575120 0.998488 0.638651 0.238601
H23   H     H_    0.470440 0.269346 0.300572 0.231474
H24   H     H_    0.677170 0.125166 0.568444 0.258652
H25   H     H_    0.536310 0.156523 0.644427 0.230353
H26   H     H_    0.408044 0.984748 0.351087 0.239994
H27   H     H_    0.449860 0.828063 0.349715 0.227373
H28   H     H_    0.310026 0.860292 0.426459 0.253252
H29   H     H_    0.185178 0.135473 0.549542 0.252685
H30   H     H_    0.232046 0.087423 0.435173 0.251160
H31   H     H_    0.223347 0.980092 0.531850 0.253137
H32   H     H_    0.800592 0.879829 0.410128 0.247504
H33   H     H_    0.756828 0.029472 0.443126 0.264499
H34   H     H_    0.584300 0.812713 0.798013 0.242071
H35   H     H_    0.783731 0.919562 0.529255 0.257402
H36   H     H_    0.065155 0.595493 0.336442 0.196723
H37   H     H_    0.222145 0.647101 0.371151 0.260334
H38   H     H_    0.171857 0.479101 0.344286 0.251410
H39   H     H_    0.813014 0.643993 0.585055 0.271132
H40   H     H_    0.980794 0.720078 0.553696 0.187133
H41   H     H_    0.877627 0.715722 0.471191 0.257449
H42   H     H_    0.972677 0.347695 0.626755 0.248616
H43   H     H_    0.146019 0.337252 0.632985 0.280539
H44   H     H_    0.037722 0.377232 0.731474 0.234546
H45   H     H_    0.663809 0.735332 0.700886 0.232577
H46   H     H_    0.170931 0.574633 0.675204 0.215525
H47   H     H_    0.009266 0.576881 0.651747 0.161301
H48   H     H_    0.052473 0.295196 0.459018 0.278155
H49   H     H_    0.891633 0.217221 0.512959 0.259481
H50   H     H_    0.962213 0.171262 0.402224 0.251232
H51   H     H_    0.787437 0.293916 0.383164 0.216717
H52   H     H_    0.941316 0.386935 0.339378 0.167962
H53   H     H_    0.486021 0.735999 0.721100 0.248167
H54   H     H_    0.757070 0.732557 0.175835 0.248771
H55   H     H_    0.616309 0.803077 0.232426 0.240624
H56   H     H_    0.685261 0.688069 0.286858 0.246904
N1    N     N_2   0.842700 0.448880 0.462930 -0.069853
N2    N     N_2   0.157300 0.551120 0.537070 -0.079252
O1    O     O_R   0.431060 0.692470 0.507460 -0.605576
O2    O     O_R   0.568940 0.307530 0.492540 -0.608056
O3    O     O_R   0.651120 0.659650 0.483670 -0.616467
O4    O     O_R   0.348880 0.340350 0.516330 -0.609315
O5    O     O_R   0.389960 0.516440 0.644050 -0.622481
O6    O     O_R   0.610040 0.483560 0.355950 -0.623850
O7    O     O_R   0.610030 0.483620 0.620260 -0.614522
O8    O     O_R   0.389970 0.516380 0.379740 -0.616397
Zn1   Zn    Zn3+2 0.353060 0.521920 0.515880 0.915250
Zn2   Zn    Zn3+2 0.646940 0.478080 0.484120 0.917781

loop_
_geom_bond_atom_site_label_1
_geom_bond_atom_site_label_2
_ccdc_geom_bond_type
C12   O2    A    
C11   C18   A    
C30   H18   S    
C26   H9    S    
C35   H35   S    
C32   H26   S    
C5    C20   S    
C28   H11   S    
C2    C46   S    
C17   C23   A    
C22   H55   S    
O2    Zn2   S    
O1    Zn1   S    
C25   H7    S    
C12   C43   S    
C40   H52   S    
C38   C39   S    
C21   H53   S    
C11   C14   A    
C9    C22   S    
C41   H50   S    
C36   H37   S    
C2    C36   S    
C38   H46   S    
C21   H34   S    
C15   C17   A    
C19   C26   S    
C35   C42   S    
C5    C16   A    
C38   N2    S    
C27   H15   S    
C16   C34   A    
C29   H21   S    
C33   H29   S    
C31   H24   S    
C3    O7    A    
C23   C27   S    
O6    Zn2   S    
C39   H44   S    
O5    Zn1   S    
C31   H25   S    
C4    O8    A    
C30   H17   S    
C18   C25   S    
C42   C44   D    
C39   H42   S    
C4    C7    S    
C26   H8    S    
O8    Zn1   S    
C28   H14   S    
C24   H4    S    
C31   H22   S    
C22   H54   S    
C13   C19   A    
C18   C23   A    
C33   C43   S    
C37   H40   S    
N1    Zn2   S    
C3    C8    S    
C36   H36   S    
C32   H27   S    
C5    C7    A    
C6    C8    A    
C10   C24   S    
C6    C21   S    
C29   C34   S    
C19   C34   A    
N2    Zn1   S    
C24   H2    S    
O4    Zn1   S    
C25   H5    S    
O3    Zn2   S    
C29   C30   S    
C27   H16   S    
C43   C45   D    
C33   H30   S    
C41   H48   S    
C2    N2    D    
C32   C44   S    
C9    C11   A    
C1    O3    A    
C40   C41   S    
C13   C15   A    
C14   C16   A    
C20   H23   S    
C20   H12   S    
C40   H51   S    
C44   C45   S    
C12   O4    A    
C21   H45   S    
C28   H13   S    
C37   H39   S    
C24   H3    S    
C7    C9    A    
C6    C17   A    
C4    O6    A    
C37   H41   S    
C36   H38   S    
C10   C13   A    
C26   H10   S    
C46   N1    D    
C35   H32   S    
C22   H56   S    
C25   H6    S    
C40   N1    S    
C32   H28   S    
C33   H31   S    
C41   H49   S    
C3    O5    A    
C38   H47   S    
C35   H33   S    
O7    Zn2   S    
C30   H19   S    
C29   H20   S    
C1    C42   S    
C8    C10   A    
C31   C45   S    
C27   C28   S    
C14   C15   A    
C37   C46   S    
C39   H43   S    
C20   H1    S    
C1    O1    A    
