data_mof_unit_15121.cif
_audit_creation_date              2012-12-11T20:51:17-0500
_audit_creation_method            fapswitch 2.2
_symmetry_space_group_name_H-M    P1
_symmetry_Int_Tables_number       1
_space_group_crystal_system       triclinic
_cell_length_a                    30.345976
_cell_length_b                    33.940107
_cell_length_c                    8.552239
_cell_angle_alpha                 90.0
_cell_angle_beta                  89.90206
_cell_angle_gamma                 90.07289
_cell_volume                      8808.32155126

loop_
_atom_site_label
_atom_site_type_symbol
_atom_type_description
_atom_site_fract_x
_atom_site_fract_y
_atom_site_fract_z
_atom_type_partial_charge
Ba1   Ba    Ba6+2 0.999930 0.472870 0.844940 1.722346
Ba2   Ba    Ba6+2 0.999930 0.527130 0.344940 1.718661
Ba3   Ba    Ba6+2 0.499930 0.972870 0.844940 1.722262
Ba4   Ba    Ba6+2 0.499930 0.027130 0.344940 1.718649
C1    C     C_3   0.010858 0.282668 0.504341 0.619696
C2    C     C_3   0.008863 0.719150 0.031097 0.664076
C3    C     C_3   0.510924 0.782694 0.504144 0.620152
C4    C     C_3   0.508875 0.219138 0.030983 0.664148
C5    C     C_R   0.244702 0.695531 0.069222 -0.107581
C6    C     C_R   0.245214 0.305674 0.579663 -0.106703
C7    C     C_R   0.744691 0.195522 0.069401 -0.107596
C8    C     C_R   0.745233 0.805690 0.579746 -0.106720
C9    C     C_R   0.212288 0.667890 0.018497 0.610744
C10   C     C_R   0.212990 0.333350 0.528424 0.609783
C11   C     C_R   0.712279 0.167882 0.018658 0.610741
C12   C     C_R   0.713012 0.833369 0.528506 0.609824
C13   C     C_R   0.158191 0.719143 0.998366 0.601063
C14   C     C_R   0.160675 0.281398 0.485555 0.588523
C15   C     C_R   0.658205 0.219147 0.998235 0.601038
C16   C     C_R   0.660719 0.781415 0.485353 0.588349
C17   C     C_R   0.189886 0.747743 0.040307 -0.005567
C18   C     C_R   0.192344 0.252885 0.528036 -0.003041
C19   C     C_R   0.689902 0.247745 0.040173 -0.005553
C20   C     C_R   0.692383 0.752900 0.527852 -0.002984
C21   C     C_R   0.233328 0.735965 0.075442 -0.090638
C22   C     C_R   0.234807 0.265002 0.574742 -0.090868
C23   C     C_R   0.733331 0.235961 0.075466 -0.090665
C24   C     C_R   0.734834 0.765016 0.574699 -0.090871
C25   C     C_R   0.288540 0.684511 0.110140 0.407165
C26   C     C_R   0.288005 0.316969 0.631999 0.407044
C27   C     C_R   0.788514 0.184496 0.110490 0.407335
C28   C     C_R   0.788012 0.816983 0.632208 0.407031
C29   C     C_R   0.819978 0.213397 0.145231 -0.040080
C30   C     C_R   0.819584 0.788267 0.666997 -0.035889
C31   C     C_R   0.320001 0.713415 0.144873 -0.039789
C32   C     C_R   0.319578 0.288255 0.666789 -0.035928
C33   C     C_R   0.808971 0.253564 0.150666 -0.108968
C34   C     C_R   0.809540 0.747870 0.661416 -0.105010
C35   C     C_R   0.308980 0.753578 0.150468 -0.109201
C36   C     C_R   0.309527 0.247858 0.661326 -0.105007
C37   C     C_R   0.765440 0.264883 0.116961 -0.052574
C38   C     C_R   0.766940 0.736191 0.616561 -0.054374
C39   C     C_R   0.265435 0.764889 0.116932 -0.052602
C40   C     C_R   0.266916 0.236178 0.616594 -0.054360
C41   C     C_R   0.178883 0.787983 0.048750 -0.058060
C42   C     C_R   0.182245 0.212376 0.525784 -0.061144
C43   C     C_R   0.678913 0.287990 0.048461 -0.058078
C44   C     C_R   0.682292 0.712391 0.525481 -0.061246
C45   C     C_3   0.985148 0.330421 0.017902 0.672757
C46   C     C_3   0.986048 0.671994 0.537981 0.659373
C47   C     C_3   0.485179 0.830411 0.017763 0.672930
C48   C     C_3   0.486049 0.171980 0.537895 0.659579
C49   C     C_R   0.710341 0.316168 0.089993 -0.066957
C50   C     C_R   0.713663 0.684305 0.567875 -0.068889
C51   C     C_R   0.210309 0.816163 0.090280 -0.066928
C52   C     C_R   0.213622 0.184293 0.568153 -0.068806
C53   C     C_R   0.753897 0.305115 0.124474 -0.011867
C54   C     C_R   0.756313 0.695708 0.613531 -0.011869
C55   C     C_R   0.253877 0.805117 0.124602 -0.011863
C56   C     C_R   0.256283 0.195696 0.613675 -0.011899
C57   C     C_R   0.786014 0.333395 0.167553 0.587463
C58   C     C_R   0.788377 0.667503 0.657425 0.589981
C59   C     C_R   0.285993 0.833398 0.167677 0.587461
C60   C     C_R   0.288352 0.167493 0.657546 0.589988
C61   C     C_R   0.840506 0.282562 0.191713 0.599537
C62   C     C_R   0.841134 0.718995 0.702312 0.596877
C63   C     C_R   0.340513 0.782579 0.191506 0.599712
C64   C     C_R   0.341124 0.218984 0.702224 0.596917
C65   C     C_2   0.110417 0.654519 0.807971 -0.060045
C66   C     C_2   0.112810 0.347143 0.304695 -0.051052
C67   C     C_2   0.610427 0.154511 0.807953 -0.059982
C68   C     C_2   0.612853 0.847175 0.304635 -0.050928
C69   C     C_3   0.071667 0.630820 0.784264 -0.027087
C70   C     C_3   0.073505 0.370145 0.283258 -0.013638
C71   C     C_3   0.571675 0.130814 0.784252 -0.027087
C72   C     C_3   0.573537 0.870165 0.283248 -0.013296
C73   C     C_1   0.095589 0.588405 0.003430 0.051733
C74   C     C_1   0.096290 0.411848 0.504030 0.103800
C75   C     C_1   0.595590 0.088404 0.003432 0.051763
C76   C     C_1   0.596307 0.911855 0.504034 0.103999
C77   C     C_2   0.126473 0.616156 0.048537 -0.022110
C78   C     C_2   0.126825 0.383940 0.550374 0.015782
C79   C     C_2   0.626467 0.116159 0.048561 -0.022121
C80   C     C_2   0.626843 0.883948 0.550381 0.015696
C81   C     C_2   0.136049 0.650493 0.944858 0.253438
C82   C     C_2   0.137534 0.350350 0.444057 0.242048
C83   C     C_2   0.636050 0.150492 0.944867 0.253329
C84   C     C_2   0.637567 0.850369 0.444022 0.241943
C85   C     C_R   0.881848 0.348178 0.387938 -0.056968
C86   C     C_R   0.884017 0.653021 0.886071 -0.040856
C87   C     C_R   0.381830 0.848188 0.387930 -0.057272
C88   C     C_R   0.384008 0.153019 0.886073 -0.040852
C89   C     C_3   0.966368 0.289865 0.973112 0.250505
C90   C     C_3   0.968253 0.712891 0.494691 0.290936
C91   C     C_3   0.466454 0.789849 0.972770 0.249513
C92   C     C_3   0.468253 0.212877 0.494629 0.291003
C93   C     C_R   0.915146 0.377679 0.434659 -0.033695
C94   C     C_R   0.917742 0.623933 0.931620 -0.000080
C95   C     C_R   0.415122 0.877694 0.434669 -0.033816
C96   C     C_R   0.417734 0.123931 0.931623 -0.000084
C97   C     C_R   0.903556 0.412335 0.190073 0.127457
C98   C     C_R   0.904762 0.588368 0.688860 0.105177
C99   C     C_R   0.403547 0.912340 0.190067 0.127634
C100  C     C_R   0.404756 0.088367 0.688861 0.105233
C101  C     C_R   0.871532 0.383853 0.149152 -0.069478
C102  C     C_R   0.873100 0.617140 0.647906 -0.099000
C103  C     C_R   0.371518 0.883862 0.149146 -0.069168
C104  C     C_R   0.373087 0.117134 0.647919 -0.098900
C105  C     C_R   0.861468 0.351385 0.247882 0.233867
C106  C     C_R   0.863310 0.649791 0.746490 0.217004
C107  C     C_R   0.361454 0.851395 0.247870 0.233829
C108  C     C_R   0.363297 0.149785 0.746501 0.217093
C109  C     C_2   0.069532 0.594870 0.873026 -0.199263
C110  C     C_2   0.071137 0.406012 0.371317 -0.189645
C111  C     C_2   0.569541 0.094864 0.873003 -0.199075
C112  C     C_2   0.571166 0.906030 0.371295 -0.189574
C113  C     C_3   0.136852 0.481531 0.207528 0.671073
C114  C     C_3   0.136868 0.518286 0.710218 0.667594
C115  C     C_3   0.636858 0.981533 0.207525 0.671073
C116  C     C_3   0.636871 0.018284 0.710269 0.667510
C117  C     C_3   0.183684 0.475966 0.271144 0.675735
C118  C     C_3   0.183926 0.524118 0.771485 0.681567
C119  C     C_3   0.683685 0.975986 0.271200 0.675850
C120  C     C_3   0.683927 0.024081 0.771619 0.681495
C121  C     C_3   0.868630 0.526682 0.046894 0.645694
C122  C     C_3   0.867861 0.473724 0.545991 0.648920
C123  C     C_3   0.368631 0.026683 0.046886 0.645690
C124  C     C_3   0.367859 0.973725 0.545983 0.648949
C125  C     C_3   0.836793 0.551740 0.143778 -0.296292
C126  C     C_3   0.836583 0.448477 0.644634 -0.298148
C127  C     C_3   0.336797 0.051742 0.143777 -0.296267
C128  C     C_3   0.336585 0.948477 0.644641 -0.298146
C129  C     C_3   0.005826 0.326024 0.557286 0.631090
C130  C     C_3   0.007214 0.675850 0.085951 0.720034
C131  C     C_3   0.505818 0.826050 0.556991 0.630632
C132  C     C_3   0.507218 0.175844 0.085902 0.720115
C133  C     C_R   0.925933 0.409101 0.324200 -0.148377
C134  C     C_R   0.927853 0.592077 0.821595 -0.156939
C135  C     C_R   0.425920 0.909108 0.324199 -0.148472
C136  C     C_R   0.427848 0.092077 0.821594 -0.156843
H1    H     H_    0.841260 0.583402 0.115284 0.084104
H2    H     H_    0.841462 0.416806 0.617363 0.080863
H3    H     H_    0.341265 0.083404 0.115288 0.084094
H4    H     H_    0.341469 0.916806 0.617386 0.080848
H5    H     H_    0.842380 0.547251 0.270338 0.125652
H6    H     H_    0.842405 0.453347 0.770845 0.123499
H7    H     H_    0.342384 0.047251 0.270336 0.125648
H8    H     H_    0.342408 0.953352 0.770849 0.123478
H9    H     H_    0.003188 0.344059 0.450008 -0.075909
H10   H     H_    0.008994 0.656926 0.980557 -0.172810
H11   H     H_    0.503132 0.844058 0.449640 -0.075672
H12   H     H_    0.509001 0.156910 0.980534 -0.173172
H13   H     H_    0.036402 0.281547 0.410675 0.085830
H14   H     H_    0.034999 0.721991 0.940267 0.059453
H15   H     H_    0.536447 0.781599 0.410397 0.085828
H16   H     H_    0.535010 0.221966 0.940141 0.059555
H17   H     H_    0.700345 0.346773 0.094826 0.133377
H18   H     H_    0.704357 0.653495 0.564349 0.132517
H19   H     H_    0.200302 0.846763 0.095237 0.133393
H20   H     H_    0.204310 0.153483 0.564718 0.132560
H21   H     H_    0.145764 0.797907 0.023001 0.137770
H22   H     H_    0.149868 0.202166 0.491087 0.137900
H23   H     H_    0.645804 0.297920 0.022589 0.137771
H24   H     H_    0.649924 0.702181 0.490675 0.137861
H25   H     H_    0.873994 0.324149 0.466491 0.091165
H26   H     H_    0.876041 0.676763 0.965732 0.095072
H27   H     H_    0.373979 0.824154 0.466467 0.091149
H28   H     H_    0.376034 0.176764 0.965723 0.095031
H29   H     H_    0.116726 0.679032 0.729479 0.105448
H30   H     H_    0.120192 0.323689 0.222449 0.106679
H31   H     H_    0.616745 0.179015 0.729430 0.105513
H32   H     H_    0.620250 0.823737 0.222334 0.106672
H33   H     H_    0.853921 0.387175 0.039970 0.093875
H34   H     H_    0.855372 0.613731 0.539017 0.108281
H35   H     H_    0.353906 0.887186 0.039965 0.093743
H36   H     H_    0.355354 0.113722 0.539041 0.108202
H37   H     H_    0.949875 0.431144 0.358042 0.044926
H38   H     H_    0.951503 0.569871 0.855696 0.050833
H39   H     H_    0.449866 0.931147 0.358037 0.044925
H40   H     H_    0.451502 0.069874 0.855687 0.050811
H41   H     H_    0.041719 0.575470 0.851961 0.054879
H42   H     H_    0.043684 0.425621 0.348226 0.044354
H43   H     H_    0.541736 0.075457 0.851906 0.054898
H44   H     H_    0.543718 0.925642 0.348177 0.044299
H45   H     H_    0.974132 0.352112 0.930138 0.070513
H46   H     H_    0.967701 0.649624 0.469294 0.037631
H47   H     H_    0.474226 0.852094 0.929873 0.070488
H48   H     H_    0.467724 0.149614 0.469118 0.037723
N1    N     N_R   0.169472 0.679698 0.987165 -0.431192
N2    N     N_R   0.171038 0.321193 0.485814 -0.431791
N3    N     N_R   0.669474 0.179696 0.987174 -0.431170
N4    N     N_R   0.671072 0.821212 0.485761 -0.431788
N5    N     N_R   0.828893 0.322052 0.200602 -0.432018
N6    N     N_R   0.830542 0.679141 0.700215 -0.429473
N7    N     N_R   0.328883 0.822062 0.200572 -0.432185
N8    N     N_R   0.330525 0.179132 0.700229 -0.429474
O1    O     O_2   0.914200 0.445720 0.903420 -0.477574
O2    O     O_2   0.914200 0.554280 0.403420 -0.475096
O3    O     O_2   0.414200 0.945720 0.903420 -0.477598
O4    O     O_2   0.414200 0.054280 0.403420 -0.475109
O5    O     O_3   0.137665 0.486944 0.603691 -0.664674
O6    O     O_3   0.137819 0.513390 0.103470 -0.656617
O7    O     O_3   0.637660 0.986951 0.603692 -0.664742
O8    O     O_3   0.637820 0.013392 0.103470 -0.656567
O9    O     O_3   0.031587 0.328966 0.018057 -0.617894
O10   O     O_3   0.031541 0.669684 0.501956 -0.562238
O11   O     O_3   0.531616 0.828954 0.018285 -0.618327
O12   O     O_3   0.531550 0.169684 0.501986 -0.562367
O13   O     O_3   0.049930 0.518940 0.045960 -0.506246
O14   O     O_3   0.049930 0.481060 0.545960 -0.508344
O15   O     O_3   0.549930 0.018940 0.045960 -0.506235
O16   O     O_3   0.549930 0.981060 0.545960 -0.508335
O17   O     O_2   0.222401 0.633506 0.997714 -0.543305
O18   O     O_2   0.222594 0.368152 0.517199 -0.548627
O19   O     O_2   0.722385 0.133492 0.997993 -0.543391
O20   O     O_2   0.722610 0.868175 0.517399 -0.548602
O21   O     O_2   0.120338 0.729409 0.972687 -0.610502
O22   O     O_2   0.123650 0.270711 0.449142 -0.615256
O23   O     O_2   0.620360 0.229419 0.972433 -0.610492
O24   O     O_2   0.623707 0.770726 0.448786 -0.615307
O25   O     O_2   0.775609 0.368079 0.177685 -0.585713
O26   O     O_2   0.778461 0.632598 0.659834 -0.587060
O27   O     O_2   0.275578 0.868077 0.177937 -0.585656
O28   O     O_2   0.278434 0.132588 0.660029 -0.587020
O29   O     O_2   0.878396 0.272620 0.219317 -0.558349
O30   O     O_2   0.878190 0.729430 0.739770 -0.578655
O31   O     O_2   0.378416 0.772646 0.218941 -0.556425
O32   O     O_2   0.378186 0.229420 0.739590 -0.578730
O33   O     O_3   0.950020 0.480960 0.143730 -0.498047
O34   O     O_3   0.950020 0.519040 0.643730 -0.497189
O35   O     O_3   0.450020 0.980960 0.143730 -0.498043
O36   O     O_3   0.450020 0.019040 0.643730 -0.497178
O37   O     O_3   0.985090 0.412220 0.642040 -0.459085
O38   O     O_3   0.985090 0.587780 0.142040 -0.500077
O39   O     O_3   0.485090 0.912220 0.642040 -0.459030
O40   O     O_3   0.485090 0.087780 0.142040 -0.500077
O41   O     O_2   0.911222 0.380577 0.760835 -0.514955
O42   O     O_2   0.910075 0.617466 0.255275 -0.511666
O43   O     O_2   0.411236 0.880551 0.760871 -0.514896
O44   O     O_2   0.410078 0.117472 0.255288 -0.511674
O45   O     O_3   0.861564 0.486850 0.082911 -0.617374
O46   O     O_3   0.861262 0.513484 0.583961 -0.615941
O47   O     O_3   0.361565 0.986851 0.082907 -0.617390
O48   O     O_3   0.361262 0.013485 0.583960 -0.615945
O49   O     O_3   0.968357 0.330092 0.653936 -0.660539
O50   O     O_3   0.968378 0.669489 0.173458 -0.652024
O51   O     O_3   0.468350 0.830084 0.653675 -0.660593
O52   O     O_3   0.468378 0.169493 0.173400 -0.652076
O53   O     O_2   0.085560 0.445380 0.786390 -0.464941
O54   O     O_2   0.085560 0.554620 0.286390 -0.472510
O55   O     O_2   0.585560 0.945380 0.786390 -0.465013
O56   O     O_2   0.585560 0.054620 0.286390 -0.472679
O57   O     O_3   0.014550 0.412170 0.047860 -0.482066
O58   O     O_3   0.014550 0.587830 0.547860 -0.495164
O59   O     O_3   0.514550 0.912170 0.047860 -0.482019
O60   O     O_3   0.514550 0.087830 0.547860 -0.495148
O61   O     O_2   0.092150 0.381790 0.959928 -0.438208
O62   O     O_2   0.093024 0.616630 0.464010 -0.435344
O63   O     O_2   0.592148 0.881782 0.959904 -0.438438
O64   O     O_2   0.593027 0.116627 0.463993 -0.435452
P1    P     P_3+3 0.909970 0.458430 0.077330 1.049485
P2    P     P_3+3 0.909970 0.541570 0.577330 1.050547
P3    P     P_3+3 0.409970 0.958430 0.077330 1.049492
P4    P     P_3+3 0.409970 0.041570 0.577330 1.050537
P5    P     P_3+3 0.089830 0.458070 0.612460 0.994207
P6    P     P_3+3 0.089830 0.541930 0.112460 0.981118
P7    P     P_3+3 0.589830 0.958070 0.612460 0.994136
P8    P     P_3+3 0.589830 0.041930 0.112460 0.981118
P9    P     P_3+3 0.053680 0.374579 0.075796 1.018206
P10   P     P_3+3 0.053660 0.625400 0.574060 1.029338
P11   P     P_3+3 0.553689 0.874587 0.075833 1.017843
P12   P     P_3+3 0.553665 0.125396 0.574056 1.029234
P13   P     P_3+3 0.944528 0.624183 0.124702 0.922107
P14   P     P_3+3 0.943958 0.376124 0.623152 0.936992
P15   P     P_3+3 0.444527 0.124184 0.124694 0.922079
P16   P     P_3+3 0.443954 0.876126 0.623114 0.936968
O65   O     O_3   0.043657 0.338890 0.636256 -0.769660
H49   H     H_    0.045164 0.324392 0.736339 0.328627
O66   O     O_3   0.044198 0.668134 0.178827 -0.733669
H50   H     H_    0.043779 0.639533 0.201894 0.312773
O67   O     O_3   0.543636 0.838977 0.635893 -0.769950
H51   H     H_    0.545108 0.824574 0.736208 0.328416
O68   O     O_3   0.544198 0.168133 0.178807 -0.733765
H52   H     H_    0.543772 0.139535 0.201930 0.312797
H53   H     H_    0.192168 0.502647 0.340763 0.057017
H54   H     H_    0.193038 0.497231 0.838709 0.052073
H55   H     H_    0.692149 0.002668 0.340841 0.056977
H56   H     H_    0.692999 0.997197 0.838924 0.052297
O69   O     O_3   0.185616 0.442592 0.367475 -0.735551
H57   H     H_    0.214190 0.444102 0.423443 0.359504
O70   O     O_3   0.185907 0.557087 0.870025 -0.724453
H58   H     H_    0.214651 0.555538 0.925051 0.357951
O71   O     O_3   0.685626 0.942609 0.367515 -0.735574
H59   H     H_    0.714186 0.944133 0.423542 0.359549
O72   O     O_3   0.685936 0.057061 0.870089 -0.724642
H60   H     H_    0.714686 0.055569 0.924838 0.358265
O73   O     O_3   0.214334 0.472615 0.148400 -0.702074
H61   H     H_    0.209502 0.446587 0.098222 0.344459
O74   O     O_3   0.213961 0.528386 0.647262 -0.701857
H62   H     H_    0.208556 0.554557 0.599134 0.345525
O75   O     O_3   0.714350 0.972652 0.148495 -0.701983
H63   H     H_    0.709538 0.946624 0.098300 0.344446
O76   O     O_3   0.713985 0.028302 0.647445 -0.701938
H64   H     H_    0.708616 0.054469 0.599238 0.345487
O77   O     O_3   0.859713 0.532680 0.888784 -0.784309
H65   H     H_    0.829455 0.522737 0.868354 0.314831
O78   O     O_3   0.857925 0.468089 0.388320 -0.784248
H66   H     H_    0.827731 0.478396 0.370256 0.314839
O79   O     O_3   0.359710 0.032680 0.888779 -0.784314
H67   H     H_    0.329452 0.022737 0.868357 0.314842
O80   O     O_3   0.357916 0.968091 0.388317 -0.784241
H68   H     H_    0.327722 0.978400 0.370268 0.314846
H69   H     H_    0.902655 0.536777 0.072949 0.038693
H70   H     H_    0.901988 0.463535 0.569160 0.028523
H71   H     H_    0.402657 0.036778 0.072931 0.038672
H72   H     H_    0.401987 0.963536 0.569133 0.028469
H73   H     H_    0.802147 0.543395 0.118028 0.101676
H74   H     H_    0.801765 0.456306 0.619650 0.103309
H75   H     H_    0.302149 0.043398 0.118029 0.101703
H76   H     H_    0.301767 0.956301 0.619658 0.103340
O81   O     O_3   0.023250 0.258081 0.629093 -0.715249
H77   H     H_    0.055831 0.259256 0.637202 0.325225
O82   O     O_3   0.018366 0.744875 0.155516 -0.681716
H78   H     H_    0.050688 0.743972 0.172701 0.345879
O83   O     O_3   0.523407 0.758146 0.628904 -0.715908
H79   H     H_    0.555981 0.759445 0.637107 0.325140
O84   O     O_3   0.518387 0.244874 0.155360 -0.681835
H80   H     H_    0.550710 0.243969 0.172526 0.345821
H81   H     H_    0.929789 0.291846 0.967509 0.046899
H82   H     H_    0.932049 0.713742 0.515740 0.028252
H83   H     H_    0.429886 0.791775 0.966690 0.049579
H84   H     H_    0.432038 0.213705 0.515466 0.028064
H85   H     H_    0.853124 0.203924 0.173384 0.158614
H86   H     H_    0.851967 0.797995 0.703927 0.160926
H87   H     H_    0.353158 0.703948 0.172895 0.159118
H88   H     H_    0.351970 0.297984 0.703623 0.160876
O85   O     O_3   0.301972 0.645870 0.120375 -0.660051
H89   H     H_    0.279456 0.631591 0.182481 0.339653
O86   O     O_3   0.300243 0.355661 0.653527 -0.657929
H90   H     H_    0.276413 0.368564 0.714005 0.338471
O87   O     O_3   0.801927 0.145852 0.120890 -0.660039
H91   H     H_    0.779389 0.131592 0.182962 0.339648
O88   O     O_3   0.800238 0.855673 0.653859 -0.657884
H92   H     H_    0.776396 0.868563 0.714321 0.338475
H93   H     H_    0.143833 0.613029 0.158696 0.102227
H94   H     H_    0.143086 0.386462 0.662871 0.094207
H95   H     H_    0.643814 0.113038 0.158746 0.102319
H96   H     H_    0.643089 0.886461 0.662907 0.094232
O89   O     O_3   0.971331 0.268754 0.439267 -0.667118
H97   H     H_    0.950268 0.264332 0.526499 0.342198
O90   O     O_3   0.968755 0.729963 0.961559 -0.710844
H98   H     H_    0.947011 0.734212 0.046763 0.342399
O91   O     O_3   0.471410 0.768703 0.439238 -0.666310
H99   H     H_    0.450382 0.764255 0.526558 0.342091
O92   O     O_3   0.468768 0.229952 0.961438 -0.710715
H100  H     H_    0.447027 0.234211 0.046639 0.342369
O93   O     O_3   0.968441 0.342107 0.163234 -0.800144
H101  H     H_    0.975520 0.320985 0.237883 0.335570
O94   O     O_3   0.977968 0.665319 0.696791 -0.797602
H102  H     H_    0.998202 0.683180 0.752709 0.305228
O95   O     O_3   0.468379 0.842118 0.162944 -0.799895
H103  H     H_    0.475258 0.820931 0.237666 0.336065
O96   O     O_3   0.477936 0.165283 0.696670 -0.797534
H104  H     H_    0.498155 0.183138 0.752683 0.305392
H105  H     H_    0.978800 0.281016 0.856951 0.104165
H106  H     H_    0.973099 0.718714 0.369536 0.142357
H107  H     H_    0.479036 0.781042 0.856731 0.101978
H108  H     H_    0.473160 0.218726 0.369520 0.142356
O97   O     O_3   0.979065 0.261199 0.081995 -0.647642
H109  H     H_    0.962309 0.236924 0.054674 0.340674
O98   O     O_3   0.990387 0.742513 0.578135 -0.668296
H110  H     H_    0.969993 0.751913 0.660855 0.367521
O99   O     O_3   0.478994 0.761191 0.081918 -0.647832
H111  H     H_    0.463840 0.736503 0.050370 0.339950
O100  O     O_3   0.490334 0.242490 0.578306 -0.668375
H112  H     H_    0.469851 0.251952 0.660618 0.367614
H113  H     H_    0.114421 0.486331 0.308351 -0.063615
H114  H     H_    0.115006 0.512750 0.811944 -0.055225
H115  H     H_    0.614413 0.986323 0.308316 -0.063752
H116  H     H_    0.614988 0.012754 0.811937 -0.055122
O101  O     O_3   0.124081 0.447719 0.126422 -0.742051
H117  H     H_    0.093088 0.452316 0.095199 0.305581
O102  O     O_3   0.123275 0.552315 0.632659 -0.736007
H118  H     H_    0.092196 0.547472 0.602840 0.305018
O103  O     O_3   0.624113 0.947717 0.126397 -0.742114
H119  H     H_    0.593125 0.952306 0.095100 0.305600
O104  O     O_3   0.623318 0.052330 0.632743 -0.736131
H120  H     H_    0.592273 0.047475 0.602536 0.305197

loop_
_geom_bond_atom_site_label_1
_geom_bond_atom_site_label_2
_ccdc_geom_bond_type
C128  H4    S    
O93   H101  S    
C51   C55   A    
C126  H6    S    
C76   P7    S    
O41   P14   D    
C38   C54   A    
O85   H89   S    
C89   O97   S    
O75   H63   S    
C94   C134  S    
C130  O66   S    
C68   H32   S    
C2    O82   S    
C119  O75   S    
C81   N1    S    
C70   C110  A    
C129  O65   S    
C9    O17   D    
C5    C9    A    
C113  H113  S    
Ba2   O33   S    
Ba3   O39   S    
C7    C11   A    
C76   C112  A    
Ba1   O37   S    
C66   C70   A    
C98   P2    S    
C120  O72   S    
C125  H5    S    
C43   C49   A    
O45   P1    S    
O39   P16   S    
O5    P5    S    
C73   C109  A    
Ba2   O58   S    
C132  H12   S    
O8    P8    S    
O13   P6    S    
C123  O79   S    
C96   P15   S    
O82   H78   S    
Ba4   O56   S    
C11   O19   D    
C2    O90   S    
C97   C133  D    
C134  H38   S    
C13   C17   A    
C100  C136  D    
C28   C30   A    
C15   C19   A    
C59   O27   D    
C74   C78   A    
C92   O100  S    
O76   H64   S    
C7    C23   A    
C95   P16   S    
C115  O103  S    
C61   O29   D    
Ba4   O15   S    
C92   H84   S    
O10   P10   S    
C45   O93   S    
O101  H117  S    
C124  O48   S    
C71   C111  A    
C58   N6    Am   
O102  H118  S    
O55   P7    D    
C122  H70   S    
C127  H3    S    
C26   O86   S    
C11   N3    Am   
C14   N2    Am   
C115  O8    S    
C80   C84   S    
O100  H112  S    
C64   O32   D    
C53   C57   A    
C44   H24   S    
C115  C119  S    
C25   C31   A    
C55   C59   A    
C26   C32   A    
C56   C60   A    
C77   H93   S    
C122  O78   S    
Ba2   P2    S    
O37   P14   S    
C136  H40   S    
C123  C127  S    
C135  H39   S    
C14   O22   D    
C121  C125  S    
O81   H77   S    
C89   H105  S    
O94   H102  S    
C99   C103  A    
C100  P4    S    
C45   C89   S    
C130  O50   S    
C15   N3    Am   
C123  H71   S    
C25   O85   S    
O89   H97   S    
C75   C111  A    
O90   H98   S    
C21   C39   A    
C22   C40   A    
C1    C129  S    
C60   O28   D    
C103  H35   S    
C87   H27   S    
Ba3   O55   S    
Ba1   O53   S    
C71   P12   S    
Ba2   P6    S    
C72   P11   S    
C73   P6    S    
C118  O74   S    
C114  C118  S    
O53   P5    D    
C41   H21   S    
C109  H41   S    
O12   P12   S    
C33   C61   A    
C122  O46   S    
C105  N5    S    
O42   P13   D    
C78   H94   S    
C39   C55   A    
C78   C82   S    
C91   H107  S    
O65   H49   S    
C30   H86   S    
Ba4   O40   S    
C95   C135  S    
O47   P3    S    
C93   C133  S    
Ba2   O38   S    
O69   H57   S    
C17   C41   A    
Ba3   O15   S    
C82   N2    S    
C19   C43   A    
Ba1   O13   S    
C20   C44   A    
C131  O51   S    
C123  O47   S    
O52   P15   S    
C6    C10   A    
C46   C90   S    
C116  H116  S    
O49   P14   S    
C3    O91   S    
O71   H59   S    
O6    P6    S    
C117  O73   S    
C63   O31   D    
O96   H104  S    
C75   P8    S    
O46   P2    S    
C65   H29   S    
C92   H108  S    
C46   O10   S    
C4    O92   S    
C18   C22   A    
C67   H31   S    
O61   P9    D    
Ba4   O60   S    
Ba3   Ba4   S    
C46   H46   S    
C57   N5    Am   
C65   C81   A    
O92   H100  S    
C17   C21   A    
Ba2   O13   S    
O36   P4    S    
C14   C18   A    
C103  C107  A    
Ba1   O1    S    
C20   C24   A    
O33   P1    S    
O44   P15   D    
C46   O94   S    
C120  O76   S    
O35   P3    S    
C60   N8    Am   
C58   O26   D    
C121  O77   S    
C126  H2    S    
C91   H83   S    
C10   N2    Am   
Ba4   O4    S    
C45   H45   S    
C41   C51   A    
C1    O81   S    
C32   H88   S    
C42   C52   A    
O68   H52   S    
C48   H48   S    
C87   C95   S    
C28   O88   S    
C77   C81   S    
C113  O6    S    
C107  N7    S    
C119  O71   S    
C54   C58   A    
C79   C83   S    
O34   P2    S    
C127  H75   S    
C4    C132  S    
C128  H76   S    
C76   C80   A    
O91   H99   S    
C5    C21   A    
O38   P13   S    
C8    C24   A    
C69   P10   S    
C50   C54   A    
C125  H1    S    
C122  C126  S    
O98   H110  S    
C69   C109  A    
C132  O52   S    
C12   O20   D    
C108  N8    S    
C4    O84   S    
O1    P1    D    
C62   N6    Am   
Ba1   O34   S    
O56   P8    D    
O57   P9    S    
C47   C91   S    
C3    O83   S    
C1    O89   S    
C90   O98   S    
C65   C69   A    
O48   P4    S    
C115  H115  S    
C93   P14   S    
C68   C72   A    
C43   H23   S    
C51   H19   S    
C30   C34   A    
C86   H26   S    
C74   C110  A    
C8    C12   A    
Ba1   O57   S    
C61   N5    Am   
Ba3   P7    S    
O78   H66   S    
C74   P5    S    
O54   P6    D    
O72   H60   S    
C49   C53   A    
C88   C108  D    
C110  H42   S    
C29   C33   A    
C104  C108  A    
O64   P12   D    
C31   C35   A    
O74   H62   S    
Ba4   O35   S    
C89   H81   S    
O86   H90   S    
C73   C77   A    
C62   O30   D    
C102  H34   S    
C64   N8    Am   
C117  H53   S    
C91   O99   S    
C2    H14   S    
C119  H55   S    
C67   C83   A    
C120  H56   S    
C18   C42   A    
C45   O9    S    
O14   P5    S    
C59   N7    Am   
Ba4   P4    S    
C100  C104  A    
C83   N3    S    
O103  H119  S    
C114  H114  S    
C84   N4    S    
O50   P13   S    
C118  O70   S    
C16   N4    Am   
C111  H43   S    
O11   P11   S    
O63   P11   D    
Ba4   P8    S    
O40   P15   S    
C66   H30   S    
O66   H50   S    
C37   C53   A    
O84   H80   S    
O7    P7    S    
C75   C79   A    
C10   O18   D    
C101  C105  A    
C40   C56   A    
C131  H11   S    
C104  H36   S    
C47   O11   S    
O83   H79   S    
O62   P10   D    
C57   O25   D    
C47   H47   S    
C52   C56   A    
C3    H15   S    
C52   H20   S    
O77   H65   S    
C36   C64   A    
O51   P16   S    
C125  H73   S    
O88   H92   S    
C90   H82   S    
C97   P1    S    
O73   H61   S    
C131  O67   S    
C47   O95   S    
O59   P11   S    
O79   H67   S    
C44   C50   A    
O60   P12   S    
Ba2   O2    S    
C34   C38   A    
Ba2   O54   S    
O3    P3    D    
O4    P4    D    
C114  O102  S    
C130  H10   S    
C85   C105  D    
C9    N1    Am   
Ba1   Ba2   S    
C98   C134  D    
C87   C107  D    
C132  O68   S    
C6    C26   A    
C113  C117  S    
C96   C136  S    
C126  H74   S    
O16   P7    S    
C106  N6    S    
Ba3   O3    S    
C27   C29   A    
C121  O45   S    
C19   C23   A    
C12   N4    Am   
C5    C25   A    
C6    C22   A    
O70   H58   S    
C7    C27   A    
C112  H44   S    
O43   P16   D    
C8    C28   A    
C33   C37   A    
C16   O24   D    
C29   H85   S    
C63   N7    Am   
C124  C128  S    
C31   H87   S    
C68   C84   A    
C70   P9    S    
C97   C101  A    
O9    P9    S    
Ba2   O14   S    
C128  H8    S    
C16   C20   A    
C32   C36   A    
C129  H9    S    
C121  H69   S    
O2    P2    D    
C35   C39   A    
C80   H96   S    
O80   H68   S    
C13   N1    Am   
O67   H51   S    
C124  H72   S    
C113  O101  S    
O58   P10   S    
C85   C93   S    
C124  O80   S    
C3    C131  S    
C27   O87   S    
C94   P13   S    
C99   C135  D    
C50   H18   S    
C116  O104  S    
C23   C37   A    
C36   C40   A    
Ba1   P5    S    
C127  H7    S    
C85   H25   S    
Ba1   P1    S    
Ba3   P3    S    
C114  O5    S    
C15   O23   D    
C86   C106  D    
C66   C82   A    
C79   H95   S    
C88   C96   S    
O97   H109  S    
C102  C106  A    
Ba3   O16   S    
C34   C62   A    
C99   P3    S    
Ba1   O14   S    
C48   O12   S    
C35   C63   A    
C48   O96   S    
Ba3   O36   S    
O95   H103  S    
C49   H17   S    
Ba4   O16   S    
C117  O69   S    
C118  H54   S    
C2    C130  S    
O99   H111  S    
C13   O21   D    
C67   C71   A    
C1    H13   S    
C24   C38   A    
O15   P8    S    
C72   C112  A    
C86   C94   S    
C48   C92   S    
C4    H16   S    
Ba3   O59   S    
C88   H28   S    
C116  C120  S    
C133  H37   S    
C42   H22   S    
C98   C102  A    
C129  O49   S    
C116  O7    S    
O87   H91   S    
C101  H33   S    
C90   H106  S    
O104  H120  S    
