data_mof_unit_68263.cif
_audit_creation_date              2012-12-10T17:22:42-0500
_audit_creation_method            fapswitch 2.2
_symmetry_space_group_name_H-M    P1
_symmetry_Int_Tables_number       1
_space_group_crystal_system       triclinic
_cell_length_a                    10.845327
_cell_length_b                    10.877709
_cell_length_c                    9.704435
_cell_angle_alpha                 88.861409
_cell_angle_beta                  91.170513
_cell_angle_gamma                 88.307992
_cell_volume                      1143.87652807

loop_
_atom_site_label
_atom_site_type_symbol
_atom_type_description
_atom_site_fract_x
_atom_site_fract_y
_atom_site_fract_z
_atom_type_partial_charge
C1    C     C_R   0.489480 0.261203 0.502153 0.789109
C2    C     C_3   0.956046 0.545092 0.373104 -0.259140
C3    C     C_3   0.051280 0.439646 0.408250 -0.326987
C4    C     C_3   0.124268 0.525770 0.498820 -0.093182
C5    C     C_R   0.473452 0.088690 0.765922 0.323146
C6    C     C_R   0.425511 0.027533 0.881387 0.355949
C7    C     C_R   0.357308 0.921507 0.863731 0.311846
C8    C     C_R   0.357638 0.867633 0.732620 -0.358848
C9    C     C_R   0.411862 0.927990 0.620173 -0.003414
C10   C     C_R   0.443402 0.052347 0.630844 -0.097765
C11   C     C_R   0.460744 0.125339 0.506975 -0.110926
C12   C     C_R   0.260857 0.514091 0.498845 0.809985
C13   C     C_R   0.437776 0.066749 0.381438 -0.208935
C14   C     C_R   0.434480 0.938409 0.376234 -0.216338
C15   C     C_R   0.438116 0.867512 0.497439 -0.040863
C16   C     C_R   0.660053 0.655016 0.142217 -0.230268
C17   C     C_R   0.738422 0.730417 0.071292 -0.388333
C18   C     C_R   0.743770 0.726296 0.928264 0.434498
C19   C     C_R   0.663486 0.651195 0.858733 -0.218142
C20   C     C_R   0.581699 0.572715 0.926152 0.096464
C21   C     C_R   0.581310 0.573169 0.074737 0.208270
C22   C     C_R   0.424062 0.428963 0.073121 -0.117100
C23   C     C_R   0.477740 0.735282 0.498475 0.775293
C24   C     C_R   0.424802 0.428332 0.926062 0.009062
C25   C     C_R   0.741887 0.500364 0.500995 0.801327
C26   C     C_3   0.051099 0.493019 0.627489 0.381138
C27   C     C_3   0.981009 0.401691 0.537933 0.399647
C28   C     C_3   0.881838 0.505421 0.502425 -0.165102
C29   C     C_3   0.956032 0.598075 0.591704 -0.364634
C30   C     C_3   0.032008 0.631329 0.464011 0.474018
Cu1   Cu    Cu3+1 0.499990 0.499990 0.640660 0.944247
Cu2   Cu    Cu3+1 0.500010 0.500010 0.359340 0.912088
H1    H     H_    0.312416 0.782203 0.714405 0.196499
H2    H     H_    0.430027 0.894135 0.278451 0.178056
H3    H     H_    0.361091 0.370493 0.126912 0.141022
H4    H     H_    0.663106 0.668572 0.249646 0.230949
H5    H     H_    0.790718 0.795709 0.129021 0.133107
H6    H     H_    0.668437 0.660839 0.750716 0.229931
H7    H     H_    0.363861 0.368311 0.871531 0.150843
H8    H     H_    0.909440 0.661184 0.662930 0.200711
H9    H     H_    0.916389 0.570020 0.269955 0.166370
H10   H     H_    0.096088 0.378020 0.333429 0.145126
H11   H     H_    0.430357 0.118808 0.285897 0.205070
N1    N     N_R   0.501210 0.501210 0.147910 -0.195640
N2    N     N_R   0.501250 0.501290 0.852040 -0.202951
O1    O     O_R   0.499990 0.319640 0.618810 -0.530339
O2    O     O_R   0.500000 0.319660 0.381240 -0.595780
O3    O     O_R   0.316850 0.499960 0.618770 -0.554046
O4    O     O_R   0.316860 0.499980 0.381190 -0.598634
O5    O     O_R   0.500000 0.680340 0.618760 -0.603496
O6    O     O_R   0.500010 0.680360 0.381190 -0.615858
O7    O     O_R   0.683140 0.500020 0.618810 -0.616835
O8    O     O_R   0.683150 0.500040 0.381230 -0.584483
O9    O     O_3   0.972325 0.275075 0.570138 -0.607975
C31   C     C_3   0.092278 0.218444 0.567545 0.054486
H12   H     H_    0.165422 0.275348 0.613890 0.149461
H13   H     H_    0.117422 0.198773 0.459900 0.163877
C32   C     C_3   0.095408 0.098003 0.647060 -0.875497
H14   H     H_    0.022576 0.039770 0.604479 0.259872
H15   H     H_    0.185802 0.050504 0.634840 0.232725
H16   H     H_    0.082223 0.113879 0.758427 0.236784
O10   O     O_3   0.292453 0.876513 0.975702 -0.579849
C33   C     C_3   0.306066 0.747555 0.991177 0.044128
H17   H     H_    0.404757 0.721934 0.000610 0.156532
H18   H     H_    0.262717 0.698525 0.904693 0.171483
C34   C     C_3   0.242814 0.704637 0.121191 -0.726622
H19   H     H_    0.144458 0.734680 0.117183 0.223033
H20   H     H_    0.246514 0.602859 0.128977 0.219385
H21   H     H_    0.288528 0.741826 0.213946 0.257849
O11   O     O_3   0.815768 0.801840 0.847981 -0.631036
C35   C     C_3   0.926591 0.835904 0.913480 0.033228
H22   H     H_    0.958652 0.773073 0.999293 0.141203
H23   H     H_    0.913422 0.930246 0.952577 0.148452
C36   C     C_3   0.027749 0.835644 0.808024 -0.782007
H24   H     H_    0.989238 0.861708 0.704728 0.258611
H25   H     H_    0.098454 0.901521 0.837907 0.256616
H26   H     H_    0.071165 0.742484 0.802045 0.256307
O12   O     O_3   0.120645 0.491869 0.753478 -0.614523
C37   C     C_3   0.076055 0.414880 0.857759 0.037918
H27   H     H_    0.154096 0.393274 0.930709 0.149419
H28   H     H_    0.050127 0.324377 0.819269 0.162624
C38   C     C_3   0.976181 0.481376 0.940114 -0.358179
H29   H     H_    0.016533 0.562164 0.990248 0.220787
H30   H     H_    0.899788 0.515522 0.870676 0.229422
C39   C     C_3   0.925593 0.396674 0.051353 -0.938182
H31   H     H_    0.896863 0.308148 0.009010 0.259343
H32   H     H_    0.844407 0.441514 0.099307 0.273999
H33   H     H_    0.997994 0.375667 0.130602 0.259752
O13   O     O_3   0.085832 0.745117 0.434838 -0.622299
C40   C     C_3   0.002969 0.827155 0.364855 0.025438
H34   H     H_    0.926970 0.854814 0.434245 0.147231
H35   H     H_    0.964539 0.785365 0.270455 0.120544
C41   C     C_3   0.075318 0.940234 0.321780 -0.311565
H36   H     H_    0.128108 0.973649 0.411454 0.240692
H37   H     H_    0.144143 0.914788 0.243741 0.246468
C42   C     C_3   0.992459 0.044031 0.261783 -0.930005
H38   H     H_    0.954098 0.015935 0.161482 0.235774
H39   H     H_    0.047594 0.126814 0.242842 0.256141
H40   H     H_    0.916972 0.067781 0.333143 0.273351
O14   O     O_3   0.575917 0.155337 0.790009 -0.555578
C43   C     C_3   0.680172 0.091601 0.736972 0.071888
H41   H     H_    0.681246 0.099397 0.622520 0.134218
H42   H     H_    0.684995 0.991832 0.762866 0.136833
C44   C     C_3   0.793326 0.151603 0.791691 -0.411836
H43   H     H_    0.807361 0.133190 0.903450 0.194089
H44   H     H_    0.873165 0.112633 0.738738 0.228093
C45   C     C_3   0.777367 0.287721 0.759189 -0.565460
H45   H     H_    0.751967 0.297269 0.648685 0.263370
H46   H     H_    0.861952 0.335065 0.775130 0.223613
H47   H     H_    0.706217 0.332576 0.823291 0.265962
O15   O     O_3   0.463338 0.060666 0.012495 -0.572223
C46   C     C_3   0.570131 0.988327 0.051741 0.156557
H48   H     H_    0.624860 0.957109 0.963837 0.116347
H49   H     H_    0.542305 0.901826 0.101898 0.116829
C47   C     C_3   0.658811 0.055989 0.147802 -0.411285
H50   H     H_    0.645773 0.027441 0.256454 0.198443
H51   H     H_    0.753939 0.026161 0.123557 0.162863
C48   C     C_3   0.649607 0.196116 0.134942 -0.646822
H52   H     H_    0.667606 0.228568 0.029343 0.262338
H53   H     H_    0.717167 0.237135 0.206815 0.223624
H54   H     H_    0.556311 0.229678 0.160055 0.277210

loop_
_geom_bond_atom_site_label_1
_geom_bond_atom_site_label_2
_ccdc_geom_bond_type
C18   O11   S    
C34   H20   S    
C31   H12   S    
C33   H18   S    
C3    H10   S    
C16   C21   A    
C6    O15   S    
C19   C20   A    
C1    C11   S    
Cu1   O7    S    
C12   O3    A    
C44   H44   S    
C12   O4    A    
C27   O9    S    
C7    C8    A    
Cu2   O6    S    
C39   H31   S    
C25   C28   S    
C22   H3    S    
C26   C27   S    
C26   O12   S    
C36   H25   S    
C24   N2    A    
C28   C29   S    
C25   O8    A    
C5    C6    A    
C1    O1    A    
C34   H21   S    
C2    H9    S    
C32   H15   S    
C47   H50   S    
C42   H40   S    
C24   H7    S    
C8    C9    A    
C18   C19   A    
C48   H52   S    
C46   H48   S    
C40   H35   S    
C22   N1    A    
O15   C46   S    
C16   C17   A    
C47   H51   S    
C36   H26   S    
C42   H39   S    
C45   H45   S    
O11   C35   S    
C4    C12   S    
C9    C10   A    
C20   N2    A    
C32   H16   S    
C15   C23   S    
C34   H19   S    
C33   C34   S    
C43   H42   S    
C13   C14   A    
C45   H46   S    
C30   O13   S    
C46   H49   S    
C44   H43   S    
C39   H32   S    
C36   H24   S    
C43   H41   S    
C35   H23   S    
O12   C37   S    
C1    O2    A    
C23   O5    A    
C32   H14   S    
Cu1   O1    S    
C37   H27   S    
C48   H54   S    
C7    O10   S    
C29   C30   S    
C19   H6    S    
C35   C36   S    
C21   N1    A    
C23   O6    A    
Cu1   Cu2   S    
C5    O14   S    
C47   C48   S    
C42   H38   S    
O10   C33   S    
C17   C18   A    
Cu2   N1    S    
C41   H36   S    
C17   H5    S    
C41   C42   S    
C38   H30   S    
Cu1   O3    S    
C31   H13   S    
C45   H47   S    
C22   C24   A    
Cu1   O5    S    
C3    C4    S    
Cu2   O8    S    
C13   H11   S    
C40   C41   S    
C37   H28   S    
C39   H33   S    
O9    C31   S    
C14   H2    S    
C37   C38   S    
C4    C26   S    
C6    C7    A    
C43   C44   S    
C38   C39   S    
C2    C30   S    
C3    C27   S    
C2    C3    S    
C9    C15   A    
C25   O7    A    
C5    C10   A    
C16   H4    S    
C11   C13   A    
C40   H34   S    
C29   H8    S    
O14   C43   S    
Cu2   O2    S    
C8    H1    S    
C46   C47   S    
C48   H53   S    
Cu2   O4    S    
C10   C11   A    
C33   H17   S    
C35   H22   S    
C20   C21   A    
C26   C29   S    
C41   H37   S    
C38   H29   S    
Cu1   N2    S    
C31   C32   S    
C27   C28   S    
C14   C15   A    
C2    C28   S    
O13   C40   S    
C44   C45   S    
C4    C30   S    
