data_mof_unit_51048.cif
_audit_creation_date              2012-12-10T17:56:47-0500
_audit_creation_method            fapswitch 2.2
_symmetry_space_group_name_H-M    P1
_symmetry_Int_Tables_number       1
_space_group_crystal_system       triclinic
_cell_length_a                    10.821399
_cell_length_b                    9.526108
_cell_length_c                    10.793053
_cell_angle_alpha                 89.535916
_cell_angle_beta                  90.163835
_cell_angle_gamma                 89.999823
_cell_volume                      1112.56962515

loop_
_atom_site_label
_atom_site_type_symbol
_atom_type_description
_atom_site_fract_x
_atom_site_fract_y
_atom_site_fract_z
_atom_type_partial_charge
C1    C     C_R   0.262089 0.499962 0.499850 0.914080
C2    C     C_R   0.737902 0.499958 0.500113 0.747633
C3    C     C_R   0.936094 0.627532 0.501078 -0.192654
C4    C     C_R   0.063866 0.627535 0.500912 -0.157069
C5    C     C_R   0.421128 0.075071 0.425060 -0.015269
C6    C     C_R   0.578851 0.073725 0.574960 -0.011639
C7    C     C_R   0.421143 0.926281 0.425044 -0.018854
C8    C     C_R   0.578868 0.924936 0.574944 -0.018763
C9    C     C_R   0.499242 0.500722 0.262738 0.869929
C10   C     C_R   0.499172 0.499336 0.737259 0.868967
C11   C     C_R   0.727993 0.502770 0.129620 -0.149164
C12   C     C_R   0.727936 0.497789 0.871552 -0.162931
C13   C     C_R   0.839515 0.501616 0.065273 -0.129560
C14   C     C_R   0.839485 0.499175 0.936479 -0.130800
C15   C     C_R   0.613534 0.498820 0.935067 0.055726
C16   C     C_R   0.613560 0.501508 0.065523 0.058785
C17   C     C_R   0.499579 0.503108 0.128872 -0.125523
C18   C     C_R   0.499535 0.496980 0.871133 -0.125249
C19   C     C_R   0.385619 0.502861 0.064667 -0.070191
C20   C     C_R   0.385603 0.497051 0.934759 -0.067108
C21   C     C_R   0.063860 0.372410 0.498763 -0.156261
C22   C     C_R   0.936090 0.372406 0.498959 -0.192898
C23   C     C_R   0.871740 0.499966 0.500088 -0.022971
C24   C     C_R   0.128216 0.499972 0.499797 0.023070
Cu1   Cu    Cu3+1 0.500000 0.640660 0.500000 0.971220
Cu2   Cu    Cu3+1 0.500000 0.359340 0.500000 0.974253
H1    H     H_    0.732485 0.504998 0.229682 0.119563
H2    H     H_    0.732382 0.495568 0.771504 0.115390
H3    H     H_    0.926230 0.502706 0.115574 0.144449
H4    H     H_    0.926176 0.498262 0.886631 0.144111
H5    H     H_    0.111941 0.272689 0.497844 0.151554
H6    H     H_    0.888013 0.272678 0.498183 0.153328
H7    H     H_    0.888017 0.727254 0.502012 0.153183
H8    H     H_    0.111954 0.727256 0.501678 0.151026
H9    H     H_    0.357926 0.131640 0.364993 0.120922
H10   H     H_    0.642011 0.129221 0.635052 0.120027
H11   H     H_    0.357979 0.870780 0.364957 0.147596
H12   H     H_    0.642066 0.868364 0.635015 0.121827
N1    N     N_R   0.500000 0.852070 0.500000 -0.165110
N2    N     N_R   0.500000 0.147940 0.500000 -0.160121
O1    O     O_R   0.319640 0.618740 0.499990 -0.581891
O2    O     O_R   0.680360 0.618740 0.500010 -0.597659
O3    O     O_R   0.319620 0.381170 0.499990 -0.579433
O4    O     O_R   0.680380 0.381170 0.500010 -0.598371
O5    O     O_R   0.500000 0.618810 0.319650 -0.556958
O6    O     O_R   0.500000 0.618810 0.680350 -0.593774
O7    O     O_R   0.499970 0.381240 0.319640 -0.594683
O8    O     O_R   0.500030 0.381240 0.680360 -0.554953
C25   C     C_2   0.265621 0.503834 0.132366 0.289967
H13   H     H_    0.188460 0.441700 0.099157 0.067594
O9    O     O_2   0.250278 0.578059 0.222600 -0.567898
C26   C     C_2   0.265587 0.495865 0.866452 0.303084
H14   H     H_    0.188451 0.558136 0.899086 0.065215
O10   O     O_2   0.250196 0.421264 0.776389 -0.554744

loop_
_geom_bond_atom_site_label_1
_geom_bond_atom_site_label_2
_ccdc_geom_bond_type
Cu1   O2    S    
C10   O6    A    
C15   C18   A    
C6    H10   S    
C9    O5    A    
C8    N1    A    
Cu2   O8    S    
C11   C13   A    
C11   C16   A    
C19   C25   S    
C3    C23   A    
C19   C20   A    
C12   C15   A    
C11   H1    S    
C21   C22   A    
C26   O10   D    
C7    H11   S    
Cu2   O4    S    
C20   C26   S    
C13   C14   A    
Cu1   N1    S    
C21   H5    S    
Cu2   N2    S    
C22   H6    S    
Cu2   O7    S    
C2    O2    A    
C4    C24   A    
C5    H9    S    
C7    N1    A    
C1    O1    A    
C17   C19   A    
C12   C14   A    
Cu2   O3    S    
C9    O7    A    
C18   C20   A    
C8    H12   S    
C10   O8    A    
C10   C18   S    
C4    H8    S    
C21   C24   A    
C13   H3    S    
Cu1   O1    S    
C15   C16   A    
Cu1   O5    S    
C6    N2    A    
C26   H14   S    
C12   H2    S    
C1    C24   S    
C25   H13   S    
C5    N2    A    
C9    C17   S    
C2    C23   S    
C5    C7    A    
C3    H7    S    
C22   C23   A    
C6    C8    A    
Cu1   Cu2   S    
C14   H4    S    
Cu1   O6    S    
C1    O3    A    
C3    C4    A    
C2    O4    A    
C16   C17   A    
C25   O9    D    
