data_mof_unit_18814.cif
_audit_creation_date              2012-12-10T16:43:27-0500
_audit_creation_method            fapswitch 2.2
_symmetry_space_group_name_H-M    P1
_symmetry_Int_Tables_number       1
_space_group_crystal_system       triclinic
_cell_length_a                    10.737975
_cell_length_b                    8.721065
_cell_length_c                    7.475597
_cell_angle_alpha                 103.141054
_cell_angle_beta                  94.635112
_cell_angle_gamma                 92.934033
_cell_volume                      677.755077755

loop_
_atom_site_label
_atom_site_type_symbol
_atom_type_description
_atom_site_fract_x
_atom_site_fract_y
_atom_site_fract_z
_atom_type_partial_charge
C1    C     C_R   0.492618 0.200081 0.452928 0.821123
C2    C     C_R   0.502072 0.799980 0.546141 0.866327
C3    C     C_R   0.737425 0.506549 0.499408 0.777643
C4    C     C_R   0.154160 0.772641 0.733368 -0.169493
C5    C     C_R   0.100309 0.899166 0.841869 -0.136586
C6    C     C_R   0.970687 0.901007 0.838035 -0.134019
C7    C     C_R   0.894156 0.776338 0.725665 -0.179305
C8    C     C_R   0.946739 0.645494 0.616590 0.095369
C9    C     C_R   0.078401 0.643609 0.620507 0.091938
C10   C     C_R   0.129833 0.514864 0.505987 -0.090868
C11   C     C_R   0.053206 0.395182 0.384936 -0.203073
C12   C     C_R   0.924879 0.396967 0.381295 -0.198343
C13   C     C_R   0.871573 0.518470 0.498705 -0.090917
C14   C     C_2   0.479787 0.032009 0.423942 -0.025264
C15   C     C_2   0.504066 0.967558 0.568467 -0.376892
C16   C     C_R   0.262992 0.504535 0.502302 0.780629
Cu1   Cu    Cu3+1 0.513920 0.517380 0.684380 0.965402
Cu2   Cu    Cu3+1 0.486080 0.482620 0.315620 0.958620
H1    H     H_    0.093183 0.298184 0.295109 0.139804
H2    H     H_    0.352550 0.976205 0.198584 0.208729
H3    H     H_    0.393596 0.238679 0.943129 0.196536
H4    H     H_    0.289522 0.377366 0.967048 0.215999
H5    H     H_    0.598881 0.621932 0.051383 0.203806
H6    H     H_    0.255070 0.779009 0.736944 0.150074
H7    H     H_    0.159411 0.997134 0.927489 0.120342
H8    H     H_    0.929208 0.000415 0.920698 0.130815
H9    H     H_    0.866802 0.300724 0.290082 0.146768
H10   H     H_    0.530133 0.039938 0.706649 0.143958
H11   H     H_    0.794018 0.785475 0.722683 0.138992
H12   H     H_    0.503781 0.961219 0.151162 0.221392
N1    N     N_2   0.465100 0.456430 0.038520 -0.043046
N2    N     N_2   0.534900 0.543570 0.961480 -0.148741
N3    N     N_3   0.438922 0.939347 0.241088 -0.536294
N4    N     N_3   0.377085 0.350493 0.921874 -0.392360
O1    O     O_R   0.509050 0.286130 0.619770 -0.560878
O2    O     O_R   0.485540 0.256780 0.308360 -0.604690
O3    O     O_R   0.331410 0.514680 0.655740 -0.562495
O4    O     O_R   0.307900 0.485330 0.344330 -0.586820
O5    O     O_R   0.514460 0.743220 0.691640 -0.616329
O6    O     O_R   0.490950 0.713870 0.380230 -0.541070
O7    O     O_R   0.692100 0.514670 0.655670 -0.583894
O8    O     O_R   0.668590 0.485320 0.344260 -0.592884

loop_
_geom_bond_atom_site_label_1
_geom_bond_atom_site_label_2
_ccdc_geom_bond_type
C8    C9    A    
C11   C12   A    
C3    O8    A    
C6    C7    A    
C7    H11   S    
C9    C10   A    
N1    N2    D    
C3    C13   S    
C16   O3    A    
H5    N2    S    
C14   N3    S    
Cu1   Cu2   S    
Cu2   O4    S    
N1    N4    S    
C7    C8    A    
Cu1   O3    S    
C2    C15   S    
C11   H1    S    
C15   H10   S    
C8    C13   A    
C4    H6    S    
C5    H7    S    
H2    N3    S    
Cu2   N1    S    
Cu2   O8    S    
C5    C6    A    
H4    N4    S    
Cu1   O7    S    
C10   C11   A    
C12   H9    S    
C2    O6    A    
C12   C13   A    
C1    O1    A    
Cu1   O5    S    
Cu1   N2    S    
Cu2   O6    S    
C6    H8    S    
C3    O7    A    
C10   C16   S    
C1    C14   S    
Cu1   O1    S    
H12   N3    S    
C4    C9    A    
C14   C15   D    
Cu2   O2    S    
C2    O5    A    
H3    N4    S    
C1    O2    A    
C16   O4    A    
C4    C5    A    
