data_mof_unit_20080.cif
_audit_creation_date              2012-12-11T17:01:30-0500
_audit_creation_method            fapswitch 2.2
_symmetry_space_group_name_H-M    P1
_symmetry_Int_Tables_number       1
_space_group_crystal_system       triclinic
_cell_length_a                    15.094425
_cell_length_b                    14.917447
_cell_length_c                    14.907563
_cell_angle_alpha                 109.665546
_cell_angle_beta                  109.093508
_cell_angle_gamma                 109.908159
_cell_volume                      2575.79955391

loop_
_atom_site_label
_atom_site_type_symbol
_atom_type_description
_atom_site_fract_x
_atom_site_fract_y
_atom_site_fract_z
_atom_type_partial_charge
C1    C     C_R   0.005768 0.804703 0.098612 -0.156106
C2    C     C_R   0.210866 0.805643 0.300525 -0.136642
C3    C     C_R   0.961741 0.411916 0.227750 -0.131524
C4    C     C_R   0.779919 0.249625 0.685230 -0.103719
C5    C     C_R   0.296194 0.591416 0.990924 -0.060701
C6    C     C_R   0.041260 0.505413 0.329356 0.076645
C7    C     C_R   0.293929 0.500502 0.921023 -0.114499
C8    C     C_R   0.303699 0.867571 0.300865 0.095117
C9    C     C_R   0.039215 0.212528 0.040497 0.022484
C10   C     C_3   0.474147 0.391358 0.846464 -0.545648
C11   C     C_3   0.368422 0.381928 0.844199 0.387979
C12   C     C_R   0.676758 0.215632 0.671382 0.046338
C13   C     C_3   0.563815 0.512159 0.052826 -0.524049
C14   C     C_3   0.572937 0.596531 0.932020 -0.520207
C15   C     C_3   0.573242 0.499967 0.949875 0.314020
C16   C     C_R   0.093545 0.593856 0.792586 -0.129751
C17   C     C_3   0.394466 0.499992 0.926537 0.050088
C18   C     C_3   0.467499 0.528217 0.046510 0.510992
C19   C     C_3   0.458840 0.583535 0.897227 -0.187252
C20   C     C_R   0.576981 0.115842 0.468059 0.154309
C21   C     C_R   0.577385 0.160714 0.567142 0.041146
C22   C     C_R   0.476976 0.136269 0.563129 -0.198206
C23   C     C_R   0.062367 0.503954 0.697511 0.062506
C24   C     C_R   0.380970 0.046829 0.468034 -0.206239
C25   C     C_R   0.386451 0.983319 0.377935 0.032081
C26   C     C_R   0.482474 0.027978 0.374416 0.156408
C27   C     C_3   0.541641 0.974719 0.337156 -0.513916
C28   C     C_R   0.685346 0.408242 0.954818 -0.150303
C29   C     C_3   0.644932 0.070864 0.439565 -0.512588
C30   C     C_R   0.147971 0.610053 0.532577 0.154701
C31   C     C_R   0.091097 0.510165 0.433465 0.029629
C32   C     C_R   0.069603 0.412659 0.437581 -0.195409
C33   C     C_R   0.075397 0.412040 0.532774 -0.222056
C34   C     C_R   0.674328 0.499674 0.969330 0.085612
C35   C     C_R   0.102826 0.509112 0.622294 0.032120
C36   C     C_R   0.153854 0.609523 0.626435 0.233569
C37   C     C_3   0.142761 0.709720 0.664878 -0.521019
C38   C     C_3   0.136217 0.710187 0.562091 -0.532705
C39   C     C_R   0.056981 0.034708 0.162116 0.159648
C40   C     C_R   0.000215 0.410524 0.697012 -0.163131
C41   C     C_R   0.103156 0.985487 0.109418 0.031188
C42   C     C_R   0.167742 0.044545 0.076726 -0.199629
C43   C     C_R   0.158738 0.131649 0.067508 -0.201015
C44   C     C_R   0.084768 0.158334 0.090455 0.042721
C45   C     C_R   0.063400 0.595140 0.314880 -0.148701
C46   C     C_R   0.046614 0.119332 0.151443 0.167100
C47   C     C_3   0.937753 0.077528 0.144587 -0.521838
C48   C     C_3   0.949752 0.986085 0.157551 -0.522405
C49   C     C_R   0.776955 0.592812 0.035893 -0.154653
C50   C     C_R   0.685217 0.239231 0.773220 -0.120463
C51   C     C_R   0.093245 0.804521 0.003915 -0.119520
C52   C     C_R   0.066252 0.868703 0.068944 0.079829
C53   C     C_2   0.131463 0.309362 0.780583 0.550664
C54   C     C_3   0.292082 0.192395 0.806724 0.228107
C55   C     C_3   0.238958 0.146878 0.681522 -0.364618
C56   C     C_R   0.200189 0.408924 0.891070 0.024500
C57   C     C_3   0.201448 0.024291 0.619611 -1.006904
C58   C     C_2   0.470350 0.696289 0.943519 0.531522
C59   C     C_3   0.530721 0.652437 0.230449 0.137250
C60   C     C_3   0.431885 0.634707 0.245888 -0.304512
C61   C     C_3   0.459530 0.661335 0.363038 -0.983014
C62   C     C_R   0.299156 0.802863 0.206796 -0.177139
C63   C     C_R   0.962729 0.238072 0.053447 -0.137507
C64   C     C_R   0.063040 0.247153 0.971399 -0.048168
H1    H     H_    0.989086 0.833105 0.164598 0.102007
H2    H     H_    0.311308 0.357944 0.759990 0.021489
H3    H     H_    0.803727 0.245934 0.624115 0.109363
H4    H     H_    0.552028 0.436890 0.058762 0.148831
H5    H     H_    0.417255 0.468432 0.063414 0.063117
H6    H     H_    0.635686 0.676349 0.009496 0.173312
H7    H     H_    0.594198 0.597221 0.867345 0.173055
H8    H     H_    0.414275 0.545021 0.806030 0.144300
H9    H     H_    0.640361 0.583148 0.128698 0.172544
H10   H     H_    0.473052 0.176029 0.636138 0.125985
H11   H     H_    0.156846 0.677962 0.829344 0.116081
H12   H     H_    0.346541 0.829540 0.170557 0.106593
H13   H     H_    0.306326 0.020239 0.470939 0.136483
H14   H     H_    0.521256 0.895673 0.337008 0.206607
H15   H     H_    0.538562 0.972057 0.260713 0.193568
H16   H     H_    0.682673 0.045905 0.497048 0.207377
H17   H     H_    0.701140 0.123570 0.422000 0.192213
H18   H     H_    0.035041 0.334916 0.364472 0.125032
H19   H     H_    0.044751 0.333613 0.529884 0.128131
H20   H     H_    0.065717 0.692784 0.666359 0.198052
H21   H     H_    0.217685 0.782100 0.740971 0.208164
H22   H     H_    0.055410 0.693362 0.505591 0.203782
H23   H     H_    0.920218 0.216059 0.093997 0.103774
H24   H     H_    0.624915 0.326148 0.927339 0.086304
H25   H     H_    0.207307 0.782887 0.579078 0.202982
H26   H     H_    0.212983 0.015265 0.044218 0.125557
H27   H     H_    0.198498 0.166887 0.029380 0.127958
H28   H     H_    0.938598 0.135352 0.215662 0.185994
H29   H     H_    0.869162 0.044787 0.062262 0.204239
H30   H     H_    0.959001 0.991932 0.236772 0.192045
H31   H     H_    0.887177 0.903856 0.083119 0.201843
H32   H     H_    0.973972 0.326394 0.641395 0.106860
H33   H     H_    0.798838 0.678544 0.072181 0.099720
H34   H     H_    0.120612 0.241883 0.945105 0.135638
H35   H     H_    0.618860 0.215014 0.789017 0.090845
H36   H     H_    0.151970 0.832457 0.978904 0.086279
H37   H     H_    0.121533 0.680768 0.375206 0.114373
H38   H     H_    0.144670 0.309825 0.713646 -0.050065
H39   H     H_    0.232234 0.140307 0.821453 0.137654
H40   H     H_    0.362446 0.180286 0.836201 0.088914
H41   H     H_    0.167276 0.156845 0.652219 0.219145
H42   H     H_    0.297727 0.190889 0.660789 0.187538
H43   H     H_    0.272052 0.011557 0.644177 0.261593
H44   H     H_    0.162053 0.993002 0.529808 0.261564
H45   H     H_    0.180785 0.836279 0.353344 0.085089
H46   H     H_    0.141547 0.976199 0.636950 0.277711
H47   H     H_    0.521763 0.755511 0.030935 0.063036
H48   H     H_    0.597958 0.738669 0.292080 0.142894
H49   H     H_    0.560351 0.597741 0.247473 0.089173
H50   H     H_    0.403455 0.689166 0.227930 0.215438
H51   H     H_    0.364728 0.547751 0.187925 0.196636
H52   H     H_    0.487375 0.607040 0.383020 0.266047
H53   H     H_    0.386069 0.647599 0.371021 0.275342
H54   H     H_    0.524288 0.749050 0.422387 0.264626
H55   H     H_    0.916111 0.330597 0.213660 0.087398
H56   H     H_    0.354302 0.677722 0.029949 0.124348
H57   H     H_    0.478160 0.317989 0.841418 0.163647
H58   H     H_    0.473267 0.391546 0.771512 0.143968
N1    N     N_R   0.995640 0.706130 0.053910 -0.037346
N2    N     N_R   0.054010 0.556790 0.847890 -0.044301
N3    N     N_R   0.789940 0.443190 0.997130 -0.038935
N4    N     N_R   0.997630 0.443170 0.791110 -0.039549
N5    N     N_R   0.846320 0.556810 0.053910 -0.038951
N6    N     N_R   0.791080 0.293860 0.847890 -0.044838
N7    N     N_R   0.052880 0.706130 0.997130 -0.039455
N8    N     N_R   0.002370 0.556830 0.208890 -0.042148
N9    N     N_R   0.153680 0.443190 0.946090 -0.068099
N10   N     N_R   0.208920 0.706140 0.152110 -0.041292
N11   N     N_R   0.947120 0.293870 0.002870 -0.047663
N12   N     N_R   0.004360 0.293870 0.946090 -0.026022
N13   N     N_R   0.151690 0.706140 0.208890 -0.037739
N14   N     N_R   0.945990 0.443210 0.152110 -0.041689
N15   N     N_R   0.210060 0.556810 0.002870 -0.071610
N16   N     N_R   0.848310 0.293860 0.791110 -0.030981
Ni1   Ni    Ni4+2 0.999010 0.630300 0.130220 0.202832
Ni2   Ni    Ni4+2 0.000990 0.369700 0.869780 0.270505
Ni3   Ni    Ni4+2 0.130280 0.630280 0.000000 0.199081
Ni4   Ni    Ni4+2 0.869720 0.369720 0.000000 0.214017
O1    O     O_2   0.054419 0.228005 0.760834 -0.624704
O2    O     O_3   0.322249 0.303729 0.874124 -0.689151
O3    O     O_2   0.423157 0.722727 0.882830 -0.618964
O4    O     O_3   0.506378 0.638709 0.124750 -0.687711

loop_
_geom_bond_atom_site_label_1
_geom_bond_atom_site_label_2
_ccdc_geom_bond_type
C54   O2    S    
C2    H45   S    
C6    C45   A    
C27   C29   S    
C9    C64   A    
C47   H28   S    
C60   H50   S    
C35   C36   A    
C27   H14   S    
C51   N7    A    
C58   O3    D    
C39   C41   A    
N13   Ni1   S    
C38   H25   S    
N4    Ni2   S    
C50   H35   S    
C48   H30   S    
C13   C18   S    
C55   H41   S    
C63   N11   A    
C37   H21   S    
C36   C37   S    
C48   H31   S    
C27   H15   S    
C10   C15   S    
N12   Ni2   S    
C30   C31   A    
N7    Ni3   S    
C23   C40   A    
C16   H11   S    
N1    Ni1   S    
C51   H36   S    
C30   C38   S    
C3    N14   A    
C14   H7    S    
N6    N16   A    
N14   Ni4   S    
N9    Ni2   S    
C17   C19   S    
C46   C47   S    
N11   Ni4   S    
C47   C48   S    
C7    C17   S    
C28   H24   S    
C1    H1    S    
C37   H20   S    
C45   N8    A    
C4    C12   A    
C11   O2    S    
N3    Ni4   S    
C15   C34   S    
C11   H2    S    
C3    C6    A    
C18   H5    S    
C64   H34   S    
C6    C31   S    
C28   C34   A    
C59   C60   S    
C21   C22   A    
N1    N7    A    
C8    C25   S    
C14   H6    S    
C62   H12   S    
C19   H8    S    
N5    Ni1   S    
C7    C56   A    
C40   H32   S    
N8    Ni1   S    
C44   C46   A    
C59   H48   S    
C20   C29   S    
C19   C58   S    
C47   H29   S    
C49   N5    A    
C64   N12   A    
C5    H56   S    
C61   H53   S    
C58   H47   S    
C62   N10   A    
C54   H39   S    
C24   C25   A    
C5    C7    A    
C45   H37   S    
C55   H42   S    
C10   H58   S    
C25   C26   A    
C4    N16   A    
C12   C21   S    
N8    N14   A    
C43   H27   S    
C51   C52   A    
C60   C61   S    
C53   O1    D    
C43   C44   A    
C1    N1    A    
C29   H17   S    
C37   C38   S    
N9    N15   A    
C57   H46   S    
C53   H38   S    
C59   H49   S    
C40   N4    A    
C61   H52   S    
C17   C18   S    
C26   C27   S    
C33   H19   S    
C3    H55   S    
C39   C46   A    
C57   H43   S    
C38   H22   S    
C16   C23   A    
C23   C35   S    
C13   C15   S    
N11   N12   A    
C22   C24   A    
N2    Ni3   S    
C50   N6    A    
C42   C43   A    
C22   H10   S    
C28   N3    A    
N2    N4    A    
C53   C56   S    
C54   H40   S    
N10   Ni3   S    
N15   Ni3   S    
C54   C55   S    
C11   C17   S    
C9    C44   S    
C41   C52   S    
C63   H23   S    
C61   H54   S    
C9    C63   A    
C14   C19   S    
C31   C32   A    
C2    C8    A    
C13   H9    S    
C18   O4    S    
C4    H3    S    
C12   C50   A    
C5    N15   A    
N16   Ni2   S    
C32   H18   S    
C2    N13   A    
C30   C36   A    
C32   C33   A    
C55   C57   S    
C16   N2    A    
C29   H16   S    
C20   C26   A    
N10   N13   A    
C33   C35   A    
C10   H57   S    
C1    C52   A    
C56   N9    A    
C10   C11   S    
C49   H33   S    
C59   O4    S    
C24   H13   S    
C41   C42   A    
C57   H44   S    
C20   C21   A    
C34   C49   A    
N3    N5    A    
C14   C15   S    
C60   H51   S    
C42   H26   S    
N6    Ni4   S    
C8    C62   A    
C39   C48   S    
C13   H4    S    
