data_mof_unit_18199.cif
_audit_creation_date              2012-12-11T16:53:22-0500
_audit_creation_method            fapswitch 2.2
_symmetry_space_group_name_H-M    P1
_symmetry_Int_Tables_number       1
_space_group_crystal_system       triclinic
_cell_length_a                    15.161972
_cell_length_b                    14.938809
_cell_length_c                    17.508219
_cell_angle_alpha                 109.001639
_cell_angle_beta                  107.370404
_cell_angle_gamma                 107.704906
_cell_volume                      3205.18154821

loop_
_atom_site_label
_atom_site_type_symbol
_atom_type_description
_atom_site_fract_x
_atom_site_fract_y
_atom_site_fract_z
_atom_type_partial_charge
C1    C     C_R   0.095276 0.279998 0.038027 -0.226989
C2    C     C_R   0.065732 0.479190 0.249600 -0.150173
C3    C     C_R   0.274121 0.789045 0.182001 0.500661
C4    C     C_R   0.934921 0.480371 0.737025 -0.018713
C5    C     C_R   0.748500 0.474710 0.053629 -0.164021
C6    C     C_R   0.322495 0.792991 0.264147 -0.153192
C7    C     C_R   0.719997 0.548335 0.036035 0.065741
C8    C     C_R   0.977071 0.419825 0.250948 -0.098221
C9    C     C_R   0.995978 0.822145 0.986763 0.078400
C10   C     C_R   0.494644 0.604368 0.003346 -0.191807
C11   C     C_R   0.460039 0.575985 0.061690 -0.051582
C12   C     C_R   0.026083 0.509741 0.728644 0.181168
C13   C     C_R   0.528265 0.561031 0.126981 0.500358
C14   C     C_R   0.619318 0.561243 0.123331 -0.235043
C15   C     C_R   0.644714 0.577650 0.056692 0.040839
C16   C     C_R   0.711551 0.228097 0.826823 0.635367
C17   C     C_R   0.583269 0.605580 0.001648 -0.015417
C18   C     C_3   0.573329 0.634189 0.926199 0.598868
C19   C     C_3   0.473665 0.639593 0.930191 0.816346
C20   C     C_R   0.976872 0.403788 0.328074 0.133398
C21   C     C_R   0.034321 0.499866 0.646200 -0.270769
C22   C     C_R   0.124334 0.573837 0.572307 0.399548
C23   C     C_R   0.663579 0.226064 0.743576 -0.105381
C24   C     C_R   0.111183 0.584417 0.648999 0.355561
C25   C     C_R   0.963393 0.408200 0.563619 0.432637
C26   C     C_R   0.969678 0.403794 0.484853 -0.003439
C27   C     C_R   0.051718 0.485694 0.489986 -0.134547
C28   C     C_R   0.296872 0.588696 0.999131 -0.220189
C29   C     C_R   0.054377 0.484202 0.411653 -0.151931
C30   C     C_R   0.897734 0.320048 0.322280 -0.115585
C31   C     C_R   0.892742 0.321408 0.400269 -0.146702
C32   C     C_R   0.562550 0.151205 0.666339 0.004986
C33   C     C_R   0.383946 0.890763 0.347631 -0.052022
C34   C     C_R   0.354747 0.553448 0.046976 0.144334
C35   C     C_R   0.501924 0.077721 0.432323 0.424526
C36   C     C_R   0.462544 0.979761 0.357343 0.386182
C37   C     C_R   0.356244 0.896446 0.417300 -0.244121
C38   C     C_R   0.415498 0.984093 0.500080 -0.054450
C39   C     C_R   0.481302 0.078174 0.505801 -0.189793
C40   C     C_R   0.733245 0.311581 0.745259 -0.200843
C41   C     C_R   0.535468 0.166545 0.589078 0.498688
C42   C     C_R   0.502986 0.054111 0.659912 -0.409751
C43   C     C_R   0.419577 0.976676 0.578517 0.493059
C44   C     C_R   0.147298 0.134331 0.923788 -0.114399
C45   C     C_R   0.267922 0.693720 0.255861 0.452083
C46   C     C_R   0.051317 0.100433 0.927252 0.058714
C47   C     C_R   0.997289 0.989122 0.893441 -0.337092
C48   C     C_R   0.034536 0.920575 0.850352 0.492910
C49   C     C_R   0.133994 0.960714 0.856789 0.031910
C50   C     C_R   0.191992 0.068754 0.903808 -0.208344
C51   C     C_3   0.285375 0.152252 0.913612 0.868909
C52   C     C_R   0.293518 0.494412 0.075010 -0.148889
C53   C     C_3   0.234326 0.226819 0.932221 0.234201
C54   C     C_R   0.108468 0.558981 0.813736 -0.127935
C55   C     C_R   0.924391 0.192080 0.949607 0.564929
C56   C     C_R   0.753551 0.566393 0.975426 -0.076527
C57   C     C_R   0.018907 0.180732 0.971801 -0.093601
C58   C     C_3   0.323466 0.844660 0.088477 0.194400
C59   C     C_3   0.352245 0.939058 0.068029 -0.272377
C60   C     C_3   0.305945 0.902480 0.967080 -0.896726
C61   C     C_3   0.564437 0.569003 0.778499 0.266307
C62   C     C_3   0.463545 0.502546 0.692235 -0.346603
C63   C     C_3   0.479142 0.506616 0.610707 -0.905517
C64   C     C_3   0.479746 0.786048 0.905693 0.211164
C65   C     C_3   0.540122 0.906579 0.956694 -0.218094
C66   C     C_3   0.523540 0.957557 0.894512 -0.934733
C67   C     C_R   0.894176 0.394190 0.173498 0.453090
C68   C     C_3   0.337842 0.464216 0.820230 0.135018
C69   C     C_3   0.240722 0.409340 0.730024 -0.263667
C70   C     C_3   0.215968 0.294951 0.673847 -1.040406
C71   C     C_3   0.285345 0.639403 0.578570 0.318314
C72   C     C_3   0.376305 0.714408 0.671867 -0.189423
C73   C     C_3   0.479343 0.753322 0.667378 -1.020496
C74   C     C_3   0.902396 0.254994 0.576091 0.157132
C75   C     C_3   0.876407 0.159391 0.490523 -0.305889
C76   C     C_3   0.887119 0.069712 0.509822 -0.932888
C77   C     C_3   0.573841 0.200353 0.872348 0.210056
C78   C     C_R   0.080642 0.807257 0.025010 -0.233552
C79   C     C_3   0.559244 0.294825 0.860794 -0.331064
C80   C     C_3   0.458773 0.262227 0.780775 -0.796516
C81   C     C_3   0.531051 0.206019 0.386904 0.273887
C82   C     C_3   0.612026 0.312143 0.407170 -0.269642
C83   C     C_3   0.566087 0.358536 0.349037 -0.891861
C84   C     C_3   0.223863 0.068758 0.752189 0.136551
C85   C     C_3   0.228318 0.963579 0.714205 -0.307013
C86   C     C_3   0.132888 0.883490 0.625657 -0.735988
C87   C     C_3   0.131040 0.286622 0.852921 0.228899
C88   C     C_3   0.033181 0.202080 0.768494 -0.325589
C89   C     C_R   0.913548 0.722698 0.940773 0.516706
C90   C     C_3   0.944304 0.230109 0.763620 -1.065537
C91   C     C_3   0.811616 0.033263 0.815327 0.170652
C92   C     C_3   0.717122 0.002652 0.731627 -0.288085
C93   C     C_3   0.700000 0.908949 0.649983 -0.983197
C94   C     C_3   0.396287 0.680988 0.357822 0.204955
C95   C     C_3   0.408231 0.595009 0.383094 -0.281302
C96   C     C_3   0.520807 0.626332 0.440712 -0.902357
Cl1   Cl    Cl    0.769421 0.289986 0.122698 -0.688165
Cl2   Cl    Cl    0.397298 0.190019 0.011547 -0.696075
Cl3   Cl    Cl    0.804343 0.691492 0.848456 -0.661645
Cl4   Cl    Cl    0.508714 0.545119 0.216567 -0.738244
Cl5   Cl    Cl    0.682787 0.759921 0.968979 -0.696155
Cl6   Cl    Cl    0.182129 0.711301 0.742879 -0.706049
Cl7   Cl    Cl    0.541688 0.288247 0.594771 -0.761517
Cl8   Cl    Cl    0.334704 0.863957 0.574650 -0.748743
Cl9   Cl    Cl    0.525016 0.967036 0.286813 -0.664605
Cl10  Cl    Cl    0.955722 0.786190 0.777879 -0.580192
H1    H     H_    0.176356 0.302289 0.072010 0.143912
H2    H     H_    0.826623 0.259526 0.393334 0.167790
H3    H     H_    0.568645 0.643889 0.405558 0.314504
H4    H     H_    0.526486 0.560716 0.455180 0.269430
H5    H     H_    0.551619 0.697219 0.505443 0.253305
H6    H     H_    0.521439 0.035960 0.715475 0.190652
H7    H     H_    0.294923 0.828422 0.409122 0.233433
H8    H     H_    0.927962 0.954870 0.899637 0.187362
H9    H     H_    0.279601 0.295880 0.999907 0.080045
H10   H     H_    0.322879 0.646824 0.977125 0.164275
H11   H     H_    0.723572 0.343276 0.698286 0.213689
H12   H     H_    0.315057 0.461137 0.119313 0.169958
H13   H     H_    0.190039 0.593596 0.831961 0.171064
H14   H     H_    0.255371 0.774823 0.028867 0.102953
H15   H     H_    0.744795 0.617627 0.947486 0.213061
H16   H     H_    0.389206 0.823965 0.102619 0.159818
H17   H     H_    0.323412 0.994804 0.098224 0.234155
H18   H     H_    0.437461 0.983900 0.098602 0.224651
H19   H     H_    0.325373 0.839994 0.934066 0.277862
H20   H     H_    0.335863 0.969277 0.952494 0.301996
H21   H     H_    0.220725 0.868541 0.938955 0.286680
H22   H     H_    0.620361 0.542661 0.762683 0.225169
H23   H     H_    0.589910 0.653472 0.794043 0.153702
H24   H     H_    0.431628 0.419145 0.679722 0.238612
H25   H     H_    0.407803 0.533406 0.700241 0.207603
H26   H     H_    0.157443 0.868983 0.059959 0.190075
H27   H     H_    0.540398 0.584315 0.629855 0.267937
H28   H     H_    0.405862 0.490647 0.557672 0.249243
H29   H     H_    0.503569 0.446561 0.581668 0.320137
H30   H     H_    0.397572 0.761758 0.864097 0.151506
H31   H     H_    0.511809 0.756652 0.858926 0.108393
H32   H     H_    0.516419 0.938039 0.009512 0.220741
H33   H     H_    0.623777 0.929497 0.990820 0.261300
H34   H     H_    0.552205 0.931917 0.843920 0.275779
H35   H     H_    0.567423 0.044557 0.935325 0.312642
H36   H     H_    0.440543 0.936942 0.859809 0.265639
H37   H     H_    0.143696 0.498770 0.292786 0.169056
H38   H     H_    0.316927 0.445438 0.870217 0.133059
H39   H     H_    0.392617 0.432532 0.810978 0.176927
H40   H     H_    0.173805 0.411375 0.742478 0.173006
H41   H     H_    0.249965 0.452021 0.689432 0.203262
H42   H     H_    0.276867 0.290959 0.652155 0.278610
H43   H     H_    0.141453 0.256748 0.612906 0.266364
H44   H     H_    0.210164 0.251068 0.713507 0.297049
H45   H     H_    0.304102 0.655167 0.526247 0.163824
H46   H     H_    0.272304 0.556125 0.561694 -0.014265
H47   H     H_    0.365463 0.784386 0.706055 0.268573
H48   H     H_    0.732004 0.441448 0.096587 0.180016
H49   H     H_    0.377686 0.672402 0.713419 0.150579
H50   H     H_    0.543295 0.772183 0.730441 0.269577
H51   H     H_    0.494422 0.825646 0.658535 0.307190
H52   H     H_    0.478590 0.693778 0.609462 0.269908
H53   H     H_    0.851239 0.226253 0.605127 0.169262
H54   H     H_    0.983964 0.287574 0.626107 0.092754
H55   H     H_    0.795470 0.129365 0.440978 0.254684
H56   H     H_    0.929267 0.183035 0.460872 0.192509
H57   H     H_    0.968955 0.093794 0.552785 0.250138
H58   H     H_    0.860918 0.999739 0.445484 0.285448
H59   H     H_    0.668105 0.544895 0.170807 0.178057
H60   H     H_    0.839057 0.046814 0.543566 0.267461
H61   H     H_    0.578075 0.212299 0.939598 0.189869
H62   H     H_    0.502956 0.125133 0.827141 0.133444
H63   H     H_    0.556659 0.345140 0.921996 0.205927
H64   H     H_    0.623751 0.346805 0.855517 0.213040
H65   H     H_    0.474185 0.310294 0.745352 0.272497
H66   H     H_    0.402548 0.277369 0.804923 0.277560
H67   H     H_    0.422247 0.177820 0.731356 0.257141
H68   H     H_    0.466901 0.218288 0.399907 0.116182
H69   H     H_    0.500003 0.150432 0.314516 0.132712
H70   H     H_    0.857473 0.448071 0.685485 0.160792
H71   H     H_    0.643750 0.368627 0.479346 0.246942
H72   H     H_    0.676339 0.301208 0.394169 0.225519
H73   H     H_    0.536499 0.304658 0.276568 0.294538
H74   H     H_    0.626490 0.435915 0.366012 0.291550
H75   H     H_    0.502039 0.370948 0.361456 0.259314
H76   H     H_    0.232587 0.104546 0.706888 0.139471
H77   H     H_    0.147184 0.057797 0.750029 0.117553
H78   H     H_    0.298840 0.978325 0.703809 0.244689
H79   H     H_    0.235267 0.930788 0.762865 0.250721
H80   H     H_    0.062180 0.868182 0.636304 0.249581
H81   H     H_    0.113073 0.551072 0.415747 0.166025
H82   H     H_    0.137846 0.807843 0.599465 0.332529
H83   H     H_    0.127288 0.913414 0.574888 0.240672
H84   H     H_    0.154648 0.360386 0.846681 0.118132
H85   H     H_    0.115984 0.306600 0.912122 0.114780
H86   H     H_    0.045746 0.195515 0.708260 0.209071
H87   H     H_    0.013351 0.124130 0.768130 0.204539
H88   H     H_    0.933629 0.241198 0.824718 0.269421
H89   H     H_    0.872428 0.164892 0.705081 0.271609
H90   H     H_    0.960744 0.305195 0.759093 0.267598
H91   H     H_    0.795595 0.963243 0.827594 0.162212
H92   H     H_    0.838797 0.254615 0.258643 0.194912
H93   H     H_    0.878275 0.052345 0.799433 0.110094
H94   H     H_    0.648595 0.982016 0.744974 0.221291
H95   H     H_    0.727171 0.069826 0.715736 0.194695
H96   H     H_    0.767474 0.928962 0.634813 0.276463
H97   H     H_    0.630553 0.889330 0.590709 0.269265
H98   H     H_    0.688097 0.838951 0.662579 0.291516
H99   H     H_    0.435806 0.757277 0.420177 0.138212
H100  H     H_    0.434048 0.687717 0.312792 0.151954
H101  H     H_    0.363363 0.579943 0.421166 0.181434
H102  H     H_    0.376644 0.520404 0.320671 0.230812
N1    N     N_R   0.055640 0.348550 0.045600 -0.079447
N2    N     N_R   0.811290 0.303400 0.871650 -0.099444
N3    N     N_R   0.205180 0.552990 0.997660 -0.068536
N4    N     N_R   0.814810 0.361830 0.823710 -0.092980
N5    N     N_R   0.201660 0.494570 0.045600 -0.064044
N6    N     N_R   0.068420 0.560530 0.871650 -0.054073
N7    N     N_R   0.948050 0.295860 0.997660 -0.082483
N8    N     N_R   0.185190 0.638170 0.176290 -0.104438
N9    N     N_R   0.798340 0.505430 0.954400 -0.070598
N10   N     N_R   0.931580 0.439470 0.128350 -0.083369
N11   N     N_R   0.051950 0.704140 0.002340 -0.064369
N12   N     N_R   0.944360 0.651450 0.954400 -0.094609
N13   N     N_R   0.039170 0.492150 0.176290 -0.055114
N14   N     N_R   0.188710 0.696600 0.128350 -0.135512
N15   N     N_R   0.794820 0.447010 0.002340 -0.044821
N16   N     N_R   0.960830 0.507850 0.823710 -0.057201
Ni1   Ni    Ni4+2 0.119330 0.493420 0.109950 0.214073
Ni2   Ni    Ni4+2 0.880670 0.506580 0.890050 0.252171
Ni3   Ni    Ni4+2 0.872590 0.372590 0.000000 0.303088
Ni4   Ni    Ni4+2 0.127410 0.627410 0.000000 0.199560
O1    O     O_3   0.301966 0.873246 0.163394 -0.651311
O2    O     O_3   0.210129 0.254506 0.861103 -0.670384
O3    O     O_3   0.822701 0.117561 0.890062 -0.635815
O4    O     O_3   0.289955 0.653361 0.316284 -0.679114
O5    O     O_3   0.556369 0.546639 0.849381 -0.722065
O6    O     O_3   0.487034 0.745171 0.968700 -0.663214
O7    O     O_3   0.379904 0.574234 0.848392 -0.723825
O8    O     O_3   0.198688 0.658108 0.575720 -0.602226
O9    O     O_3   0.877943 0.331572 0.556807 -0.652858
O10   O     O_3   0.663324 0.186079 0.871910 -0.639187
O11   O     O_3   0.577691 0.166884 0.442483 -0.601733
O12   O     O_3   0.308352 0.137625 0.838352 -0.644587

loop_
_geom_bond_atom_site_label_1
_geom_bond_atom_site_label_2
_ccdc_geom_bond_type
N9    N15   A    
C47   H8    S    
C51   C53   S    
C87   C88   S    
C64   H30   S    
C86   H82   S    
C69   H40   S    
C6    C45   A    
N13   Ni1   S    
C3    N14   A    
C27   C29   A    
C61   O5    S    
N2    Ni3   S    
C62   H24   S    
C95   C96   S    
C94   H100  S    
C3    C6    A    
C3    O1    S    
C81   C82   S    
C18   O5    S    
C94   O4    S    
C39   C41   A    
C66   H35   S    
C20   C30   A    
C85   C86   S    
C77   H62   S    
C9    C78   A    
C70   H43   S    
C26   C27   A    
N1    N7    A    
C83   H74   S    
C89   Cl3   S    
C75   H56   S    
C81   H69   S    
C79   H64   S    
C60   H19   S    
C80   H67   S    
C55   N7    A    
C30   C31   A    
N15   Ni3   S    
C90   H90   S    
C37   H7    S    
C10   C17   A    
C23   C40   A    
C73   H51   S    
C59   H18   S    
C33   C36   A    
C83   H75   S    
C15   C17   A    
C18   C19   S    
C31   H2    S    
N16   Ni2   S    
C49   C50   A    
C93   H98   S    
C78   H26   S    
C43   Cl8   S    
C92   C93   S    
C42   H6    S    
C28   H10   S    
C44   C53   S    
C48   Cl10  S    
C90   H89   S    
C35   C36   A    
C68   C69   S    
C64   C65   S    
C70   H44   S    
C32   C41   A    
C76   H60   S    
C51   O12   S    
C45   O4    S    
N14   Ni4   S    
N11   Ni4   S    
C4    C12   A    
N6    Ni4   S    
C24   Cl6   S    
C61   H23   S    
N9    Ni2   S    
C20   C29   A    
N4    Ni2   S    
C51   Cl2   S    
C7    C15   S    
C40   H11   S    
C16   O10   S    
C59   C60   S    
C72   H49   S    
C13   C14   A    
C95   H101  S    
C2    H37   S    
C40   N4    A    
C61   C62   S    
C94   H99   S    
N1    Ni1   S    
C7    C56   A    
C62   H25   S    
C11   C34   S    
C56   N9    A    
C59   H17   S    
C44   C46   A    
C50   C51   S    
C64   H31   S    
C77   C79   S    
C85   H79   S    
C77   H61   S    
C96   H5    S    
C71   H45   S    
C58   H16   S    
C74   C75   S    
C1    N1    A    
C92   H95   S    
C63   H28   S    
C55   O3    S    
C22   C27   A    
C35   O11   S    
C84   C85   S    
C54   N6    A    
C9    C89   A    
N11   N12   A    
C5    C7    A    
C25   C26   A    
C4    N16   A    
C96   H4    S    
C12   C21   S    
C2    N13   A    
C33   C37   A    
C81   O11   S    
C91   O3    S    
C28   N3    A    
C18   Cl5   S    
C63   H29   S    
C35   C39   A    
C75   C76   S    
C64   O6    S    
C37   C38   A    
C68   O7    S    
C1    C57   A    
C78   N11   A    
C47   C48   A    
C84   H77   S    
C25   O9    S    
C10   C19   S    
C82   H72   S    
C62   C63   S    
C58   H14   S    
C17   C18   S    
N12   Ni2   S    
C94   C95   S    
C5    N15   A    
C8    C20   S    
C71   O8    S    
C14   H59   S    
C93   H96   S    
N6    N16   A    
C1    H1    S    
C87   H84   S    
C22   O8    S    
C65   H32   S    
C74   H53   S    
C48   C49   A    
C30   H92   S    
C88   C90   S    
C86   H80   S    
C85   H78   S    
N2    N4    A    
N3    Ni4   S    
C55   C57   A    
C46   C57   S    
C77   O10   S    
C69   H41   S    
C22   C24   A    
C76   H58   S    
C70   H42   S    
C42   C43   A    
C80   H66   S    
C16   N2    A    
C19   O6    S    
C63   H27   S    
N10   Ni3   S    
C91   C92   S    
C90   H88   S    
N10   N13   A    
C87   H85   S    
C44   C50   A    
C95   H102  S    
C88   H86   S    
C21   C25   A    
C46   C47   A    
C86   H83   S    
C72   H47   S    
N3    N5    A    
C36   Cl9   S    
C88   H87   S    
C67   N10   A    
C2    C8    A    
C84   O12   S    
C23   C32   S    
C72   C73   S    
C19   O7    S    
C53   H9    S    
C66   H36   S    
C83   H73   S    
C16   C23   A    
C87   O2    S    
C96   H3    S    
C53   O2    S    
C34   C52   A    
N8    Ni1   S    
C6    C33   S    
C74   H54   S    
C75   H55   S    
C81   H68   S    
C79   H63   S    
C13   Cl4   S    
C60   H20   S    
C58   C59   S    
C91   H93   S    
C38   C43   A    
C65   C66   S    
C58   O1    S    
C56   H15   S    
C89   N12   A    
C41   Cl7   S    
C11   C13   A    
C38   C39   A    
C74   O9    S    
C73   H52   S    
C82   H71   S    
C84   H76   S    
C52   N5    A    
C68   H38   S    
C61   H22   S    
N7    Ni3   S    
C45   N8    A    
C73   H50   S    
C54   H13   S    
C69   C70   S    
C93   H97   S    
C65   H33   S    
N8    N14   A    
C60   H21   S    
N5    Ni1   S    
C10   C11   A    
C67   Cl1   S    
C28   C34   A    
C79   C80   S    
C91   H91   S    
C29   H81   S    
C26   C31   A    
C66   H34   S    
C8    C67   A    
C82   C83   S    
C4    H70   S    
C21   C24   A    
C71   H46   S    
C32   C42   A    
C14   C15   A    
C76   H57   S    
C80   H65   S    
C71   C72   S    
C92   H94   S    
C12   C54   A    
C68   H39   S    
C5    H48   S    
C52   H12   S    
