data_mof_unit_21392.cif
_audit_creation_date              2012-12-10T17:47:12-0500
_audit_creation_method            fapswitch 2.2
_symmetry_space_group_name_H-M    P1
_symmetry_Int_Tables_number       1
_space_group_crystal_system       triclinic
_cell_length_a                    11.70684
_cell_length_b                    14.766547
_cell_length_c                    14.74648
_cell_angle_alpha                 64.909324
_cell_angle_beta                  103.59527
_cell_angle_gamma                 103.278468
_cell_volume                      2219.37241199

loop_
_atom_site_label
_atom_site_type_symbol
_atom_type_description
_atom_site_fract_x
_atom_site_fract_y
_atom_site_fract_z
_atom_type_partial_charge
C1    C     C_R   0.480766 0.119696 0.312263 0.840152
C2    C     C_R   0.519357 0.880295 0.687803 0.848695
C3    C     C_R   0.480518 0.321628 0.001587 0.031139
C4    C     C_R   0.569319 0.679814 0.000723 0.011000
C5    C     C_R   0.525494 0.466932 0.053085 0.099853
C6    C     C_R   0.521141 0.534198 0.949846 0.107005
C7    C     C_R   0.506055 0.493253 0.876113 -0.233184
C8    C     C_R   0.558521 0.508396 0.127824 -0.238533
C9    C     C_R   0.487121 0.389852 0.901520 -0.137927
C10   C     C_R   0.580816 0.611935 0.102155 -0.126161
C11   C     C_R   0.672234 0.276891 0.682997 -0.252402
C12   C     C_R   0.329947 0.723966 0.315914 -0.281726
C13   C     C_R   0.663774 0.205486 0.642324 0.585602
C14   C     C_R   0.336785 0.794476 0.357394 0.581531
C15   C     C_R   0.514242 0.284726 0.508984 -0.050207
C16   C     C_R   0.487214 0.716178 0.490259 -0.050124
C17   C     C_R   0.537212 0.368912 0.538153 -0.012068
C18   C     C_R   0.466377 0.632813 0.460081 -0.011326
C19   C     C_R   0.611712 0.359147 0.630956 0.091567
C20   C     C_R   0.392116 0.642611 0.367164 0.092503
C21   C     C_R   0.490189 0.461794 0.479616 0.104442
C22   C     C_R   0.514889 0.540537 0.517924 0.108531
C23   C     C_R   0.284088 0.999864 0.500019 0.828524
C24   C     C_R   0.715905 0.000162 0.499935 0.827393
C25   C     C_R   0.584077 0.523140 0.613977 -0.221587
C26   C     C_R   0.422850 0.479900 0.382759 -0.223255
C27   C     C_R   0.632021 0.434360 0.668942 -0.139949
C28   C     C_R   0.374128 0.568393 0.328112 -0.123862
C29   C     C_1   0.162291 0.999746 0.499898 -0.113525
C30   C     C_1   0.837695 0.000293 0.500028 -0.117897
C31   C     C_1   0.059847 0.999885 0.499908 0.048956
C32   C     C_1   0.940136 0.000159 0.500005 0.046687
C33   C     C_R   0.474326 0.187363 0.204498 -0.104516
C34   C     C_R   0.535129 0.812841 0.795852 -0.133614
C35   C     C_R   0.456325 0.215422 0.027411 0.371774
C36   C     C_R   0.589884 0.786100 0.973929 0.417414
C37   C     C_R   0.455857 0.149717 0.129061 -0.218194
C38   C     C_R   0.572624 0.851142 0.871627 -0.170808
C39   C     C_R   0.491108 0.291387 0.178176 -0.244297
C40   C     C_R   0.515030 0.708654 0.822439 -0.250732
C41   C     C_R   0.499660 0.360420 0.078310 0.047073
C42   C     C_R   0.535827 0.640524 0.923695 0.045418
Cu1   Cu    Cu3+1 0.469550 0.918260 0.475690 1.022283
Cu2   Cu    Cu3+1 0.530450 0.081740 0.524310 1.029884
H1    H     H_    0.478076 0.364714 0.840926 0.214518
H2    H     H_    0.605599 0.637435 0.163735 0.220284
H3    H     H_    0.603618 0.577340 0.648542 0.126879
H4    H     H_    0.405932 0.426639 0.347196 0.129981
H5    H     H_    0.479597 0.682112 0.762387 0.168868
H6    H     H_    0.495914 0.316632 0.237606 0.157311
H7    H     H_    0.512777 0.539306 0.797661 0.139601
H8    H     H_    0.572303 0.463145 0.207934 0.149127
H9    H     H_    0.687688 0.425301 0.741426 0.157652
H10   H     H_    0.319444 0.577883 0.255167 0.158397
H11   H     H_    0.553308 0.719602 0.553725 0.144983
H12   H     H_    0.447679 0.281547 0.445655 0.143845
H13   H     H_    0.735250 0.274299 0.750555 0.201555
H14   H     H_    0.267307 0.726626 0.248150 0.199502
N1    N     N_R   0.576230 0.204580 0.560790 -0.234968
N2    N     N_R   0.423770 0.795420 0.439210 -0.234799
O1    O     O_R   0.459870 0.022090 0.338120 -0.538608
O2    O     O_R   0.540130 0.977910 0.661880 -0.534384
O3    O     O_R   0.511290 0.160150 0.379180 -0.609637
O4    O     O_R   0.488710 0.839850 0.620820 -0.607633
O5    O     O_R   0.311490 0.930960 0.479480 -0.501759
O6    O     O_R   0.688510 0.069040 0.520520 -0.500223
O7    O     O_R   0.362910 0.069020 0.520540 -0.588043
O8    O     O_R   0.637090 0.930980 0.479460 -0.593721
H15   H     H_    0.588001 0.932062 0.850834 0.243127
H16   H     H_    0.441119 0.068835 0.149762 0.206659
S1    S     S_3+6 0.425975 0.161356 0.935647 0.029688
O9    O     O_2   0.326889 0.206974 0.854245 -0.223276
O10   O     O_2   0.535042 0.183337 0.888282 -0.312444
O11   O     O_3   0.384601 0.035467 0.988207 -0.458568
H17   H     H_    0.459238 0.007157 0.023711 0.377242
S2    S     S_3+6 0.639096 0.841220 0.065099 0.003885
O12   O     O_2   0.544754 0.812199 0.130305 -0.327057
O13   O     O_2   0.751299 0.802843 0.130545 -0.246761
O14   O     O_3   0.666496 0.968001 0.007928 -0.499562
H18   H     H_    0.690767 0.991953 0.064023 0.382113
S3    S     S_3+6 0.209780 0.858114 0.316387 0.054807
O15   O     O_2   0.128869 0.832933 0.231953 -0.252173
O16   O     O_2   0.142224 0.820159 0.403675 -0.281306
O17   O     O_3   0.242290 0.984497 0.273256 -0.525259
H19   H     H_    0.166386 0.008434 0.264265 0.368050
S4    S     S_3+6 0.790735 0.141786 0.682825 0.056949
O18   O     O_2   0.858605 0.181053 0.595562 -0.281996
O19   O     O_2   0.871272 0.165763 0.768094 -0.255530
O20   O     O_3   0.758720 0.015497 0.724295 -0.530271
H20   H     H_    0.835437 0.991883 0.735500 0.371422

loop_
_geom_bond_atom_site_label_1
_geom_bond_atom_site_label_2
_ccdc_geom_bond_type
C21   C26   A    
C4    C36   A    
C9    H1    S    
Cu2   O6    S    
S2    O14   S    
S3    O15   D    
C1    C33   S    
C39   C41   A    
C11   C19   A    
C33   C39   A    
C34   C40   A    
C23   C29   S    
C35   C37   A    
S2    O13   D    
C5    C6    A    
S4    O19   D    
Cu2   N1    S    
C40   H5    S    
C7    C9    A    
C16   N2    A    
C23   O7    A    
C36   S2    S    
Cu1   O8    S    
C22   C25   A    
C13   S4    S    
C10   H2    S    
C19   C27   A    
C8    H8    S    
C24   O6    A    
C12   H14   S    
C2    C34   S    
C40   C42   A    
C38   H15   S    
C35   S1    S    
C34   C38   A    
C37   H16   S    
C1    O3    A    
S3    O16   D    
C2    O4    A    
Cu1   O4    S    
C24   C30   S    
Cu2   O3    S    
O11   H17   S    
O17   H19   S    
S1    O10   D    
C28   H10   S    
S4    O18   D    
C20   C28   A    
Cu2   O2    S    
C33   C37   A    
Cu1   Cu2   S    
C3    C9    A    
C5    C8    A    
C31   C32   S    
C3    C35   A    
Cu1   O5    S    
C12   C20   A    
S2    O12   D    
Cu1   N2    S    
C16   C18   A    
C12   C14   A    
C4    C10   A    
S3    O17   S    
Cu1   O1    S    
C15   C17   A    
C5    C41   A    
C25   H3    S    
C3    C41   A    
C18   C22   A    
C15   N1    A    
S4    O20   S    
C1    O1    A    
S1    O11   S    
C27   H9    S    
C6    C7    A    
C13   N1    A    
C26   H4    S    
C25   C27   A    
C14   N2    A    
C26   C28   A    
C15   H12   S    
C23   O5    A    
C36   C38   A    
C16   H11   S    
C7    H7    S    
S1    O9    D    
C29   C31   T    
C11   H13   S    
C30   C32   T    
C11   C13   A    
C4    C42   A    
C17   C19   A    
C18   C20   A    
C17   C21   A    
C24   O8    A    
O14   H18   S    
C39   H6    S    
C8    C10   A    
C6    C42   A    
Cu2   O7    S    
C14   S3    S    
O20   H20   S    
C21   C22   A    
C2    O2    A    
