data_mof_unit_62970.cif
_audit_creation_date              2013-03-05T16:44:54-0500
_audit_creation_method            fapswitch 2.2
_symmetry_space_group_name_H-M    P1
_symmetry_Int_Tables_number       1
_space_group_crystal_system       triclinic
_cell_length_a                    16.029147
_cell_length_b                    19.205217
_cell_length_c                    19.23073
_cell_angle_alpha                 94.778839
_cell_angle_beta                  94.97391
_cell_angle_gamma                 90.627582
_cell_volume                      5876.26958725

loop_
_atom_site_label
_atom_site_type_symbol
_atom_site_description
_atom_site_fract_x
_atom_site_fract_y
_atom_site_fract_z
_atom_type_partial_charge
Zn1   Zn    Zn3+2 0.430910 0.557800 0.557800 0.991515
Zn2   Zn    Zn3+2 0.574380 0.447110 0.559460 0.979713
Zn3   Zn    Zn3+2 0.563780 0.559000 0.446630 0.966007
Zn4   Zn    Zn3+2 0.430930 0.436090 0.436110 0.971630
O1    O     O_3   0.500000 0.500000 0.500000 -0.483721
O2    O     O_R   0.456880 0.340240 0.450910 -0.647926
O3    O     O_R   0.446420 0.655480 0.544820 -0.608643
O4    O     O_R   0.557280 0.467820 0.657110 -0.649728
O5    O     O_R   0.539420 0.536460 0.347160 -0.645722
O6    O     O_R   0.688130 0.469010 0.547620 -0.630642
O7    O     O_R   0.315580 0.449250 0.449280 -0.635415
O8    O     O_R   0.680710 0.547310 0.468650 -0.637302
O9    O     O_R   0.315580 0.534430 0.534450 -0.639330
O10   O     O_R   0.456860 0.545290 0.655940 -0.610048
O11   O     O_R   0.446440 0.450430 0.339790 -0.645668
O12   O     O_R   0.557290 0.347960 0.537250 -0.639860
O13   O     O_R   0.539410 0.656320 0.467010 -0.656168
C1    C     C_R   0.508643 0.310513 0.492596 0.821933
C2    C     C_R   0.491545 0.689600 0.507422 0.889126
C3    C     C_R   0.508832 0.508359 0.689877 0.835878
C4    C     C_R   0.491508 0.491981 0.309813 0.798631
C5    C     C_R   0.724062 0.510035 0.509930 0.813856
C6    C     C_R   0.275876 0.490078 0.490090 0.819521
C7    C     C_1   0.813639 0.514318 0.514024 -0.132406
C8    C     C_2   0.978933 0.521757 0.521137 -0.159024
C9    C     C_2   0.020996 0.478901 0.479030 -0.160639
C10   C     C_1   0.110975 0.482734 0.482795 0.011050
C11   C     C_1   0.888954 0.517827 0.517376 0.011029
C12   C     C_1   0.186294 0.486065 0.486094 -0.133291
H1    H     H_    0.988048 0.440568 0.441414 0.161350
H2    H     H_    0.011867 0.560089 0.558762 0.162172
C13   C     C_R   0.491534 0.766776 0.512534 -0.227459
C14   C     C_R   0.558013 0.802305 0.487273 -0.435237
C15   C     C_R   0.561005 0.875333 0.490175 0.455580
C16   C     C_R   0.496565 0.913982 0.519990 0.088806
C17   C     C_R   0.429765 0.878910 0.545578 0.273427
C18   C     C_R   0.428006 0.805396 0.543738 0.328769
C19   C     C_R   0.567362 0.127191 0.534874 0.318812
C20   C     C_R   0.561708 0.200279 0.539324 -0.286498
C21   C     C_R   0.521437 0.087275 0.478669 0.207121
N1    N     N_2   0.497170 0.988189 0.525439 -0.078405
N2    N     N_2   0.520516 0.013442 0.472541 -0.140831
C22   C     C_R   0.513070 0.233740 0.488189 -0.062352
H3    H     H_    0.596541 0.231127 0.582165 0.207077
C23   C     C_R   0.469998 0.193457 0.431882 -0.199024
C24   C     C_R   0.474794 0.120944 0.427046 -0.260186
H4    H     H_    0.432719 0.217970 0.391345 0.174459
H5    H     H_    0.440564 0.090570 0.383540 0.157037
H6    H     H_    0.609225 0.773276 0.466587 0.208550
C25   C     C_R   0.489726 0.488213 0.232998 -0.002991
C26   C     C_R   0.530984 0.539963 0.200759 -0.224956
C27   C     C_R   0.531097 0.536232 0.128184 -0.168173
C28   C     C_R   0.489824 0.480247 0.086263 0.321136
C29   C     C_R   0.449221 0.428467 0.118579 -0.192816
C30   C     C_R   0.448543 0.432515 0.191343 -0.211551
C31   C     C_R   0.515962 0.455549 0.873845 -0.155585
C32   C     C_R   0.516671 0.451923 0.801239 -0.297032
C33   C     C_R   0.512029 0.520900 0.912663 0.260770
N3    N     N_2   0.489432 0.473300 0.012100 -0.194246
N4    N     N_2   0.510846 0.527699 0.986604 -0.188392
C34   C     C_R   0.512919 0.513101 0.766372 -0.105328
H7    H     H_    0.518288 0.401259 0.772081 0.182056
H8    H     H_    0.518453 0.407378 0.899400 0.166829
H9    H     H_    0.417763 0.384912 0.087145 0.145515
H10   H     H_    0.416673 0.391701 0.214981 0.166227
C35   C     C_R   0.512547 0.578687 0.804983 0.455701
C36   C     C_R   0.511509 0.581996 0.877855 -0.297535
H11   H     H_    0.564226 0.576757 0.105198 0.150791
H12   H     H_    0.509944 0.632436 0.907436 0.159862
H13   H     H_    0.563407 0.583409 0.231630 0.166981
O14   O     O_3   0.512124 0.639640 0.771439 -0.603368
C37   C     C_3   0.595656 0.664157 0.772311 0.084391
H14   H     H_    0.636936 0.622780 0.750763 0.125612
H15   H     H_    0.620641 0.682457 0.826686 0.147002
C38   C     C_3   0.598408 0.725289 0.727085 -0.811272
H16   H     H_    0.558229 0.767910 0.746986 0.252002
H17   H     H_    0.663715 0.745607 0.728542 0.217432
H18   H     H_    0.576126 0.707945 0.671995 0.240569
N5    N     N_R   0.621520 0.094810 0.585949 0.214057
O15   O     O_R   0.663259 0.039510 0.567710 -0.323553
O16   O     O_R   0.637253 0.125228 0.648841 -0.384917
O17   O     O_3   0.366645 0.917005 0.574342 -0.584374
C39   C     C_3   0.302241 0.925442 0.520986 0.129663
H19   H     H_    0.275312 0.873874 0.498439 0.164013
H20   H     H_    0.325838 0.954131 0.478372 0.129507
C40   C     C_3   0.232581 0.967681 0.551856 -0.784038
H21   H     H_    0.257184 0.019926 0.573934 0.261953
H22   H     H_    0.181410 0.974624 0.510384 0.202531
H23   H     H_    0.206986 0.940007 0.594048 0.259304
O18   O     O_3   0.360193 0.771356 0.566529 -0.590267
C41   C     C_3   0.370472 0.772285 0.640297 0.167401
H24   H     H_    0.363002 0.826001 0.665126 0.174288
H25   H     H_    0.432912 0.752558 0.658582 0.151779
C42   C     C_3   0.304109 0.724916 0.664565 -0.746649
H26   H     H_    0.310694 0.670572 0.641237 0.279093
H27   H     H_    0.311672 0.725135 0.722540 0.208873
H28   H     H_    0.240633 0.743663 0.648353 0.240053
O19   O     O_3   0.630577 0.909579 0.470467 -0.535047
C43   C     C_3   0.634572 0.897312 0.397353 0.112193
H29   H     H_    0.572455 0.904004 0.367900 0.121764
H30   H     H_    0.657413 0.843816 0.383952 0.134495
C44   C     C_3   0.695862 0.949623 0.373715 -0.756208
H31   H     H_    0.758995 0.943732 0.401062 0.262727
H32   H     H_    0.699960 0.940441 0.316341 0.191327
H33   H     H_    0.674305 0.003706 0.385856 0.262867

loop_
_geom_bond_atom_site_label_1
_geom_bond_atom_site_label_2
_geom_bond_distance
_ccdc_geom_bond_type
C8    H2    1.086598 S    
C10   C12   1.204181 T    
N1    N2    1.246728 D    
C16   C17   1.404673 A    
C28   N3    1.420798 S    
C32   H7    1.083524 S    
C23   C24   1.391390 A    
O6    C5    1.278851 A    
C8    C11   1.438645 S    
C21   C24   1.396941 A    
C9    C10   1.438583 S    
O4    C3    1.273838 A    
C18   O18   1.384123 S    
Zn1   O1    1.931061 S    
C6    C12   1.432181 S    
C17   C18   1.409241 A    
C19   C20   1.403547 A    
C40   H22   1.110538 S    
C19   N5    1.439031 S    
C14   H6    1.082872 S    
O8    C5    1.278853 A    
C31   C32   1.393235 A    
O9    C6    1.277198 A    
C44   H33   1.110940 S    
C15   C16   1.412524 A    
C3    C34   1.461991 S    
Zn3   O8    1.905285 S    
C15   O19   1.385125 S    
C34   C35   1.408203 A    
C39   H19   1.114357 S    
C17   O17   1.382293 S    
C26   H13   1.083148 S    
Zn2   O12   1.927748 S    
C27   H11   1.082644 S    
C21   N2    1.412848 S    
C35   C36   1.399070 A    
N3    N4    1.247566 D    
C42   H26   1.110975 S    
C37   C38   1.520663 S    
C2    C13   1.477247 S    
C4    C25   1.470719 S    
C30   H10   1.082988 S    
C25   C26   1.403166 A    
C23   H4    1.083035 S    
O2    C1    1.276056 A    
C24   H5    1.083237 S    
C26   C27   1.391696 A    
O10   C3    1.272316 A    
Zn4   O2    1.930333 S    
C41   H24   1.112268 S    
N5    O16   1.301459 A    
C40   H21   1.110778 S    
Zn4   O1    1.930011 S    
C20   C22   1.403957 A    
C42   H28   1.110761 S    
C8    C9    1.335483 D    
C28   C29   1.399148 A    
C36   H12   1.083433 S    
C44   H32   1.110487 S    
C38   H16   1.110576 S    
Zn3   O5    1.930745 S    
C41   H25   1.112822 S    
C38   H17   1.110419 S    
C35   O14   1.382677 S    
C39   C40   1.520465 S    
C14   C15   1.399097 A    
C31   H8    1.082651 S    
C13   C18   1.412628 A    
Zn4   O7    1.904587 S    
C42   H27   1.110623 S    
C22   C23   1.402417 A    
C37   H15   1.113736 S    
C39   H20   1.114727 S    
O19   C43   1.413253 S    
O3    C2    1.276007 A    
C5    C7    1.432249 S    
Zn2   O1    1.935041 S    
Zn1   O9    1.903906 S    
Zn2   O6    1.903777 S    
C27   C28   1.411080 A    
C29   C30   1.395985 A    
C43   H30   1.111970 S    
Zn1   O3    1.929232 S    
Zn2   O4    1.930530 S    
C7    C11   1.204217 T    
C37   H14   1.115885 S    
Zn3   O1    1.932054 S    
C40   H23   1.110830 S    
C32   C34   1.399830 A    
C20   H3    1.083128 S    
C25   C30   1.404196 A    
C43   H29   1.116179 S    
C13   C14   1.402188 A    
Zn4   O11   1.931848 S    
O14   C37   1.412692 S    
C1    C22   1.472653 S    
C41   C42   1.520712 S    
C19   C21   1.417560 A    
O5    C4    1.274011 A    
O18   C41   1.412503 S    
C29   H9    1.083079 S    
O7    C6    1.277024 A    
O13   C2    1.277690 A    
C31   C33   1.410765 A    
Zn3   O13   1.928738 S    
C44   H31   1.110681 S    
C16   N1    1.420140 S    
C38   H18   1.110795 S    
N5    O15   1.301078 A    
C33   C36   1.398217 A    
O11   C4    1.275623 A    
C43   C44   1.520866 S    
O12   C1    1.277261 A    
O17   C39   1.411559 S    
Zn1   O10   1.932426 S    
C33   N4    1.418836 S    
C9    H1    1.086588 S    
