data_mof_unit_10236.cif
_audit_creation_date              2013-03-05T15:45:43-0500
_audit_creation_method            fapswitch 2.2
_symmetry_space_group_name_H-M    P1
_symmetry_Int_Tables_number       1
_space_group_crystal_system       triclinic
_cell_length_a                    6.927653
_cell_length_b                    16.742298
_cell_length_c                    16.888117
_cell_angle_alpha                 101.34532
_cell_angle_beta                  91.552673
_cell_angle_gamma                 89.3357
_cell_volume                      1919.74553342

loop_
_atom_site_label
_atom_site_type_symbol
_atom_site_description
_atom_site_fract_x
_atom_site_fract_y
_atom_site_fract_z
_atom_type_partial_charge
O1    O     O_R   0.506340 0.439070 0.579550 -0.600002
O2    O     O_R   0.170010 0.404890 0.412100 -0.589997
O3    O     O_R   0.005010 0.560930 0.420450 -0.593147
C1    C     C_R   0.339202 0.382039 0.382729 0.973765
O4    O     O_R   0.176280 0.429360 0.578400 -0.602536
O5    O     O_R   0.011320 0.585570 0.587940 -0.602997
C2    C     C_R   0.349189 0.413820 0.605312 0.925881
O6    O     O_R   0.500030 0.414430 0.412060 -0.595925
O7    O     O_3   0.340950 0.551220 0.502940 -0.273635
V1    V     V_3+5 0.064020 0.490500 0.499460 1.170472
O8    O     O_R   0.681910 0.595110 0.587900 -0.589930
C3    C     C_R   0.852201 0.618694 0.616141 1.055569
O9    O     O_R   0.675640 0.570640 0.421600 -0.578430
C4    C     C_R   0.841873 0.587299 0.395371 1.108551
V2    V     V_3+5 0.564670 0.509500 0.500540 1.184905
O10   O     O_3   0.837610 0.448780 0.497060 -0.289965
C5    C     C_R   0.926583 0.863299 0.169086 -0.312601
C6    C     C_R   0.841965 0.639609 0.333050 -0.481679
C7    C     C_R   0.687355 0.679777 0.214769 -0.338814
C8    C     C_R   0.702542 0.626436 0.269152 0.539110
C9    C     C_R   0.974089 0.704634 0.338276 0.514493
C10   C     C_R   0.956599 0.758752 0.283048 -0.029810
C11   C     C_R   0.812558 0.745821 0.220931 0.090880
C12   C     C_R   0.796572 0.798658 0.165255 -0.217026
C13   C     C_R   0.067275 0.877176 0.232316 0.618854
C14   C     C_R   0.079801 0.825908 0.288792 -0.289437
H1    H     H_    0.687799 0.787610 0.117043 0.155348
H2    H     H_    0.576219 0.669218 0.167519 0.163867
H3    H     H_    0.188833 0.838985 0.336594 0.182050
C15   C     C_3   0.704849 0.782217 0.768258 -0.307366
C16   C     C_3   0.804553 0.777667 0.686991 0.332471
H4    H     H_    0.558955 0.808174 0.783004 0.189403
C17   C     C_3   0.867988 0.689165 0.685982 -0.317696
C18   C     C_3   0.768922 0.692483 0.768015 -0.277530
C19   C     C_3   0.960851 0.724139 0.811233 0.706523
C20   C     C_3   0.062490 0.719700 0.730042 -0.451866
C21   C     C_3   0.994097 0.808223 0.730584 0.521252
C22   C     C_3   0.897870 0.812586 0.812249 -0.339809
H5    H     H_    0.676882 0.644181 0.783460 0.136040
H6    H     H_    0.208440 0.694050 0.714925 0.164776
C23   C     C_3   0.554013 0.285261 0.272456 -0.143317
C24   C     C_3   0.505662 0.194954 0.272128 -0.064511
H7    H     H_    0.607504 0.149604 0.290057 0.102872
H8    H     H_    0.695849 0.314200 0.291102 0.152111
C25   C     C_3   0.408716 0.188558 0.187928 -0.129359
C26   C     C_3   0.457561 0.278185 0.187347 -0.324669
C27   C     C_3   0.263408 0.303760 0.227827 0.723360
C28   C     C_3   0.211529 0.214508 0.227422 -0.234310
C29   C     C_3   0.309869 0.222142 0.312231 -0.232367
C30   C     C_3   0.357643 0.311658 0.311898 -0.201159
H9    H     H_    0.518367 0.300570 0.135661 0.112925
H10   H     H_    0.069775 0.185327 0.209221 0.130120
H11   H     H_    0.249029 0.200094 0.364100 0.124953
C31   C     C_R   0.387209 0.136509 0.831486 -0.180910
C32   C     C_R   0.378707 0.361263 0.666432 -0.167091
C33   C     C_R   0.599548 0.312762 0.762421 -0.117986
C34   C     C_R   0.553921 0.367065 0.711692 -0.154073
C35   C     C_R   0.246984 0.300572 0.674902 -0.227630
C36   C     C_R   0.292113 0.244739 0.725960 0.037930
C37   C     C_R   0.471251 0.250900 0.769699 0.151789
C38   C     C_R   0.518691 0.196282 0.821147 -0.279142
C39   C     C_R   0.211001 0.129908 0.786754 -0.316788
C40   C     C_R   0.163059 0.182232 0.732898 0.556244
H12   H     H_    0.653919 0.202556 0.855585 0.147719
H13   H     H_    0.107264 0.084899 0.795638 0.172121
H14   H     H_    0.736524 0.318861 0.795555 0.123526
H15   H     H_    0.658639 0.413363 0.706983 0.126378
H16   H     H_    0.113191 0.295304 0.639591 0.179818
O11   O     O_R   0.266070 0.085680 0.087850 -0.594137
O12   O     O_R   0.590090 0.070660 0.921580 -0.601590
O13   O     O_R   0.754780 0.914400 0.912080 -0.603005
C41   C     C_R   0.417212 0.085687 0.894156 0.984457
O14   O     O_R   0.596110 0.095130 0.087880 -0.604534
O15   O     O_R   0.760850 0.939050 0.079570 -0.596632
C42   C     C_R   0.426903 0.118191 0.117083 0.948841
O16   O     O_R   0.260010 0.061030 0.920360 -0.601898
O17   O     O_3   0.425070 0.948840 0.997010 -0.259798
V3    V     V_3+5 0.702100 0.009490 0.000550 1.165002
O18   O     O_R   0.090200 0.929250 0.078500 -0.555975
C43   C     C_R   0.924400 0.913623 0.105412 0.997257
O19   O     O_R   0.084180 0.904770 0.912200 -0.579299
C44   C     C_R   0.913949 0.881921 0.883236 1.048039
V4    V     V_3+5 0.201420 0.990350 0.999580 1.210914
O20   O     O_3   0.928580 0.051150 0.002990 -0.295832
O21   O     O_3   0.041141 0.700299 0.880726 -0.623674
C45   C     C_3   0.094200 0.617393 0.861673 -0.237277
H17   H     H_    0.211679 0.607007 0.817146 0.132756
H18   H     H_    0.968156 0.578086 0.839071 0.121672
H19   H     H_    0.150339 0.598804 0.917517 0.170289
O22   O     O_3   0.104418 0.873269 0.714454 -0.640955
C46   C     C_3   0.202290 0.847768 0.641715 -0.070709
H20   H     H_    0.101908 0.822750 0.590566 0.162848
H21   H     H_    0.316334 0.802280 0.648679 0.149067
H22   H     H_    0.273966 0.901394 0.626289 0.181680
O23   O     O_3   0.137282 0.364314 0.208585 -0.639227
C47   C     C_3   0.055389 0.337384 0.130782 -0.317499
H23   H     H_    0.955041 0.285882 0.130066 0.150928
H24   H     H_    0.167908 0.320046 0.084609 0.141032
H25   H     H_    0.969762 0.388078 0.113790 0.169214
O24   O     O_3   0.201916 0.938170 0.236641 -0.609218
C48   C     C_3   0.135475 0.007815 0.290097 -0.265831
H26   H     H_    0.111180 0.995276 0.351406 0.141565
H27   H     H_    0.001789 0.032715 0.265700 0.122246
H28   H     H_    0.248422 0.054985 0.296544 0.178511
O25   O     O_3   0.984352 0.179196 0.692567 -0.652213
C49   C     C_3   0.929805 0.098454 0.658523 -0.148580
H29   H     H_    0.857512 0.070123 0.703964 0.169214
H30   H     H_    0.053755 0.060275 0.631944 0.133105
H31   H     H_    0.822742 0.100256 0.608857 0.169688
O26   O     O_3   0.571756 0.563620 0.261806 -0.624754
C50   C     C_3   0.650510 0.494304 0.211803 -0.235342
H32   H     H_    0.780723 0.471727 0.240853 0.154411
H33   H     H_    0.685073 0.506319 0.151208 0.129211
H34   H     H_    0.541102 0.445488 0.202553 0.182808
O27   O     O_3   0.106218 0.720133 0.402333 -0.634930
C51   C     C_3   0.285682 0.685412 0.376161 -0.059039
H35   H     H_    0.274521 0.618690 0.353002 0.174493
H36   H     H_    0.389012 0.695107 0.428416 0.193229
H37   H     H_    0.346917 0.714733 0.328964 0.108533
N1    N     N_R   0.720696 0.809776 0.619501 0.220491
O28   O     O_R   0.692366 0.762505 0.549353 -0.447743
O29   O     O_R   0.681081 0.887097 0.628552 -0.434381

loop_
_geom_bond_atom_site_label_1
_geom_bond_atom_site_label_2
_geom_bond_distance
_ccdc_geom_bond_type
C15   H4    1.110534 S    
C48   H26   1.113648 S    
O12   V3    1.972933 S    
C6    C9    1.418346 A    
C23   C24   1.551305 S    
C4    C6    1.495800 S    
O2    C1    1.308693 A    
C7    C8    1.402642 A    
C12   H1    1.084306 S    
C2    C32   1.491056 S    
C41   O16   1.288673 A    
O19   C44   1.296890 A    
O17   V3    2.175533 S    
C33   C34   1.394827 A    
C21   C22   1.536515 S    
C21   O22   1.411227 S    
C20   C21   1.549096 S    
C33   C37   1.398256 A    
O5    C3    1.288355 A    
C15   C16   1.541261 S    
C33   H14   1.083975 S    
C49   H29   1.110985 S    
O17   V4    1.688853 S    
V2    O10   2.133099 S    
C47   H25   1.108838 S    
C17   C20   1.562886 S    
C51   H35   1.111433 S    
C15   C22   1.553007 S    
C18   C19   1.546949 S    
O26   C50   1.407925 S    
O8    V2    2.005180 S    
V4    O20   2.133156 S    
C47   H24   1.112906 S    
C23   C26   1.552169 S    
C16   C17   1.537631 S    
O1    V2    1.998362 S    
C40   O25   1.393317 S    
O7    V1    2.175561 S    
C39   H13   1.081532 S    
C1    O6    1.288103 A    
O13   C44   1.288346 A    
C36   C37   1.421152 A    
C48   H27   1.113209 S    
O15   C43   1.300204 A    
O9    C4    1.297654 A    
C22   C44   1.498461 S    
O14   C42   1.308540 A    
C34   H15   1.083449 S    
O16   V4    2.004600 S    
O19   V4    2.005092 S    
N1    O29   1.300270 A    
C27   C30   1.528859 S    
C5    C12   1.406604 A    
C15   C18   1.560867 S    
C45   H18   1.112498 S    
C18   H5    1.110193 S    
C20   H6    1.110267 S    
C19   C22   1.535867 S    
C46   H20   1.112236 S    
O4    C2    1.311068 A    
C45   H17   1.111977 S    
C31   C39   1.411854 A    
C13   C14   1.403520 A    
O21   C45   1.408598 S    
O14   V3    1.993085 S    
C26   H9    1.110003 S    
C5    C43   1.490545 S    
C16   C21   1.530662 S    
C1    C30   1.511931 S    
C37   C38   1.410406 A    
C24   C25   1.540955 S    
C38   H12   1.084268 S    
C7    C11   1.399233 A    
C39   C40   1.412562 A    
O11   V4    2.003614 S    
V3    O20   1.720588 S    
C46   H21   1.110973 S    
C13   O24   1.381016 S    
C27   C28   1.539602 S    
C11   C12   1.413592 A    
C47   H23   1.111856 S    
C17   C18   1.553631 S    
C50   H33   1.113733 S    
C7    H2    1.084025 S    
O3    C4    1.299075 A    
C8    O26   1.380944 S    
C35   H16   1.083384 S    
C28   C29   1.552090 S    
C48   H28   1.106199 S    
O9    V2    2.006685 S    
C10   C14   1.406029 A    
C23   H8    1.110695 S    
C24   H7    1.110129 S    
O2    V1    1.993108 S    
C23   C30   1.552089 S    
N1    O28   1.300169 A    
C25   C28   1.556056 S    
C26   C27   1.543081 S    
C50   H32   1.112814 S    
O1    C2    1.289165 A    
C45   H19   1.109211 S    
O5    V1    1.994968 S    
O8    C3    1.296660 A    
C31   C38   1.400052 A    
O6    V2    2.002829 S    
O25   C49   1.412445 S    
C36   C40   1.408486 A    
C9    O27   1.384523 S    
C51   H37   1.110553 S    
C25   C42   1.511761 S    
C5    C13   1.412604 A    
C32   C34   1.410777 A    
C35   C36   1.418033 A    
O4    V1    1.972857 S    
O3    V1    1.978960 S    
V1    O10   1.720614 S    
C46   H22   1.109004 S    
O18   V4    2.006696 S    
C19   O21   1.410623 S    
O22   C46   1.408232 S    
C49   H30   1.114755 S    
C29   H11   1.109968 S    
O24   C48   1.407966 S    
C51   H36   1.108893 S    
O11   C42   1.288393 A    
C50   H34   1.106600 S    
C6    C8    1.414527 A    
O7    V2    1.690781 S    
C16   N1    1.457230 S    
C24   C29   1.555591 S    
O18   C43   1.294743 A    
C25   C26   1.544031 S    
C28   H10   1.110500 S    
C31   C41   1.491861 S    
C14   H3    1.082322 S    
C29   C30   1.539691 S    
O15   V3    1.978886 S    
C32   C35   1.404074 A    
O23   C47   1.408571 S    
C27   O23   1.410877 S    
C10   C11   1.414927 A    
O12   C41   1.311843 A    
C19   C20   1.546733 S    
C3    C17   1.497882 S    
C9    C10   1.424543 A    
O13   V3    1.995059 S    
O27   C51   1.411001 S    
C49   H31   1.109169 S    
