data_mof_unit_21152.cif
_audit_creation_date              2012-12-11T14:19:22-0500
_audit_creation_method            fapswitch 2.2
_symmetry_space_group_name_H-M    P1
_symmetry_Int_Tables_number       1
_space_group_crystal_system       triclinic
_cell_length_a                    19.404491
_cell_length_b                    7.243675
_cell_length_c                    17.73379
_cell_angle_alpha                 90.000772
_cell_angle_beta                  107.723434
_cell_angle_gamma                 90.001034
_cell_volume                      2374.34952371

loop_
_atom_site_label
_atom_site_type_symbol
_atom_type_description
_atom_site_fract_x
_atom_site_fract_y
_atom_site_fract_z
_atom_type_partial_charge
O1    O     O_R   0.414820 0.494320 0.416790 -0.538406
O2    O     O_R   0.585180 0.994320 0.583210 -0.538406
O3    O     O_R   0.560270 0.819500 0.430140 -0.543999
O4    O     O_R   0.439730 0.319500 0.569860 -0.544000
C1    C     C_R   0.580976 0.655383 0.414450 0.708541
C2    C     C_R   0.419025 0.155382 0.585552 0.708543
O5    O     O_R   0.413840 0.823740 0.407440 -0.539690
O6    O     O_R   0.586160 0.323740 0.592560 -0.539691
O7    O     O_R   0.437710 0.998590 0.560350 -0.539472
O8    O     O_R   0.562290 0.498590 0.439650 -0.539467
C3    C     C_R   0.387591 0.654922 0.385247 0.732732
C4    C     C_R   0.612408 0.154925 0.614754 0.732727
O9    O     O_3   0.508000 0.662290 0.550200 -0.379877
O10   O     O_3   0.492000 0.162290 0.449800 -0.379874
V1    V     V_3+5 0.498520 0.935380 0.490690 1.392795
V2    V     V_3+5 0.501480 0.435380 0.509310 1.392795
C5    C     C_2   0.785194 0.271785 0.788624 -0.129421
C6    C     C_2   0.214816 0.771784 0.211368 -0.129431
C7    C     C_2   0.820376 0.113472 0.817127 -0.306316
C8    C     C_2   0.179626 0.613476 0.182870 -0.306306
H1    H     H_    0.807094 0.402008 0.815905 0.141047
H2    H     H_    0.192924 0.902004 0.184083 0.141045
H3    H     H_    0.800211 0.981837 0.790573 0.129436
H4    H     H_    0.199788 0.481841 0.209422 0.129438
C9    C     C_2   0.717336 0.284600 0.720543 -0.138977
C10   C     C_2   0.282679 0.784593 0.279444 -0.138980
C11   C     C_2   0.679293 0.138460 0.682608 -0.303709
C12   C     C_2   0.320702 0.638457 0.317398 -0.303725
H5    H     H_    0.698062 0.422884 0.701623 0.138515
H6    H     H_    0.301973 0.922870 0.298344 0.138529
H7    H     H_    0.697102 0.999332 0.700921 0.132242
H8    H     H_    0.302872 0.499335 0.299107 0.132247
C13   C     C_R   0.324282 0.996230 0.631637 -0.222171
C14   C     C_R   0.675735 0.496259 0.368383 -0.222164
C15   C     C_R   0.370442 0.147592 0.636013 -0.070371
C16   C     C_R   0.629560 0.647596 0.363989 -0.070370
C17   C     C_R   0.369400 0.293716 0.687883 -0.226716
C18   C     C_R   0.630588 0.793699 0.312103 -0.226704
C19   C     C_R   0.322649 0.291886 0.735434 0.029947
C20   C     C_R   0.677337 0.791868 0.264549 0.029952
C21   C     C_R   0.275175 0.139689 0.728693 0.034023
C22   C     C_R   0.724820 0.639687 0.271301 0.034015
C23   C     C_R   0.276384 0.991823 0.676938 0.108751
C24   C     C_R   0.723631 0.491850 0.323079 0.108757
C25   C     C_R   0.322333 0.437321 0.789522 0.126961
C26   C     C_R   0.677646 0.937291 0.210453 0.126955
C27   C     C_R   0.272028 0.429769 0.832721 -0.185033
C28   C     C_R   0.727934 0.929712 0.167231 -0.184983
C29   C     C_R   0.224646 0.280267 0.825396 0.044222
C30   C     C_R   0.775323 0.780225 0.174566 0.044235
C31   C     C_R   0.226663 0.133749 0.774037 0.044187
C32   C     C_R   0.773329 0.633744 0.225954 0.044144
C33   C     C_R   0.180328 0.980314 0.768319 0.091483
C34   C     C_R   0.819692 0.480348 0.231705 0.091499
C35   C     C_R   0.182366 0.834793 0.716919 -0.184847
C36   C     C_R   0.817679 0.334863 0.283134 -0.184797
C37   C     C_R   0.229703 0.840925 0.671372 -0.183423
C38   C     C_R   0.770334 0.340988 0.328673 -0.183436
C39   C     C_R   0.175935 0.274053 0.870006 -0.203483
C40   C     C_R   0.824027 0.774004 0.129947 -0.203465
C41   C     C_R   0.130206 0.120894 0.865421 -0.074341
C42   C     C_R   0.869790 0.620891 0.134574 -0.074334
C43   C     C_R   0.133040 0.974167 0.814457 -0.217166
C44   C     C_R   0.866989 0.474210 0.185577 -0.217144
H9    H     H_    0.324680 0.882910 0.591819 0.122903
H10   H     H_    0.675354 0.382964 0.408222 0.122893
H11   H     H_    0.405862 0.408152 0.690806 0.124350
H12   H     H_    0.594116 0.908118 0.309171 0.124344
H13   H     H_    0.269510 0.539085 0.873291 0.139819
H14   H     H_    0.730439 0.039004 0.126643 0.139800
H15   H     H_    0.174825 0.386982 0.909748 0.125515
H16   H     H_    0.825111 0.886895 0.090173 0.125493
H17   H     H_    0.097954 0.855567 0.810088 0.130222
H18   H     H_    0.902110 0.355656 0.189983 0.130202
H19   H     H_    0.147473 0.715730 0.712112 0.132097
H20   H     H_    0.852601 0.215840 0.287975 0.132072
H21   H     H_    0.230362 0.726353 0.632297 0.126752
H22   H     H_    0.769698 0.226449 0.367775 0.126740
O11   O     O_R   0.937810 0.773680 0.060480 -0.537323
O12   O     O_R   0.062190 0.273680 0.939520 -0.537330
O13   O     O_R   0.086190 0.439740 0.092580 -0.543384
O14   O     O_R   0.913810 0.939740 0.907420 -0.543386
C45   C     C_R   0.112492 0.608312 0.114744 0.731914
C46   C     C_R   0.887508 0.108310 0.885255 0.731917
O15   O     O_R   0.939760 0.444210 0.069890 -0.543101
O16   O     O_R   0.060240 0.944210 0.930110 -0.543107
O17   O     O_R   0.914790 0.269640 0.916760 -0.534802
O18   O     O_R   0.085210 0.769640 0.083240 -0.534803
C47   C     C_R   0.919211 0.612553 0.085052 0.696273
C48   C     C_R   0.080788 0.112554 0.914947 0.696274
O19   O     O_3   0.992050 0.601530 0.949880 -0.378605
O20   O     O_3   0.007950 0.101530 0.050120 -0.378598
V3    V     V_3+5 0.001480 0.328340 0.009300 1.396832
V4    V     V_3+5 0.998520 0.828340 0.990700 1.396826
C49   C     C_3   0.376682 0.595574 0.801232 -0.342573
C50   C     C_3   0.375251 0.739864 0.863787 -0.752152
H23   H     H_    0.322099 0.810609 0.848160 0.235839
H24   H     H_    0.387113 0.674439 0.923016 0.221733
H25   H     H_    0.417320 0.845903 0.866709 0.220188
H26   H     H_    0.432090 0.535970 0.818733 0.175296
H27   H     H_    0.367777 0.668551 0.744022 0.184728
C51   C     C_3   0.623317 0.095580 0.198770 -0.342587
C52   C     C_3   0.624748 0.239889 0.136224 -0.752126
H28   H     H_    0.677913 0.310585 0.151842 0.235831
H29   H     H_    0.612855 0.174488 0.076984 0.221727
H30   H     H_    0.582699 0.345972 0.133331 0.220185
H31   H     H_    0.567901 0.036017 0.181280 0.175291
H32   H     H_    0.632248 0.168542 0.255990 0.184748

loop_
_geom_bond_atom_site_label_1
_geom_bond_atom_site_label_2
_ccdc_geom_bond_type
C1    C16   S    
C36   H20   S    
C49   C50   S    
O1    C3    A    
C46   O17   A    
O2    C4    A    
C50   H25   S    
C14   H10   S    
C2    O7    A    
C13   H9    S    
C27   C29   A    
C20   C26   A    
C26   C51   S    
O14   V4    S    
C15   C17   A    
C40   H16   S    
C42   C47   S    
O17   V3    S    
C2    C15   S    
C40   C42   A    
C25   C27   A    
C41   C43   A    
C27   H13   S    
C42   C44   A    
O16   V4    S    
C5    C7    D    
C6    C10   S    
O15   V3    S    
C8    H4    S    
C24   C38   A    
C29   C31   A    
C50   H24   S    
C30   C32   A    
C51   H32   S    
C14   C16   A    
C19   C25   A    
C35   H19   S    
C28   C30   A    
C45   O18   A    
O6    V2    S    
C21   C23   A    
C38   H22   S    
C22   C24   A    
O13   C45   A    
C32   C34   A    
O5    C3    A    
O18   V4    S    
C33   C35   A    
C9    H5    S    
C34   C36   A    
C39   C41   A    
C4    C11   S    
C11   H7    S    
C13   C23   A    
C37   H21   S    
C12   H8    S    
C14   C24   A    
O11   V4    S    
O4    C2    A    
O16   C48   A    
O15   C47   A    
C49   H26   S    
O5    V1    S    
C43   H17   S    
C5    H1    S    
C31   C33   A    
O4    V2    S    
C7    H3    S    
O13   V3    S    
O6    C4    A    
C50   H23   S    
C51   H31   S    
C52   H29   S    
O1    V2    S    
O2    V1    S    
C18   H12   S    
C10   H6    S    
O14   C46   A    
C35   C37   A    
O9    V2    S    
C7    C46   S    
C25   C49   S    
O3    V1    S    
C41   C48   S    
C6    H2    S    
C28   H14   S    
O3    C1    A    
C9    C11   D    
C10   C12   D    
C29   C39   A    
C30   C40   A    
C16   C18   A    
O7    V1    S    
C5    C9    S    
C1    O8    A    
C17   C19   A    
O8    V2    S    
O19   V4    S    
C18   C20   A    
C33   C43   A    
C34   C44   A    
C3    C12   S    
C17   H11   S    
C20   C22   A    
O20   V3    S    
C13   C15   A    
C36   C38   A    
C52   H30   S    
C6    C8    D    
O12   C48   A    
C51   C52   S    
O11   C47   A    
C23   C37   A    
C26   C28   A    
C19   C21   A    
C8    C45   S    
C22   C32   A    
C52   H28   S    
C44   H18   S    
O10   V1    S    
O12   V3    S    
C21   C31   A    
C49   H27   S    
C39   H15   S    
