data_mof_unit_53171.cif
_audit_creation_date              2012-12-10T20:30:14-0500
_audit_creation_method            fapswitch 2.2
_symmetry_space_group_name_H-M    P1
_symmetry_Int_Tables_number       1
_space_group_crystal_system       triclinic
_cell_length_a                    9.891211
_cell_length_b                    10.622137
_cell_length_c                    13.110285
_cell_angle_alpha                 89.771741
_cell_angle_beta                  69.611781
_cell_angle_gamma                 89.074875
_cell_volume                      1290.98051804

loop_
_atom_site_label
_atom_site_type_symbol
_atom_type_description
_atom_site_fract_x
_atom_site_fract_y
_atom_site_fract_z
_atom_type_partial_charge
C1    C     C_R   0.499347 0.739672 0.499752 0.867325
C2    C     C_R   0.365703 0.509919 0.823565 -0.243031
C3    C     C_R   0.502083 0.936666 0.407018 0.111534
C4    C     C_R   0.419276 0.504854 0.704531 0.868783
C5    C     C_R   0.500498 0.871716 0.499677 -0.066932
C6    C     C_R   0.528779 0.933847 0.583884 -0.249291
C7    C     C_R   0.532480 0.064078 0.583041 -0.243339
C8    C     C_R   0.507990 0.128770 0.497897 -0.072122
C9    C     C_R   0.505847 0.065247 0.406237 0.102301
C10   C     C_3   0.405794 0.077910 0.343992 -0.505302
C11   C     C_3   0.399973 0.935268 0.345779 -0.490345
C12   C     C_R   0.430605 0.519597 0.985645 0.086372
C13   C     C_R   0.908478 0.600638 0.540415 0.135002
C14   C     C_R   0.944524 0.396632 0.468495 -0.113545
C15   C     C_R   0.088233 0.396727 0.468307 -0.113730
C16   C     C_R   0.501347 0.260507 0.499988 0.866584
C17   C     C_R   0.050783 0.600283 0.540822 0.161210
C18   C     C_3   0.074258 0.730791 0.497580 -0.594503
C19   C     C_3   0.920254 0.732380 0.498349 0.348133
C20   C     C_R   0.580416 0.500755 0.295647 0.863227
C21   C     C_R   0.767116 0.636479 0.019874 -0.180214
C22   C     C_R   0.629099 0.518578 0.178784 -0.068234
C23   C     C_R   0.455959 0.556537 0.877480 0.029751
C24   C     C_R   0.234721 0.451334 0.883678 0.531482
C25   C     C_R   0.197722 0.436733 0.995802 -0.242690
C26   C     C_R   0.296038 0.466139 0.045862 -0.284928
C27   C     C_3   0.915052 0.862928 0.359142 -0.300318
C28   C     C_3   0.155491 0.280929 0.818281 -0.281879
C29   C     C_R   0.540362 0.538877 0.029650 0.101010
C30   C     C_R   0.661662 0.613079 0.973343 0.175910
C31   C     C_R   0.673856 0.664912 0.872860 -0.253354
C32   C     C_R   0.572253 0.637275 0.825454 -0.175697
C33   C     C_R   0.533443 0.484454 0.127875 -0.256101
C34   C     C_R   0.749118 0.591603 0.123895 -0.201383
H1    H     H_    0.823859 0.619233 0.163282 0.175166
H2    H     H_    0.844698 0.797852 0.558750 0.061178
H3    H     H_    0.763125 0.725211 0.830032 0.136664
H4    H     H_    0.859428 0.694027 0.978072 0.142253
H5    H     H_    0.449555 0.419288 0.169589 0.144516
H6    H     H_    0.262220 0.449735 0.132374 0.166490
H7    H     H_    0.094797 0.397045 0.043479 0.164839
H8    H     H_    0.585013 0.680966 0.748055 0.148535
H9    H     H_    0.301152 0.123641 0.391757 0.205123
H10   H     H_    0.016285 0.909672 0.356017 0.154396
H11   H     H_    0.819630 0.916479 0.413148 0.170896
H12   H     H_    0.546131 0.113942 0.650694 0.148579
H13   H     H_    0.910096 0.864861 0.275915 0.181211
H14   H     H_    0.085987 0.251056 0.772453 0.192655
H15   H     H_    0.268564 0.253143 0.769194 0.143338
H16   H     H_    0.119426 0.230232 0.897425 0.145416
H17   H     H_    0.541400 0.882333 0.651605 0.136395
H18   H     H_    0.459998 0.117119 0.261264 0.197687
H19   H     H_    0.292208 0.901018 0.395655 0.207633
H20   H     H_    0.448702 0.891478 0.263958 0.205805
H21   H     H_    0.905118 0.314150 0.440363 0.137507
H22   H     H_    0.156364 0.314461 0.439794 0.132505
H23   H     H_    0.091378 0.797809 0.556664 0.166521
H24   H     H_    0.156664 0.732054 0.414428 0.232304
N1    N     N_R   0.856940 0.500860 0.500710 -0.077787
N2    N     N_R   0.142580 0.500820 0.500710 -0.082570
O1    O     O_R   0.385310 0.683210 0.499990 -0.618916
O2    O     O_3   0.140236 0.412444 0.833755 -0.589962
O3    O     O_R   0.614650 0.683240 0.500000 -0.593335
O4    O     O_R   0.328390 0.499940 0.653610 -0.551265
O5    O     O_R   0.557730 0.499980 0.653620 -0.623436
O6    O     O_R   0.385350 0.316760 0.500000 -0.624479
O7    O     O_R   0.614690 0.316790 0.500010 -0.626964
O8    O     O_R   0.442270 0.500020 0.346380 -0.612920
O9    O     O_R   0.671610 0.500060 0.346390 -0.591798
O10   O     O_3   0.913374 0.736447 0.392460 -0.550749
Zn1   Zn    Zn3+2 0.346870 0.499980 0.499990 0.963059
Zn2   Zn    Zn3+2 0.653130 0.500020 0.500010 0.971829

loop_
_geom_bond_atom_site_label_1
_geom_bond_atom_site_label_2
_ccdc_geom_bond_type
C8    C9    A    
O9    Zn2   S    
C2    C4    S    
C24   C25   A    
O6    Zn1   S    
C6    C7    A    
C3    C9    A    
C12   C29   A    
O5    Zn2   S    
C21   C30   A    
C4    O4    A    
C18   H23   S    
C31   C32   A    
C11   H19   S    
C13   C17   A    
N1    Zn2   S    
C10   H18   S    
C23   C32   A    
O1    Zn1   S    
C17   C18   S    
C25   C26   A    
C7    C8    A    
C8    C16   S    
C16   O7    A    
C33   H5    S    
C15   H22   S    
C14   N1    A    
C11   H20   S    
C12   C23   A    
C26   H6    S    
C29   C30   A    
C27   O10   S    
C28   O2    S    
O8    Zn1   S    
C13   N1    A    
C5    C6    A    
C1    O3    A    
C9    C10   S    
C20   C22   S    
C14   H21   S    
C19   H2    S    
C28   H15   S    
C2    C24   A    
C30   C31   A    
C22   C34   A    
C1    C5    S    
C20   O9    A    
C16   O6    A    
C27   H11   S    
C13   C19   S    
C17   N2    A    
C27   H13   S    
C7    H12   S    
C29   C33   A    
O7    Zn2   S    
C3    C11   S    
O3    Zn2   S    
C34   H1    S    
C10   C11   S    
O4    Zn1   S    
C25   H7    S    
C2    C23   A    
C22   C33   A    
C32   H8    S    
C4    O5    A    
C18   C19   S    
C19   O10   S    
C24   O2    S    
C21   C34   A    
N2    Zn1   S    
C10   H9    S    
C14   C15   A    
C28   H16   S    
C27   H10   S    
C20   O8    A    
C15   N2    A    
C28   H14   S    
C21   H4    S    
C31   H3    S    
C12   C26   A    
C18   H24   S    
C3    C5    A    
C6    H17   S    
C1    O1    A    
