data_mof_unit_51989.cif
_audit_creation_date              2012-12-11T15:14:52-0500
_audit_creation_method            fapswitch 2.2
_symmetry_space_group_name_H-M    P1
_symmetry_Int_Tables_number       1
_space_group_crystal_system       triclinic
_cell_length_a                    11.191921
_cell_length_b                    11.165609
_cell_length_c                    18.373619
_cell_angle_alpha                 89.361856
_cell_angle_beta                  89.873993
_cell_angle_gamma                 119.859301
_cell_volume                      1991.04979903

loop_
_atom_site_label
_atom_site_type_symbol
_atom_type_description
_atom_site_fract_x
_atom_site_fract_y
_atom_site_fract_z
_atom_type_partial_charge
C1    C     C_R   0.521073 0.461338 0.646345 0.538112
C2    C     C_R   0.453487 0.520376 0.355738 0.555232
C3    C     C_R   0.482724 0.943876 0.147141 0.538465
C4    C     C_R   0.067518 0.545428 0.356366 0.584669
C5    C     C_3   0.472313 0.085434 0.465331 0.274530
C6    C     C_3   0.597472 0.534034 0.048481 0.328672
C7    C     C_3   0.928418 0.383911 0.469076 0.291436
C8    C     C_3   0.429695 0.058166 0.027720 0.272173
C9    C     C_3   0.610270 0.522304 0.464176 0.294697
C10   C     C_3   0.006174 0.394323 0.024585 0.323515
C11   C     C_3   0.064647 0.466639 0.950815 0.326648
C12   C     C_R   0.879884 0.455572 0.863081 0.541067
C13   C     C_3   0.613545 0.624316 0.519745 0.265616
C14   C     C_3   0.371584 0.943414 0.972954 0.272057
C15   C     C_3   0.031654 0.399639 0.527312 0.265200
C16   C     C_3   0.610426 0.606296 0.974798 0.323744
C17   C     C_3   0.377103 0.985262 0.524353 0.269437
C18   C     C_3   0.598551 0.118960 0.513607 -0.083499
C19   C     C_3   0.527005 0.391976 0.013194 -0.151154
C20   C     C_3   0.881537 0.467943 0.516214 -0.087605
C21   C     C_3   0.564058 0.132335 0.981239 -0.143032
C22   C     C_3   0.518746 0.401445 0.516824 -0.077942
C23   C     C_R   0.540594 0.060788 0.646128 0.539776
C24   C     C_3   0.874096 0.400632 0.009899 -0.179109
C25   C     C_3   0.135515 0.608770 0.986142 -0.152026
C26   C     C_3   0.484127 0.613403 0.484595 -0.154419
C27   C     C_3   0.430492 0.867411 0.018895 -0.142183
C28   C     C_3   0.139974 0.532635 0.488888 -0.165452
C29   C     C_3   0.472079 0.599902 0.990102 -0.180102
C30   C     C_3   0.390420 0.868875 0.488141 -0.158851
C31   C     C_3   0.501832 0.014152 0.571779 0.002622
C32   C     C_3   0.536615 0.463157 0.939219 -0.022782
C33   C     C_3   0.990458 0.487746 0.573661 -0.008325
C34   C     C_R   0.545297 0.423712 0.863228 0.533539
C35   C     C_3   0.504847 0.010612 0.928520 0.027946
C36   C     C_3   0.517563 0.504460 0.571882 -0.019858
C37   C     C_3   0.935372 0.474434 0.936717 0.024229
C38   C     C_3   0.074646 0.537376 0.060344 -0.022380
C39   C     C_3   0.480608 0.507206 0.431142 0.040119
C40   C     C_3   0.494503 0.989067 0.071523 0.030400
C41   C     C_3   0.032060 0.518239 0.432970 0.041733
C42   C     C_3   0.460490 0.526174 0.063224 0.024929
C43   C     C_3   0.489943 0.972696 0.431368 0.033391
C44   C     C_3   0.514400 0.898568 0.537013 -0.193083
C45   C     C_R   0.942397 0.480979 0.647389 0.538121
C46   C     C_3   0.397779 0.454902 0.955388 -0.176738
C47   C     C_3   0.097946 0.619491 0.536837 -0.194223
C48   C     C_3   0.565617 0.938362 0.973573 -0.156942
C49   C     C_3   0.390111 0.494099 0.537594 -0.184870
C50   C     C_3   0.004017 0.616856 0.971525 -0.101810
C51   C     C_3   0.943848 0.545546 0.044715 -0.173754
C52   C     C_3   0.386933 0.388977 0.483107 -0.104291
C53   C     C_3   0.626921 0.059410 0.026008 -0.155136
C54   C     C_3   0.990871 0.604427 0.480100 -0.112044
C55   C     C_3   0.387518 0.383757 0.028453 -0.101208
C56   C     C_R   0.538819 0.056016 0.852869 0.533914
C57   C     C_3   0.612619 0.001281 0.479343 -0.101247
C58   C     C_3   0.347130 0.124602 0.376127 -0.103415
C59   C     C_3   0.677450 0.482224 0.154842 -0.106102
C60   C     C_3   0.926062 0.206036 0.402546 -0.084963
C61   C     C_3   0.230713 0.020705 0.090304 -0.082687
C62   C     C_3   0.769996 0.634242 0.370849 -0.095453
C63   C     C_3   0.967730 0.215719 0.107035 -0.105734
C64   C     C_3   0.193661 0.518883 0.843197 -0.106810
C65   C     C_3   0.825265 0.760465 0.574545 -0.091804
C66   C     C_3   0.211457 0.982917 0.910689 -0.082628
C67   C     C_R   0.424244 0.544784 0.137102 0.540926
C68   C     C_3   0.959585 0.186690 0.584718 -0.090644
C69   C     C_3   0.751181 0.784058 0.892035 -0.104645
C70   C     C_3   0.228437 0.064234 0.558835 -0.086155
C71   C     C_R   0.478567 0.933081 0.355762 0.561227
C72   C     C_R   0.121988 0.576339 0.136578 0.537281
Cr1   Cr    Cr6+3 0.769930 0.543130 0.750000 0.961099
Cr2   Cr    Cr6+3 0.773200 0.230070 0.750000 0.998379
Cr3   Cr    Cr6+3 0.456870 0.226800 0.750000 0.985529
Cr4   Cr    Cr6+3 0.543130 0.769930 0.250000 0.999917
Cr5   Cr    Cr6+3 0.230070 0.773200 0.250000 0.959436
Cr6   Cr    Cr6+3 0.226800 0.456870 0.250000 0.958093
H1    H     H_    0.528218 0.823656 0.570857 0.168994
H2    H     H_    0.981463 0.694904 0.463638 0.157658
H3    H     H_    0.288405 0.295212 0.047395 0.213360
H4    H     H_    0.701465 0.993455 0.460473 0.174630
H5    H     H_    0.681693 0.219640 0.530261 0.129958
H6    H     H_    0.566373 0.329462 0.037010 0.146532
H7    H     H_    0.777174 0.442654 0.533402 0.129008
H8    H     H_    0.616776 0.234949 0.953852 0.084185
H9    H     H_    0.539083 0.319382 0.535654 0.129937
H10   H     H_    0.773516 0.330611 0.033685 0.090645
H11   H     H_    0.236729 0.671497 0.961535 0.146754
H12   H     H_    0.311895 0.406961 0.917833 0.228874
H13   H     H_    0.473024 0.697649 0.460724 0.129637
H14   H     H_    0.379150 0.764682 0.046160 0.084975
H15   H     H_    0.238317 0.553922 0.465319 0.114357
H16   H     H_    0.439365 0.668041 0.965763 0.090741
H17   H     H_    0.308552 0.775872 0.464064 0.125625
H18   H     H_    0.300729 0.190925 0.369503 0.129665
H19   H     H_    0.386106 0.120069 0.321300 0.159517
H20   H     H_    0.262634 0.021465 0.394571 0.126370
H21   H     H_    0.704345 0.405540 0.134619 0.092448
H22   H     H_    0.569785 0.426898 0.175415 0.163656
H23   H     H_    0.166619 0.707664 0.571057 0.193358
H24   H     H_    0.745599 0.533382 0.201589 0.146530
H25   H     H_    0.912816 0.120977 0.438989 0.105604
H26   H     H_    0.038931 0.276722 0.400433 0.153830
H27   H     H_    0.890919 0.163849 0.347419 0.136786
H28   H     H_    0.233290 0.036076 0.149956 0.133322
H29   H     H_    0.199606 0.910955 0.080186 0.175768
H30   H     H_    0.149165 0.038963 0.067794 0.128864
H31   H     H_    0.878460 0.668764 0.358183 0.142265
H32   H     H_    0.715818 0.593240 0.318993 0.147594
H33   H     H_    0.765852 0.727195 0.388552 0.142762
H34   H     H_    0.621021 0.888986 0.951994 0.152338
H35   H     H_    0.910272 0.101979 0.100690 0.128654
H36   H     H_    0.897171 0.247285 0.132318 0.118746
H37   H     H_    0.053770 0.236880 0.144180 0.161471
H38   H     H_    0.300679 0.589415 0.860744 0.088961
H39   H     H_    0.146069 0.582027 0.827899 0.157520
H40   H     H_    0.199329 0.466657 0.793373 0.156797
H41   H     H_    0.831226 0.665197 0.569414 0.165460
H42   H     H_    0.810575 0.777949 0.632390 0.148731
H43   H     H_    0.925601 0.847516 0.555870 0.124484
H44   H     H_    0.110534 0.964719 0.931469 0.128560
H45   H     H_    0.308296 0.489818 0.573262 0.179474
H46   H     H_    0.202353 0.968353 0.850922 0.144592
H47   H     H_    0.288916 0.092350 0.921878 0.173142
H48   H     H_    0.856455 0.170579 0.570358 0.160772
H49   H     H_    0.973940 0.195539 0.644497 0.158265
H50   H     H_    0.961996 0.092727 0.568296 0.105667
H51   H     H_    0.806807 0.897913 0.897911 0.129469
H52   H     H_    0.649803 0.752450 0.866305 0.115485
H53   H     H_    0.816835 0.762176 0.855570 0.164216
H54   H     H_    0.184221 0.080028 0.508264 0.113632
H55   H     H_    0.324491 0.157893 0.573931 0.173304
H56   H     H_    0.993167 0.705581 0.952685 0.213255
H57   H     H_    0.153249 0.042754 0.603444 0.128070
H58   H     H_    0.905835 0.593502 0.082564 0.227295
H59   H     H_    0.289660 0.297056 0.467717 0.149295
H60   H     H_    0.731671 0.107306 0.047104 0.151340
O1    O     O_R   0.913270 0.574260 0.668550 -0.535989
O2    O     O_R   0.574260 0.913270 0.331450 -0.523388
O3    O     O_R   0.086730 0.660990 0.168550 -0.527666
O4    O     O_R   0.339010 0.425740 0.331450 -0.543463
O5    O     O_R   0.640160 0.530400 0.673300 -0.521538
O6    O     O_R   0.890240 0.359840 0.826700 -0.456452
O7    O     O_R   0.469600 0.109760 0.673300 -0.500280
O8    O     O_R   0.640160 0.530400 0.826700 -0.524123
O9    O     O_R   0.890240 0.359840 0.673300 -0.519598
O10   O     O_R   0.469600 0.109760 0.826700 -0.529396
O11   O     O_R   0.530400 0.640160 0.173300 -0.459105
O12   O     O_R   0.660990 0.086730 0.831450 -0.520190
O13   O     O_R   0.359840 0.890240 0.326700 -0.536774
O14   O     O_R   0.109760 0.469600 0.173300 -0.519269
O15   O     O_R   0.530400 0.640160 0.326700 -0.532544
O16   O     O_R   0.359840 0.890240 0.173300 -0.532568
O17   O     O_R   0.109760 0.469600 0.326700 -0.519088
O18   O     O_3   0.666667 0.333333 0.750000 -0.298514
O19   O     O_3   0.333333 0.666667 0.250000 -0.299069
O20   O     O_3   0.458576 0.186159 0.424843 -0.570509
O21   O     O_3   0.702670 0.584405 0.101036 -0.553233
O22   O     O_3   0.846886 0.265422 0.427328 -0.565342
O23   O     O_R   0.425740 0.339010 0.668550 -0.524288
O24   O     O_3   0.359050 0.119542 0.059755 -0.618039
O25   O     O_3   0.720100 0.527303 0.423749 -0.570546
O26   O     O_3   0.021559 0.277682 0.038584 -0.557834
O27   O     O_3   0.119241 0.416735 0.897456 -0.551356
O28   O     O_3   0.720787 0.760256 0.532450 -0.613180
O29   O     O_3   0.239049 0.883313 0.942352 -0.618990
O30   O     O_3   0.069781 0.301954 0.549976 -0.616022
O31   O     O_3   0.741842 0.723041 0.960901 -0.556827
O32   O     O_3   0.244765 0.948644 0.551231 -0.605846
O33   O     O_R   0.913270 0.574260 0.831450 -0.543474
O34   O     O_R   0.660990 0.086730 0.668550 -0.543311
O35   O     O_R   0.425740 0.339010 0.831450 -0.525257
O36   O     O_R   0.574260 0.913270 0.168550 -0.517753
O37   O     O_R   0.086730 0.660990 0.331450 -0.539837
O38   O     O_R   0.339010 0.425740 0.168550 -0.545315

loop_
_geom_bond_atom_site_label_1
_geom_bond_atom_site_label_2
_ccdc_geom_bond_type
C27   C48   S    
C28   C47   S    
C47   H23   S    
C29   C42   S    
Cr3   O35   S    
C33   C45   S    
Cr3   O18   S    
C58   H20   S    
C9    C39   S    
Cr5   O13   S    
C6    O21   S    
C13   O28   S    
Cr6   O14   S    
Cr3   O7    S    
C6    C19   S    
C23   O7    A    
C18   H5    S    
C30   H17   S    
C66   O29   S    
C64   H38   S    
C59   H22   S    
Cr6   O4    S    
C29   H16   S    
C25   C38   S    
C9    C22   S    
C5    C17   S    
C4    C41   S    
C19   C32   S    
C49   H45   S    
Cr4   O15   S    
C45   O1    A    
C64   H40   S    
C30   C43   S    
C9    O25   S    
C12   C37   S    
C11   C37   S    
C61   H30   S    
C9    C13   S    
C25   C50   S    
C58   H18   S    
C3    O36   A    
C32   C34   S    
C63   H36   S    
C59   O21   S    
C2    C39   S    
C65   H42   S    
C71   O13   A    
C62   H33   S    
C69   H52   S    
C72   O14   A    
C4    O37   A    
C46   C55   S    
C70   H55   S    
C43   C71   S    
C66   H44   S    
C65   H43   S    
C14   C27   S    
Cr1   O33   S    
C60   H25   S    
C67   O38   A    
Cr2   O34   S    
C63   H37   S    
C24   C51   S    
C7    C15   S    
C39   C52   S    
C5    C43   S    
C1    O23   A    
Cr5   O37   S    
Cr6   O38   S    
C17   C30   S    
C30   C44   S    
C63   O26   S    
C58   H19   S    
C8    C14   S    
C61   H29   S    
C35   C48   S    
C16   O31   S    
C8    C21   S    
C12   O33   A    
C54   H2    S    
Cr4   O2    S    
C72   O3    A    
C38   C72   S    
Cr4   O19   S    
C31   C44   S    
C23   O34   A    
C53   H60   S    
Cr2   O9    S    
C13   C36   S    
C24   C37   S    
C50   H56   S    
C26   C49   S    
C14   C35   S    
C17   O32   S    
C38   C51   S    
Cr1   O1    S    
C10   C24   S    
C16   C29   S    
C65   O28   S    
C3    O16   A    
C64   H39   S    
C61   O24   S    
C28   H15   S    
C23   C31   S    
C56   O10   A    
C36   C49   S    
C64   O27   S    
C1    O5    A    
Cr5   O16   S    
C51   H58   S    
C18   C57   S    
C62   O25   S    
C62   H32   S    
C44   C57   S    
C69   H53   S    
C49   C52   S    
C20   H7    S    
C70   H54   S    
C52   H59   S    
C65   H41   S    
Cr2   O18   S    
C27   H14   S    
C50   C51   S    
C69   O31   S    
C22   H9    S    
C61   H28   S    
C24   H10   S    
C68   H49   S    
C26   C39   S    
C47   C54   S    
C46   H12   S    
C20   C33   S    
C68   O30   S    
C20   C54   S    
C48   H34   S    
C3    C40   S    
C40   C53   S    
C2    O15   A    
C58   O20   S    
C42   C67   S    
C33   C47   S    
C66   H46   S    
C13   C26   S    
C55   H3    S    
C56   O12   A    
C19   H6    S    
C5    O20   S    
C68   H48   S    
Cr6   O19   S    
C22   C52   S    
Cr1   O5    S    
C19   C55   S    
C68   H50   S    
C21   H8    S    
C10   O26   S    
C27   C40   S    
C35   C56   S    
C45   O9    A    
C59   H24   S    
C32   C46   S    
C44   H1    S    
C60   O22   S    
C28   C41   S    
C71   O2    A    
C7    O22   S    
C2    O4    A    
Cr3   O10   S    
C16   C32   S    
C22   C36   S    
C29   C46   S    
C25   H11   S    
C66   H47   S    
C67   O11   A    
Cr1   O8    S    
C10   C38   S    
Cr4   O36   S    
C21   C35   S    
C26   H13   S    
C34   O35   A    
C8    O24   S    
C15   O30   S    
C21   C53   S    
C37   C50   S    
C34   O8    A    
C15   C28   S    
C70   H57   S    
C62   H31   S    
Cr4   O11   S    
C5    C18   S    
C42   C55   S    
C17   C31   S    
C59   H21   S    
Cr1   O18   S    
C48   C53   S    
Cr3   O23   S    
C15   C33   S    
C7    C41   S    
C70   O32   S    
Cr6   O17   S    
Cr5   O3    S    
C41   C54   S    
C10   C11   S    
C43   C57   S    
C6    C16   S    
C63   H35   S    
C12   O6    A    
C4    O17   A    
C69   H51   S    
C7    C20   S    
C6    C42   S    
C11   O27   S    
C11   C25   S    
C57   H4    S    
Cr2   O12   S    
C18   C31   S    
C8    C40   S    
C14   O29   S    
C60   H26   S    
Cr2   O6    S    
C60   H27   S    
C1    C36   S    
Cr5   O19   S    
