data_mof_unit_28889.cif
_audit_creation_date              2012-12-10T19:04:11-0500
_audit_creation_method            fapswitch 2.2
_symmetry_space_group_name_H-M    P1
_symmetry_Int_Tables_number       1
_space_group_crystal_system       triclinic
_cell_length_a                    10.645046
_cell_length_b                    10.844434
_cell_length_c                    9.618891
_cell_angle_alpha                 90.181783
_cell_angle_beta                  91.291745
_cell_angle_gamma                 90.956461
_cell_volume                      1109.95609715

loop_
_atom_site_label
_atom_site_type_symbol
_atom_type_description
_atom_site_fract_x
_atom_site_fract_y
_atom_site_fract_z
_atom_type_partial_charge
C1    C     C_R   0.498421 0.262784 0.499640 0.833211
C2    C     C_3   0.955416 0.488414 0.366962 -0.115465
C3    C     C_3   0.040797 0.391703 0.437549 -0.182129
C4    C     C_3   0.123071 0.497548 0.496527 -0.011982
C5    C     C_R   0.534190 0.065387 0.618019 0.047185
C6    C     C_R   0.500970 0.129738 0.498086 -0.049712
C7    C     C_R   0.473375 0.063753 0.375088 -0.195284
C8    C     C_R   0.469486 0.935364 0.376801 -0.165637
C9    C     C_R   0.497694 0.871060 0.499823 -0.118430
C10   C     C_R   0.533226 0.938099 0.619075 0.036709
C11   C     C_3   0.482963 0.935601 0.763509 0.508313
C12   C     C_R   0.259686 0.499472 0.498692 0.806467
C13   C     C_3   0.483653 0.075691 0.760991 -0.506684
C14   C     C_R   0.608147 0.517848 0.076102 0.073112
C15   C     C_R   0.394573 0.469637 0.070502 0.704120
C16   C     C_R   0.394304 0.471644 0.922733 -0.085087
C17   C     C_R   0.610220 0.511100 0.929889 0.218851
C18   C     C_3   0.708501 0.611949 0.925141 -0.261535
C19   C     C_3   0.697306 0.625659 0.082512 -0.305523
C20   C     C_R   0.497405 0.737398 0.500159 0.788717
C21   C     C_R   0.740544 0.497534 0.500737 0.838427
C22   C     C_3   0.046429 0.502781 0.629415 -0.151607
C23   C     C_3   0.961825 0.398100 0.569388 -0.021799
C24   C     C_3   0.877777 0.494113 0.500146 -0.072671
C25   C     C_3   0.961483 0.599743 0.558145 -0.157086
C26   C     C_3   0.040586 0.594190 0.425446 -0.125535
Cu1   Cu    Cu3+1 0.499990 0.499980 0.640670 1.008930
Cu2   Cu    Cu3+1 0.500010 0.500020 0.359330 1.030890
H1    H     H_    0.389032 0.117787 0.761645 0.195035
H2    H     H_    0.553392 0.118678 0.834885 0.231718
H3    H     H_    0.307934 0.449525 0.866420 0.165073
H4    H     H_    0.679035 0.691691 0.860814 0.215915
H5    H     H_    0.784251 0.605982 0.143668 0.151607
H6    H     H_    0.089085 0.508919 0.735508 0.180769
H7    H     H_    0.926631 0.685771 0.605432 0.184854
H8    H     H_    0.075950 0.674638 0.365938 0.170677
H9    H     H_    0.918411 0.479261 0.258805 0.170074
H10   H     H_    0.076177 0.306789 0.388092 0.174338
H11   H     H_    0.448941 0.110861 0.279343 0.181783
H12   H     H_    0.439912 0.886999 0.283166 0.215928
N1    N     N_R   0.500800 0.500930 0.147930 -0.236003
N2    N     N_R   0.500800 0.500890 0.852020 -0.218803
O1    O     O_R   0.500000 0.319640 0.618810 -0.562292
O2    O     O_R   0.500010 0.319680 0.381230 -0.582592
O3    O     O_R   0.316850 0.499950 0.618770 -0.604794
O4    O     O_R   0.316860 0.499990 0.381190 -0.504923
O5    O     O_R   0.499990 0.680320 0.618770 -0.571466
O6    O     O_R   0.500000 0.680360 0.381190 -0.573027
O7    O     O_R   0.683140 0.500010 0.618810 -0.557422
O8    O     O_R   0.683150 0.500050 0.381230 -0.602939
C27   C     C_2   0.921829 0.285064 0.647062 0.870263
O9    O     O_2   0.001635 0.218145 0.698105 -0.572625
O10   O     O_R   0.794353 0.256212 0.660424 -0.743752
H13   H     H_    0.779848 0.178090 0.715793 0.347616
F1    F     F_    0.571094 0.891356 0.857380 -0.651610
F2    F     F_    0.286784 0.436435 0.133222 -0.657181
C28   C     C_2   0.837207 0.566113 0.893549 0.855176
O11   O     O_2   0.921915 0.640808 0.873214 -0.592498
O12   O     O_R   0.862776 0.440359 0.903898 -0.741044
H14   H     H_    0.955759 0.422777 0.900348 0.334490
C29   C     C_2   0.640867 0.746337 0.122634 0.997838
O13   O     O_2   0.531535 0.768438 0.091768 -0.530555
O14   O     O_R   0.716467 0.834576 0.191761 -0.748827
H15   H     H_    0.672252 0.915564 0.205255 0.338500
C30   C     C_2   0.354296 0.876323 0.775968 0.840111
O15   O     O_2   0.336428 0.797518 0.864257 -0.505833
O16   O     O_R   0.256139 0.910706 0.685814 -0.784689
H16   H     H_    0.175200 0.863274 0.703457 0.352340

loop_
_geom_bond_atom_site_label_1
_geom_bond_atom_site_label_2
_ccdc_geom_bond_type
C11   C30   S    
C4    C26   S    
C23   C24   S    
Cu1   N2    S    
C6    C7    A    
C12   O3    A    
O16   H16   S    
Cu1   O1    S    
C4    C12   S    
C4    C22   S    
C9    C10   A    
Cu2   N1    S    
C9    C20   S    
C23   C27   S    
Cu1   O5    S    
C2    H9    S    
C15   F2    S    
Cu1   O3    S    
C21   O7    A    
C17   C18   S    
O12   H14   S    
C2    C26   S    
O10   H13   S    
C16   H3    S    
C11   C13   S    
C14   C17   A    
Cu2   O4    S    
C28   O11   D    
C20   O6    A    
C1    O1    A    
Cu2   O8    S    
C19   C29   S    
C14   N1    A    
C5    C6    A    
C26   H8    S    
C21   O8    A    
C25   H7    S    
C2    C3    S    
C2    C24   S    
C29   O13   D    
C22   H6    S    
C18   C28   S    
C8    H12   S    
C28   O12   S    
C20   O5    A    
C18   H4    S    
C10   C11   S    
O14   H15   S    
Cu1   O7    S    
C27   O9    D    
C16   N2    A    
C13   H2    S    
C5    C10   A    
C11   F1    S    
C24   C25   S    
C15   N1    A    
C12   O4    A    
C30   O15   D    
C19   H5    S    
C21   C24   S    
C13   H1    S    
Cu1   Cu2   S    
C29   O14   S    
C7    C8    A    
C7    H11   S    
C22   C23   S    
C18   C19   S    
C3    C23   S    
C1    O2    A    
C30   O16   S    
C25   C26   S    
C17   N2    A    
C5    C13   S    
C14   C19   S    
Cu2   O2    S    
Cu2   O6    S    
C3    C4    S    
C15   C16   A    
C3    H10   S    
C8    C9    A    
C27   O10   S    
C22   C25   S    
C1    C6    S    
