data_mof_unit_45765.cif
_audit_creation_date              2012-12-10T18:06:51-0500
_audit_creation_method            fapswitch 2.2
_symmetry_space_group_name_H-M    P1
_symmetry_Int_Tables_number       1
_space_group_crystal_system       triclinic
_cell_length_a                    12.596626
_cell_length_b                    13.15375
_cell_length_c                    15.46426
_cell_angle_alpha                 83.334287
_cell_angle_beta                  98.605393
_cell_angle_gamma                 96.881182
_cell_volume                      2502.61813553

loop_
_atom_site_label
_atom_site_type_symbol
_atom_type_description
_atom_site_fract_x
_atom_site_fract_y
_atom_site_fract_z
_atom_type_partial_charge
C1    C     C_R   0.444099 0.308072 0.512106 0.897573
C2    C     C_R   0.644761 0.401203 0.938099 0.177964
C3    C     C_R   0.539031 0.424998 0.903167 0.090503
C4    C     C_R   0.434616 0.509866 0.336253 0.873074
C5    C     C_R   0.723036 0.402173 0.882193 -0.204452
C6    C     C_R   0.698332 0.430629 0.792371 -0.204289
C7    C     C_R   0.517526 0.456832 0.813754 -0.258325
C8    C     C_R   0.727301 0.926254 0.565979 -0.197557
C9    C     C_R   0.595789 0.798483 0.500265 -0.051283
C10   C     C_R   0.299282 0.163960 0.494434 0.630347
C11   C     C_R   0.267972 0.060368 0.486543 -0.221125
C12   C     C_R   0.423110 0.447245 0.105137 0.092955
C13   C     C_R   0.345332 0.991402 0.497592 -0.303852
C14   C     C_R   0.456116 0.024787 0.520894 0.091811
C15   C     C_R   0.485310 0.126281 0.542695 0.008637
C16   C     C_R   0.557287 0.691395 0.491765 0.862854
C17   C     C_R   0.538927 0.960684 0.523383 0.105449
C18   C     C_R   0.646073 0.991853 0.560984 0.166401
C19   C     C_R   0.669885 0.087071 0.594306 -0.246392
C20   C     C_R   0.590530 0.153657 0.585352 -0.158508
C21   C     C_R   0.518136 0.866879 0.487783 -0.256733
C22   C     C_R   0.701728 0.828671 0.537061 -0.201464
C23   C     C_R   0.313745 0.458315 0.071308 0.175845
C24   C     C_R   0.408614 0.198048 0.520132 -0.255567
C25   C     C_R   0.138354 0.641541 0.622290 -0.309200
C26   C     C_R   0.757422 0.379795 0.396286 0.016371
C27   C     C_R   0.852780 0.353953 0.374331 -0.251460
C28   C     C_R   0.563627 0.484490 0.664073 0.842806
C29   C     C_R   0.950596 0.399374 0.413869 -0.172805
C30   C     C_R   0.952832 0.471239 0.475780 0.010245
C31   C     C_R   0.853418 0.494665 0.495813 0.237844
C32   C     C_R   0.049002 0.520668 0.518328 -0.019915
C33   C     C_R   0.043984 0.592006 0.579825 0.199002
C34   C     C_R   0.493967 0.420063 0.050853 0.070931
C35   C     C_R   0.944929 0.613269 0.598226 -0.297396
C36   C     C_R   0.850937 0.565102 0.556596 -0.222116
C37   C     C_R   0.150852 0.502485 0.502368 -0.029881
C38   C     C_R   0.236626 0.619988 0.603456 0.001155
C39   C     C_R   0.391496 0.498192 0.244383 -0.057237
C40   C     C_R   0.595524 0.459363 0.758210 -0.053450
C41   C     C_R   0.243498 0.484791 0.125498 -0.203471
C42   C     C_R   0.282052 0.503855 0.212082 -0.181254
C43   C     C_R   0.460795 0.471400 0.190429 -0.263346
C44   C     C_R   0.460160 0.424474 0.959460 0.067748
C45   C     C_R   0.349424 0.430578 0.927577 -0.229055
C46   C     C_R   0.276956 0.445149 0.983412 -0.235383
C47   C     C_R   0.597989 0.390756 0.084498 -0.227505
C48   C     C_R   0.671457 0.379489 0.028508 -0.235969
F1    F     F_    0.223032 0.230872 0.473874 -0.681138
H1    H     H_    0.192974 0.450727 0.956820 0.146109
H2    H     H_    0.311095 0.657192 0.635363 0.139585
H3    H     H_    0.440780 0.483683 0.786708 0.163000
H4    H     H_    0.939980 0.667484 0.644860 0.152675
H5    H     H_    0.136041 0.696058 0.669256 0.146608
H6    H     H_    0.163421 0.450203 0.457168 0.161968
H7    H     H_    0.680744 0.345035 0.365974 0.140078
H8    H     H_    0.022302 0.376674 0.394582 0.167230
H9    H     H_    0.850953 0.299089 0.326945 0.154705
H10   H     H_    0.777322 0.584681 0.573135 0.212628
H11   H     H_    0.759493 0.430714 0.750019 0.163916
H12   H     H_    0.803593 0.382504 0.908122 0.136019
H13   H     H_    0.750987 0.358438 0.056305 0.145149
H14   H     H_    0.159268 0.491687 0.100670 0.135479
H15   H     H_    0.226592 0.522933 0.253434 0.158165
H16   H     H_    0.545577 0.472783 0.215081 0.161829
H17   H     H_    0.316449 0.422274 0.859893 0.152939
H18   H     H_    0.623745 0.374263 0.154008 0.143910
H19   H     H_    0.762836 0.775612 0.547403 0.151093
H20   H     H_    0.750314 0.110870 0.625928 0.150865
H21   H     H_    0.809145 0.948807 0.595295 0.141068
H22   H     H_    0.440220 0.843040 0.452536 0.150834
H23   H     H_    0.315858 0.912129 0.489639 0.165320
H24   H     H_    0.183727 0.033921 0.468094 0.171457
H25   H     H_    0.612173 0.226269 0.613228 0.169104
N1    N     N_R   0.239390 0.551900 0.544730 -0.107834
N2    N     N_R   0.759950 0.448600 0.455730 -0.131183
O1    O     O_R   0.374950 0.371210 0.521360 -0.547513
O2    O     O_R   0.542050 0.338030 0.492790 -0.626133
O3    O     O_R   0.368720 0.526070 0.390200 -0.614651
O4    O     O_R   0.535820 0.492890 0.361630 -0.621326
O5    O     O_R   0.457950 0.661970 0.507210 -0.615309
O6    O     O_R   0.625050 0.628790 0.478640 -0.629869
O7    O     O_R   0.464180 0.507110 0.638370 -0.619385
O8    O     O_R   0.631280 0.473930 0.609800 -0.644520
Zn1   Zn    Zn3+2 0.388420 0.522150 0.519080 0.963184
Zn2   Zn    Zn3+2 0.611580 0.477850 0.480920 0.923415

loop_
_geom_bond_atom_site_label_1
_geom_bond_atom_site_label_2
_ccdc_geom_bond_type
N2    Zn2   S    
C28   O8    A    
C1    O1    A    
C41   C42   A    
C35   C36   A    
C36   H10   S    
C45   C46   A    
C12   C23   A    
C26   C27   A    
C21   H22   S    
C9    C16   S    
O8    Zn2   S    
C7    H3    S    
C4    O4    A    
C12   C43   A    
C3    C7    A    
C30   C31   A    
C9    C22   A    
C35   H4    S    
C28   C40   S    
C27   C29   A    
C18   C19   A    
O4    Zn2   S    
C48   H13   S    
N1    Zn1   S    
C19   C20   A    
C26   N2    A    
C7    C40   A    
O2    Zn2   S    
C37   N1    A    
O1    Zn1   S    
C23   C46   A    
C13   C14   A    
C28   O7    A    
C1    O2    A    
C14   C17   A    
C47   H18   S    
C39   C42   A    
C38   N1    A    
C15   C20   A    
C3    C44   A    
C20   H25   S    
C6    H11   S    
C34   C44   A    
C25   H5    S    
C4    O3    A    
C11   H24   S    
C39   C43   A    
C38   H2    S    
C10   C24   A    
O6    Zn2   S    
C17   C21   A    
C29   C30   A    
C25   C38   A    
C8    C22   A    
C47   C48   A    
C4    C39   S    
C43   H16   S    
C16   O6    A    
C17   C18   A    
C5    H12   S    
C32   C37   A    
C22   H19   S    
C15   C24   A    
O7    Zn1   S    
C29   H8    S    
C6    C40   A    
C19   H20   S    
C2    C5    A    
C41   H14   S    
C12   C34   A    
C42   H15   S    
O3    Zn1   S    
C44   C45   A    
C31   C36   A    
C27   H9    S    
C26   H7    S    
C13   H23   S    
C46   H1    S    
C8    H21   S    
C23   C41   A    
C2    C48   A    
C32   C33   A    
C2    C3    A    
C30   C32   A    
C11   C13   A    
C9    C21   A    
C31   N2    A    
C5    C6    A    
C16   O5    A    
C33   C35   A    
C8    C18   A    
C10   C11   A    
C37   H6    S    
C1    C24   S    
C45   H17   S    
C14   C15   A    
C34   C47   A    
C10   F1    S    
O5    Zn1   S    
C25   C33   A    
