data_mof_unit_31779.cif
_audit_creation_date              2012-12-11T14:44:32-0500
_audit_creation_method            fapswitch 2.2
_symmetry_space_group_name_H-M    P1
_symmetry_Int_Tables_number       1
_space_group_crystal_system       triclinic
_cell_length_a                    24.529289
_cell_length_b                    17.174787
_cell_length_c                    15.842808
_cell_angle_alpha                 89.999722
_cell_angle_beta                  51.317454
_cell_angle_gamma                 90.0
_cell_volume                      5210.13071504

loop_
_atom_site_label
_atom_site_type_symbol
_atom_type_description
_atom_site_fract_x
_atom_site_fract_y
_atom_site_fract_z
_atom_type_partial_charge
C1    C     C_R   0.333871 0.108784 0.799935 0.426426
C2    C     C_R   0.661129 0.875601 0.209120 0.494183
C3    C     C_R   0.666129 0.108784 0.200064 0.426401
C4    C     C_R   0.338871 0.875602 0.790881 0.494208
C5    C     C_R   0.833871 0.608784 0.799935 0.426405
C6    C     C_R   0.161129 0.375601 0.209120 0.494195
C7    C     C_R   0.166129 0.608784 0.200064 0.426398
C8    C     C_R   0.838870 0.375602 0.790881 0.494200
C9    C     C_3   0.283550 0.265569 0.412600 -0.147013
C10   C     C_3   0.772906 0.808671 0.585654 -0.124956
C11   C     C_3   0.716300 0.265739 0.587589 -0.147047
C12   C     C_3   0.227115 0.808648 0.414321 -0.124944
C13   C     C_3   0.783687 0.765728 0.412427 -0.147047
C14   C     C_3   0.273041 0.308830 0.585489 -0.125012
C15   C     C_3   0.216294 0.765748 0.587596 -0.147046
C16   C     C_3   0.727110 0.308654 0.414329 -0.124951
C17   C     C_2   0.693110 0.155898 0.029740 0.321165
C18   C     C_2   0.326246 0.802361 0.937881 0.352929
C19   C     C_2   0.306889 0.155897 0.970259 0.321209
C20   C     C_2   0.673753 0.802360 0.062121 0.352902
C21   C     C_2   0.193109 0.655899 0.029741 0.321167
C22   C     C_2   0.826244 0.302364 0.937884 0.352936
C23   C     C_2   0.806890 0.655899 0.970258 0.321194
C24   C     C_2   0.173754 0.302361 0.062120 0.352892
C25   C     C_2   0.725508 0.219243 0.025931 -0.008869
C26   C     C_2   0.296507 0.738862 0.934211 -0.074271
C27   C     C_2   0.274488 0.219240 0.974070 -0.008914
C28   C     C_2   0.703492 0.738861 0.065791 -0.074168
C29   C     C_2   0.225509 0.719243 0.025930 -0.008867
C30   C     C_2   0.796507 0.238863 0.934213 -0.074287
C31   C     C_2   0.774490 0.719242 0.974069 -0.008900
C32   C     C_2   0.203491 0.238861 0.065791 -0.074100
C33   C     C_R   0.584225 0.149668 0.591474 -0.111471
C34   C     C_R   0.384473 0.887225 0.410767 -0.088651
C35   C     C_R   0.415771 0.149662 0.408521 -0.111384
C36   C     C_R   0.615526 0.887223 0.589234 -0.088656
C37   C     C_R   0.084225 0.649668 0.591473 -0.111465
C38   C     C_R   0.884475 0.387222 0.410766 -0.088657
C39   C     C_R   0.915774 0.649667 0.408525 -0.111463
C40   C     C_R   0.115519 0.387216 0.589241 -0.088622
C41   C     C_R   0.653318 0.151896 0.413269 -0.038946
C42   C     C_R   0.315218 0.881129 0.588889 -0.032751
C43   C     C_R   0.346689 0.151899 0.586724 -0.039022
C44   C     C_R   0.684783 0.881132 0.411112 -0.032759
C45   C     C_R   0.153319 0.651895 0.413268 -0.038949
C46   C     C_R   0.815218 0.381128 0.588888 -0.032751
C47   C     C_R   0.846683 0.651896 0.586729 -0.038943
C48   C     C_R   0.184786 0.381140 0.411117 -0.032776
C49   C     C_R   0.577181 0.103770 0.197091 0.177372
C50   C     C_R   0.430350 0.878721 0.788337 0.207520
C51   C     C_R   0.422819 0.103771 0.802908 0.177371
C52   C     C_R   0.569649 0.878720 0.211665 0.207537
C53   C     C_R   0.077180 0.603772 0.197092 0.177380
C54   C     C_R   0.930349 0.378723 0.788339 0.207516
C55   C     C_R   0.922820 0.603772 0.802907 0.177379
C56   C     C_R   0.069650 0.378721 0.211663 0.207541
C57   C     C_R   0.353659 0.123600 0.862507 -0.227074
C58   C     C_R   0.634178 0.847200 0.160701 -0.270307
C59   C     C_R   0.646341 0.123601 0.137492 -0.227059
C60   C     C_R   0.365821 0.847201 0.839301 -0.270301
C61   C     C_R   0.853660 0.623602 0.862506 -0.227068
C62   C     C_R   0.134179 0.347201 0.160699 -0.270324
C63   C     C_R   0.146340 0.623602 0.137493 -0.227064
C64   C     C_R   0.865819 0.347203 0.839304 -0.270292
C65   C     C_R   0.629289 0.195578 0.503120 -0.046921
C66   C     C_R   0.322574 0.859250 0.499582 -0.036468
C67   C     C_R   0.370714 0.195577 0.496869 -0.046928
C68   C     C_R   0.677426 0.859251 0.500419 -0.036462
C69   C     C_R   0.129290 0.695578 0.503118 -0.046922
C70   C     C_R   0.822575 0.359247 0.499581 -0.036464
C71   C     C_R   0.870711 0.695578 0.496878 -0.046926
C72   C     C_R   0.177422 0.359250 0.500428 -0.036473
C73   C     C_3   0.342394 0.304483 0.407321 -0.141684
C74   C     C_3   0.714321 0.769833 0.590071 -0.112267
C75   C     C_3   0.657589 0.304660 0.592521 -0.141745
C76   C     C_3   0.285681 0.769809 0.409949 -0.112277
C77   C     C_3   0.842411 0.804647 0.407464 -0.141740
C78   C     C_3   0.214333 0.270000 0.590222 -0.112230
C79   C     C_3   0.157587 0.804669 0.592515 -0.141755
C80   C     C_3   0.785681 0.269814 0.409943 -0.112270
C81   C     C_3   0.789353 0.864349 0.495020 -0.132733
C82   C     C_3   0.266455 0.211134 0.503111 -0.113529
C83   C     C_3   0.210664 0.864349 0.504936 -0.132728
C84   C     C_3   0.733415 0.211122 0.497221 -0.113501
C85   C     C_3   0.289469 0.364343 0.494720 -0.132781
C86   C     C_3   0.766574 0.711126 0.502808 -0.113503
C87   C     C_3   0.710661 0.364347 0.504949 -0.132730
C88   C     C_3   0.233411 0.711124 0.497233 -0.113499
C89   C     C_3   0.731680 0.824178 0.499654 0.137012
C90   C     C_3   0.324894 0.250238 0.498041 0.156471
C91   C     C_3   0.268320 0.824176 0.500348 0.137017
C92   C     C_3   0.675111 0.250236 0.501947 0.156448
C93   C     C_3   0.231673 0.324179 0.499670 0.136991
C94   C     C_3   0.824890 0.750237 0.498051 0.156451
C95   C     C_3   0.768321 0.324174 0.500347 0.137015
C96   C     C_3   0.175111 0.750237 0.501946 0.156449
H1    H     H_    0.558302 0.166237 0.673721 0.148110
H2    H     H_    0.395078 0.897134 0.335164 0.159120
H3    H     H_    0.441693 0.166226 0.326272 0.148062
H4    H     H_    0.604920 0.897130 0.664838 0.159114
H5    H     H_    0.058302 0.666238 0.673720 0.148110
H6    H     H_    0.895080 0.397129 0.335162 0.159117
H7    H     H_    0.941698 0.666236 0.326277 0.148105
H8    H     H_    0.104909 0.397122 0.664847 0.159075
H9    H     H_    0.686545 0.175512 0.333364 0.170472
H10   H     H_    0.268250 0.873981 0.668044 0.201972
H11   H     H_    0.313462 0.175519 0.666628 0.170521
H12   H     H_    0.731752 0.873988 0.331957 0.201967
H13   H     H_    0.186547 0.675511 0.333362 0.170470
H14   H     H_    0.768251 0.373979 0.668043 0.201978
H15   H     H_    0.813456 0.675512 0.666635 0.170471
H16   H     H_    0.231761 0.374001 0.331965 0.202003
H17   H     H_    0.796955 0.928302 0.491884 0.141167
H18   H     H_    0.257535 0.147385 0.506601 0.144525
H19   H     H_    0.203076 0.928302 0.508038 0.141166
H20   H     H_    0.742229 0.147366 0.494004 0.144486
H21   H     H_    0.297167 0.428289 0.491336 0.141159
H22   H     H_    0.757749 0.647371 0.506049 0.144490
H23   H     H_    0.703069 0.428300 0.508061 0.141167
H24   H     H_    0.242221 0.647368 0.494027 0.144485
H25   H     H_    0.395888 0.317917 0.332828 0.145010
H26   H     H_    0.660949 0.755869 0.664557 0.160499
H27   H     H_    0.604082 0.318242 0.666877 0.145000
H28   H     H_    0.339056 0.755826 0.335481 0.160492
H29   H     H_    0.895917 0.818216 0.333096 0.145001
H30   H     H_    0.160971 0.256170 0.664832 0.160560
H31   H     H_    0.104080 0.818255 0.666865 0.145000
H32   H     H_    0.839055 0.255836 0.335469 0.160495
H33   H     H_    0.286807 0.247873 0.342153 0.173025
H34   H     H_    0.769952 0.825460 0.656065 0.165694
H35   H     H_    0.712918 0.248178 0.658190 0.173041
H36   H     H_    0.230085 0.825420 0.343890 0.165707
H37   H     H_    0.787057 0.748156 0.341841 0.173040
H38   H     H_    0.270199 0.325747 0.655763 0.165614
H39   H     H_    0.212907 0.748192 0.658203 0.173042
H40   H     H_    0.730075 0.325431 0.343903 0.165705
H41   H     H_    0.319156 0.711967 0.856513 0.141713
H42   H     H_    0.701158 0.251961 0.100351 0.137196
H43   H     H_    0.680845 0.711966 0.143488 0.141706
H44   H     H_    0.298836 0.251957 0.899649 0.137185
H45   H     H_    0.819157 0.211967 0.856515 0.141714
H46   H     H_    0.201161 0.751960 0.100351 0.137193
H47   H     H_    0.180843 0.211966 0.143488 0.141699
H48   H     H_    0.798836 0.751959 0.899648 0.137187
N1    N     N_R   0.389620 0.081040 0.705440 -0.125313
N2    N     N_R   0.610380 0.918960 0.294560 -0.125463
N3    N     N_R   0.610380 0.081040 0.294560 -0.125314
N4    N     N_R   0.389620 0.918960 0.705440 -0.125463
N5    N     N_R   0.889620 0.581040 0.705440 -0.125314
N6    N     N_R   0.110380 0.418960 0.294560 -0.125461
N7    N     N_R   0.110380 0.581040 0.294560 -0.125313
N8    N     N_R   0.889620 0.418960 0.705440 -0.125464
N9    N     N_R   0.582320 0.079840 0.556630 -0.049077
N10   N     N_R   0.417680 0.920160 0.443370 -0.055943
N11   N     N_R   0.417680 0.079840 0.443370 -0.049077
N12   N     N_R   0.582320 0.920160 0.556630 -0.055941
N13   N     N_R   0.082320 0.579840 0.556630 -0.049076
N14   N     N_R   0.917680 0.420160 0.443370 -0.055942
N15   N     N_R   0.917680 0.579840 0.443370 -0.049078
N16   N     N_R   0.082320 0.420160 0.556630 -0.055940
N17   N     N_R   0.627920 0.078930 0.443400 -0.030267
N18   N     N_R   0.372080 0.921070 0.556600 -0.052082
N19   N     N_R   0.372080 0.078930 0.556600 -0.030258
N20   N     N_R   0.627920 0.921070 0.443400 -0.052087
N21   N     N_R   0.127920 0.578930 0.443400 -0.030268
N22   N     N_R   0.872080 0.421070 0.556600 -0.052084
N23   N     N_R   0.872080 0.578930 0.556600 -0.030262
N24   N     N_R   0.127920 0.421070 0.443400 -0.052086
N25   N     N_R   0.555090 0.077730 0.294590 -0.108260
N26   N     N_R   0.444910 0.922270 0.705410 -0.107239
N27   N     N_R   0.444910 0.077730 0.705410 -0.108258
N28   N     N_R   0.555090 0.922270 0.294590 -0.107239
N29   N     N_R   0.055090 0.577730 0.294590 -0.108258
N30   N     N_R   0.944910 0.422270 0.705410 -0.107238
N31   N     N_R   0.944910 0.577730 0.705410 -0.108258
N32   N     N_R   0.055090 0.422270 0.294590 -0.107240
Ni1   Ni    Ni4+2 0.382970 1.000000 0.629840 0.326798
Ni2   Ni    Ni4+2 0.617030 1.000000 0.370160 0.326804
Ni3   Ni    Ni4+2 0.882970 0.500000 0.629840 0.326804
Ni4   Ni    Ni4+2 0.117030 0.500000 0.370160 0.326802
Ni5   Ni    Ni4+2 0.514540 1.000000 0.629840 0.241952
Ni6   Ni    Ni4+2 0.485460 1.000000 0.370160 0.241955
Ni7   Ni    Ni4+2 0.014540 0.500000 0.629840 0.241954
Ni8   Ni    Ni4+2 0.985460 0.500000 0.370160 0.241952
S1    S     S_3+6 0.245746 0.101200 0.850040 -0.035652
O1    O     O_2   0.212797 0.180217 0.877471 -0.333797
O2    O     O_2   0.241759 0.066970 0.767109 -0.269190
O3    O     O_3   0.200384 0.046657 0.962907 -0.448968
H49   H     H_    0.150867 0.052879 0.994056 0.385895
S2    S     S_3+6 0.752649 0.867896 0.144773 -0.044360
O4    O     O_2   0.765025 0.788978 0.170977 -0.352802
O5    O     O_2   0.793581 0.873559 0.024507 -0.261911
O6    O     O_3   0.787691 0.933733 0.175086 -0.475663
H50   H     H_    0.837176 0.917937 0.133673 0.377976
S3    S     S_3+6 0.754254 0.101197 0.149955 -0.035648
O7    O     O_2   0.787204 0.180214 0.122518 -0.333930
O8    O     O_2   0.758246 0.066968 0.232883 -0.269079
O9    O     O_3   0.799611 0.046651 0.037093 -0.448928
H51   H     H_    0.849144 0.053032 0.005787 0.385812
S4    S     S_3+6 0.247351 0.867898 0.855229 -0.044419
O10   O     O_2   0.234972 0.788979 0.829031 -0.352779
O11   O     O_2   0.206418 0.873566 0.975494 -0.261951
O12   O     O_3   0.212311 0.933734 0.824908 -0.475799
H52   H     H_    0.162827 0.917935 0.866314 0.377933
S5    S     S_3+6 0.745745 0.601195 0.850045 -0.035652
O13   O     O_2   0.712793 0.680211 0.877483 -0.333859
O14   O     O_2   0.741756 0.566967 0.767115 -0.269136
O15   O     O_3   0.700389 0.546647 0.962908 -0.448952
H53   H     H_    0.650864 0.552929 0.994122 0.385861
S6    S     S_3+6 0.252647 0.367890 0.144780 -0.044355
O16   O     O_2   0.265017 0.288974 0.170999 -0.352781
O17   O     O_2   0.293583 0.373545 0.024513 -0.261938
O18   O     O_3   0.287692 0.433731 0.175086 -0.475669
H54   H     H_    0.337176 0.417933 0.133676 0.377977
S7    S     S_3+6 0.254254 0.601194 0.149954 -0.035652
O19   O     O_2   0.287208 0.680210 0.122512 -0.333919
O20   O     O_2   0.258245 0.566966 0.232882 -0.269094
O21   O     O_3   0.299608 0.546644 0.037094 -0.448935
H55   H     H_    0.349141 0.553012 0.005798 0.385821
S8    S     S_3+6 0.747350 0.367897 0.855228 -0.044396
O22   O     O_2   0.734973 0.288977 0.829031 -0.352780
O23   O     O_2   0.706417 0.373565 0.975494 -0.261941
O24   O     O_3   0.712308 0.433731 0.824908 -0.475752
H56   H     H_    0.662821 0.417939 0.866332 0.377956
I1    I     I_    0.525193 0.090664 0.129944 -0.259494
I2    I     I_    0.481754 0.872556 0.857138 -0.267047
I3    I     I_    0.474810 0.090670 0.870051 -0.259486
I4    I     I_    0.518243 0.872550 0.142867 -0.267034
I5    I     I_    0.025189 0.590670 0.129949 -0.259485
I6    I     I_    0.981747 0.372564 0.857151 -0.267077
I7    I     I_    0.974811 0.590675 0.870050 -0.259481
I8    I     I_    0.018246 0.372556 0.142862 -0.267031
I9    I     I_    0.290367 0.862568 0.083020 -0.195710
I10   I     I_    0.727599 0.087069 0.893107 -0.187893
I11   I     I_    0.709630 0.862568 0.916983 -0.195703
I12   I     I_    0.272405 0.087071 0.106893 -0.187848
I13   I     I_    0.790361 0.362572 0.083024 -0.195707
I14   I     I_    0.227594 0.587072 0.893108 -0.187897
I15   I     I_    0.209633 0.362570 0.916981 -0.195680
I16   I     I_    0.772409 0.587074 0.106891 -0.187854

loop_
_geom_bond_atom_site_label_1
_geom_bond_atom_site_label_2
_ccdc_geom_bond_type
C65   C92   S    
N6    N32   A    
O12   H52   S    
C88   C96   S    
C3    N3    A    
S2    O4    D    
N7    N29   A    
C37   C69   A    
S8    O24   S    
C53   C63   A    
N23   Ni3   S    
O24   H56   S    
C18   C26   D    
C80   C84   S    
C69   C96   S    
C19   I12   S    
C52   N28   A    
S8    O23   D    
O21   H55   S    
C18   I9    S    
C33   C65   A    
C71   C94   S    
C17   I10   S    
C19   C57   S    
C29   H46   S    
C56   I8    S    
N4    Ni1   S    
C30   H45   S    
C41   H9    S    
C37   H5    S    
C56   N32   A    
C75   H27   S    
C74   C89   S    
N6    Ni4   S    
C8    N8    A    
C35   N11   A    
C73   C90   S    
C41   N17   A    
S7    O20   D    
S6    O16   D    
C45   H13   S    
S1    O2    D    
C15   H39   S    
C10   C94   S    
C78   C93   S    
C11   C95   S    
C4    N4    A    
C12   H36   S    
C77   C94   S    
N5    Ni3   S    
C14   C78   S    
C5    N5    A    
N2    Ni2   S    
C15   C88   S    
C37   N13   A    
C31   H48   S    
C23   I16   S    
C1    C57   A    
C14   C90   S    
C32   H47   S    
C86   C94   S    
S2    O6    S    
C81   H17   S    
C85   C93   S    
C52   I4    S    
C15   C79   S    
S1    O1    D    
N29   Ni8   S    
N15   N23   A    
O15   H53   S    
N18   Ni1   S    
C87   C95   S    
C13   C86   S    
N19   Ni1   S    
C16   C87   S    
N4    N26   A    
O9    H51   S    
C51   C57   A    
C77   C81   S    
N15   Ni8   S    
C88   H24   S    
N24   Ni4   S    
C19   C27   D    
C76   C88   S    
N16   Ni7   S    
C9    C82   S    
C22   I13   S    
N8    N30   A    
C26   H41   S    
C34   N10   A    
C21   I14   S    
C84   H20   S    
C40   C72   A    
C24   C62   S    
C34   C66   A    
C28   H43   S    
C9    C73   S    
C48   C72   A    
C35   H3    S    
C44   N20   A    
S8    O22   D    
C49   N25   A    
N10   N18   A    
C44   H12   S    
N14   Ni8   S    
N10   Ni6   S    
C13   C77   S    
N11   Ni6   S    
C46   C70   A    
C45   C69   A    
C76   H28   S    
C16   H40   S    
C83   H19   S    
C82   H18   S    
C86   H22   S    
S7    O21   S    
N13   N21   A    
C40   N16   A    
S4    O10   D    
S1    O3    S    
C41   C65   A    
C20   C28   D    
N11   N19   A    
S5    O13   D    
C15   C91   S    
C67   C90   S    
C3    S3    S    
C12   C83   S    
N9    N17   A    
O3    H49   S    
N5    N31   A    
C23   C31   D    
C55   N31   A    
S7    O19   D    
C10   H34   S    
C87   H23   S    
C8    S8    S    
C55   I7    S    
C40   H8    S    
C47   N23   A    
C78   C82   S    
C38   N14   A    
C48   N24   A    
C3    C59   A    
C35   C67   A    
C20   I11   S    
C47   C71   A    
C4    C60   A    
C2    C58   A    
C68   C89   S    
C5    C61   A    
C50   N26   A    
C43   H11   S    
C74   C86   S    
C80   C95   S    
C85   H21   S    
C42   H10   S    
C7    C63   A    
C53   N29   A    
C24   I15   S    
C52   C58   A    
C36   H4    S    
C8    C64   A    
C7    N7    A    
C72   C93   S    
C75   C92   S    
C75   C87   S    
C38   C70   A    
C48   H16   S    
N9    Ni5   S    
N2    N28   A    
C16   C92   S    
C73   H25   S    
C46   H14   S    
N26   Ni5   S    
C51   I3    S    
N13   Ni7   S    
N20   Ni2   S    
C56   C62   A    
C50   I2    S    
C1    N1    A    
C20   C58   S    
C83   C91   S    
C78   H30   S    
C9    C93   S    
C77   H29   S    
C36   N12   A    
N31   Ni7   S    
C73   C85   S    
S5    O15   S    
C18   C60   S    
C25   C30   S    
N32   Ni8   S    
C79   H31   S    
S2    O5    D    
C46   N22   A    
C13   C89   S    
C27   C32   S    
C39   N15   A    
N27   Ni5   S    
C28   C31   S    
C12   C96   S    
C2    S2    S    
C14   C85   S    
C17   C25   D    
C11   H35   S    
N30   Ni7   S    
N12   Ni5   S    
C42   N18   A    
C39   H7    S    
C66   C91   S    
C6    S6    S    
C9    H33   S    
C11   C84   S    
C2    N2    A    
S6    O18   S    
C80   H32   S    
C10   C81   S    
S6    O17   D    
C27   H44   S    
C82   C90   S    
C47   H15   S    
C50   C60   A    
C1    S1    S    
S3    O9    S    
N8    Ni3   S    
C12   C76   S    
C70   C95   S    
C17   C59   S    
C33   N9    A    
C81   C89   S    
C79   C96   S    
C38   H6    S    
C22   C30   D    
C49   C59   A    
N12   N20   A    
C79   C83   S    
C14   H38   S    
C10   C74   S    
N3    Ni2   S    
C6    C62   A    
N7    Ni4   S    
C45   N21   A    
S4    O12   S    
O18   H54   S    
C54   N30   A    
C55   C61   A    
C51   N27   A    
C34   H2    S    
C74   H26   S    
C25   H42   S    
C33   H1    S    
N16   N24   A    
C21   C29   D    
C13   H37   S    
N1    N27   A    
C21   C63   S    
C44   C68   A    
C76   C91   S    
C5    S5    S    
S3    O7    D    
C6    N6    A    
N14   N22   A    
N28   Ni6   S    
C4    S4    S    
C54   C64   A    
C26   C29   S    
C43   C67   A    
O6    H50   S    
N1    Ni1   S    
C42   C66   A    
N21   Ni4   S    
C39   C71   A    
C23   C61   S    
C11   C75   S    
N22   Ni3   S    
C84   C92   S    
C22   C64   S    
C16   C80   S    
N17   Ni2   S    
S5    O14   D    
C49   I1    S    
C36   C68   A    
C54   I6    S    
S4    O11   D    
C7    S7    S    
N3    N25   A    
C53   I5    S    
N25   Ni6   S    
S3    O8    D    
C24   C32   D    
C43   N19   A    
