data_mof_unit_9738.cif
_audit_creation_date              2012-10-26T20:13:58-0400
_audit_creation_method            fapswitch 2.2
_symmetry_space_group_name_H-M    P1
_symmetry_Int_Tables_number       1
_space_group_crystal_system       triclinic
_cell_length_a                    8.75495
_cell_length_b                    10.841544
_cell_length_c                    9.550575
_cell_angle_alpha                 90.552152
_cell_angle_beta                  97.736405
_cell_angle_gamma                 90.166082
_cell_volume                      898.21263316

loop_
_atom_site_label
_atom_site_type_symbol
_atom_type_description
_atom_site_fract_x
_atom_site_fract_y
_atom_site_fract_z
_atom_type_partial_charge
C1    C     C_R   0.495889 0.262332 0.498657 0.563253
C2    C     C_R   0.631681 0.526313 0.942955 0.170301
C3    C     C_3   0.724120 0.642127 0.949184 -0.270429
C4    C     C_R   0.203947 0.499976 0.464231 0.567679
C5    C     C_3   0.721911 0.644318 0.107909 -0.279753
C6    C     C_R   0.496960 0.737717 0.500018 0.547053
C7    C     C_R   0.795728 0.500966 0.536134 0.564072
C8    C     C_2   0.038298 0.498205 0.445680 -0.115905
C9    C     C_2   0.960698 0.504509 0.557227 0.325611
C10   C     C_R   0.472005 0.065302 0.619778 -0.034363
C11   C     C_R   0.478542 0.129221 0.494646 0.014081
C12   C     C_R   0.463394 0.933498 0.368046 -0.119191
C13   C     C_R   0.462287 0.062105 0.366107 0.349952
C14   C     C_R   0.480373 0.870754 0.497474 -0.048133
C15   C     C_R   0.472638 0.938349 0.621383 0.011389
C16   C     C_3   0.573367 0.935770 0.760549 -0.257259
C17   C     C_3   0.572256 0.075614 0.758674 -0.246205
C18   C     C_R   0.631281 0.527309 0.090148 0.167635
C19   C     C_R   0.375707 0.459195 0.058549 0.023309
C20   C     C_R   0.375848 0.458986 0.909899 0.013494
Cu1   Cu    Cu3+1 0.499990 0.499980 0.640670 0.997632
Cu2   Cu    Cu3+1 0.500010 0.500020 0.359330 0.980383
F1    F     F_    0.032059 0.515919 0.692564 -0.651925
F2    F     F_    0.454439 0.119238 0.239436 -0.626448
H1    H     H_    0.979175 0.490047 0.338423 0.069409
H2    H     H_    0.510547 0.117212 0.841845 0.178553
H3    H     H_    0.686980 0.116873 0.749794 0.150117
H4    H     H_    0.274223 0.427436 0.100736 0.142282
H5    H     H_    0.274908 0.426348 0.842149 0.187973
H6    H     H_    0.840898 0.626621 0.919037 0.176876
H7    H     H_    0.659145 0.718661 0.894013 0.140909
H8    H     H_    0.837833 0.631299 0.168978 0.130470
H9    H     H_    0.654887 0.722498 0.144409 0.151280
H10   H     H_    0.458562 0.883854 0.268555 0.156846
H11   H     H_    0.512084 0.897485 0.845185 0.153455
H12   H     H_    0.688965 0.896119 0.752678 0.138551
N1    N     N_R   0.500980 0.500930 0.148050 -0.232434
N2    N     N_R   0.500990 0.500890 0.852140 -0.246064
O1    O     O_R   0.500000 0.319640 0.618810 -0.522577
O2    O     O_R   0.500020 0.319680 0.381230 -0.426444
O3    O     O_R   0.274830 0.499980 0.591380 -0.437364
O4    O     O_R   0.274850 0.500020 0.353800 -0.527383
O5    O     O_R   0.499980 0.680320 0.618770 -0.497188
O6    O     O_R   0.500000 0.680360 0.381190 -0.519473
O7    O     O_R   0.725150 0.499980 0.646200 -0.467226
O8    O     O_R   0.725170 0.500020 0.408620 -0.546798

loop_
_geom_bond_atom_site_label_1
_geom_bond_atom_site_label_2
_ccdc_geom_bond_type
C3    H6    S    
C19   H4    S    
C2    C18   A    
C20   N2    A    
C2    N2    A    
C19   C20   A    
Cu1   O1    S    
C4    C8    S    
C6    O5    A    
C5    H8    S    
Cu2   O2    S    
C2    C3    S    
C6    O6    A    
Cu1   Cu2   S    
C16   H12   S    
C3    H7    S    
C8    H1    S    
C11   C13   A    
Cu2   O4    S    
C4    O4    A    
Cu1   O3    S    
C17   H2    S    
C7    O7    A    
Cu2   O8    S    
C18   N1    A    
C12   C14   A    
Cu1   O7    S    
C20   H5    S    
C16   H11   S    
C16   C17   S    
C6    C14   S    
C4    O3    A    
C1    O1    A    
C10   C17   S    
C12   H10   S    
C15   C16   S    
C17   H3    S    
C7    O8    A    
C12   C13   A    
C10   C11   A    
C7    C9    S    
C14   C15   A    
C9    F1    S    
C5    C18   S    
C19   N1    A    
C1    O2    A    
C10   C15   A    
Cu1   O5    S    
Cu2   N1    S    
Cu2   O6    S    
Cu1   N2    S    
C13   F2    S    
C5    H9    S    
C8    C9    D    
C3    C5    S    
C1    C11   S    
