data_mof_unit_58520.cif
_audit_creation_date              2013-03-05T16:02:17-0500
_audit_creation_method            fapswitch 2.2
_symmetry_space_group_name_H-M    P1
_symmetry_Int_Tables_number       1
_space_group_crystal_system       triclinic
_cell_length_a                    21.637265
_cell_length_b                    6.928541
_cell_length_c                    14.705299
_cell_angle_alpha                 90.004847
_cell_angle_beta                  105.950198
_cell_angle_gamma                 89.991455
_cell_volume                      2119.66736432

loop_
_atom_site_label
_atom_site_type_symbol
_atom_site_description
_atom_site_fract_x
_atom_site_fract_y
_atom_site_fract_z
_atom_type_partial_charge
O1    O     O_R   0.835850 0.638310 0.002120 -0.586493
O2    O     O_R   0.164150 0.361690 0.997880 -0.590038
O3    O     O_R   0.664150 0.138310 0.997880 -0.586219
O4    O     O_R   0.335850 0.861690 0.002120 -0.590174
O5    O     O_R   0.717530 0.306070 0.861970 -0.585664
O6    O     O_R   0.282470 0.693930 0.138030 -0.582531
O7    O     O_R   0.782470 0.806070 0.138030 -0.586511
O8    O     O_R   0.217530 0.193930 0.861970 -0.584318
C1    C     C_R   0.705823 0.477529 0.823975 0.921875
C2    C     C_R   0.294932 0.523249 0.175882 0.922311
C3    C     C_R   0.794516 0.977431 0.176049 0.921825
C4    C     C_R   0.204892 0.023018 0.824148 0.921327
O9    O     O_R   0.838690 0.308440 0.993250 -0.588542
O10   O     O_R   0.161310 0.691560 0.006750 -0.584428
O11   O     O_R   0.661310 0.808440 0.006750 -0.588578
O12   O     O_R   0.338690 0.191560 0.993250 -0.585394
O13   O     O_R   0.786170 0.140510 0.130090 -0.586125
O14   O     O_R   0.213830 0.859490 0.869910 -0.593353
O15   O     O_R   0.713830 0.640510 0.869910 -0.587813
O16   O     O_R   0.286170 0.359490 0.130090 -0.588634
C5    C     C_R   0.865508 0.476739 0.999315 0.936156
C6    C     C_R   0.134456 0.522338 0.000445 0.936851
C7    C     C_R   0.634407 0.976714 0.000215 0.936245
C8    C     C_R   0.365456 0.022349 0.999079 0.936304
O17   O     O_3   0.732630 0.472520 0.044740 -0.263736
O18   O     O_3   0.267370 0.527480 0.955260 -0.267885
O19   O     O_3   0.767370 0.972520 0.955260 -0.264222
O20   O     O_3   0.232630 0.027480 0.044740 -0.263245
V1    V     V_3+5 0.753220 0.196740 0.991700 1.214786
V2    V     V_3+5 0.246780 0.803260 0.008300 1.210638
V3    V     V_3+5 0.746780 0.696740 0.008300 1.213901
V4    V     V_3+5 0.253220 0.303260 0.991700 1.209697
H1    H     H_    0.617179 0.921465 0.322778 0.141093
H2    H     H_    0.381213 0.011339 0.674507 0.172606
H3    H     H_    0.882005 0.452041 0.675359 0.140461
H4    H     H_    0.119223 0.471375 0.324191 0.139248
C9    C     C_R   0.531749 0.981703 0.825071 -0.299203
C10   C     C_R   0.467012 0.967273 0.172831 -0.317566
C11   C     C_R   0.968418 0.460068 0.173834 -0.309041
C12   C     C_R   0.032505 0.481961 0.825864 -0.317448
C13   C     C_R   0.483465 0.985805 0.738766 0.361058
C14   C     C_R   0.514915 0.944828 0.258771 0.354438
C15   C     C_R   0.016866 0.454606 0.259942 0.366496
C16   C     C_R   0.984464 0.465616 0.739692 0.359672
C17   C     C_R   0.419324 0.004805 0.739958 -0.163779
C18   C     C_R   0.579256 0.936902 0.257612 -0.145610
C19   C     C_R   0.081036 0.472000 0.258827 -0.158641
C20   C     C_R   0.920045 0.461518 0.740742 -0.150950
C21   C     C_R   0.403376 0.017405 0.825298 -0.149975
C22   C     C_R   0.595761 0.951952 0.172830 -0.141176
C23   C     C_R   0.096845 0.494245 0.173824 -0.138837
C24   C     C_R   0.903661 0.471481 0.825802 -0.138931
C25   C     C_R   0.451080 0.008406 0.912730 0.139941
C26   C     C_R   0.548351 0.974020 0.085833 0.141481
C27   C     C_R   0.048957 0.496665 0.086542 0.140918
C28   C     C_R   0.951280 0.483856 0.913135 0.140676
C29   C     C_R   0.516642 0.992737 0.912707 0.101451
C30   C     C_R   0.482682 0.983796 0.085756 0.107565
C31   C     C_R   0.983386 0.481238 0.086475 0.102083
C32   C     C_R   0.016979 0.492495 0.913219 0.105352
C33   C     C_R   0.434142 0.009358 0.999324 -0.265670
C34   C     C_R   0.565563 0.984024 0.999622 -0.266266
C35   C     C_R   0.065732 0.508896 0.000031 -0.265414
C36   C     C_R   0.934294 0.483968 0.999659 -0.264908
H5    H     H_    0.581167 0.967909 0.823106 0.151337
H6    H     H_    0.417471 0.974242 0.174864 0.155949
H7    H     H_    0.918969 0.447232 0.175779 0.152166
H8    H     H_    0.082100 0.486711 0.823942 0.153819
H9    H     H_    0.353074 0.032175 0.822012 0.099898
H10   H     H_    0.646202 0.945794 0.176106 0.093811
H11   H     H_    0.147141 0.508099 0.177100 0.092644
H12   H     H_    0.853179 0.467887 0.822515 0.091090
C37   C     C_R   0.177849 0.012654 0.721271 -0.099291
C38   C     C_R   0.820792 0.985243 0.279334 -0.100337
C39   C     C_R   0.322585 0.515044 0.278685 -0.088831
C40   C     C_R   0.680027 0.485522 0.720748 -0.099970
C41   C     C_R   0.189512 0.933072 0.566400 -0.013240
C42   C     C_R   0.808745 0.928677 0.436423 -0.013137
C43   C     C_R   0.311209 0.452146 0.435418 -0.027956
C44   C     C_R   0.691741 0.423035 0.564251 -0.010474
C45   C     C_R   0.215305 0.947008 0.664448 -0.176119
C46   C     C_R   0.783443 0.928231 0.337962 -0.176959
C47   C     C_R   0.284631 0.464813 0.337488 -0.180971
C48   C     C_R   0.716992 0.422818 0.662620 -0.178272
C49   C     C_R   0.113196 0.055482 0.680794 -0.190971
C50   C     C_R   0.884808 0.035983 0.319021 -0.190502
C51   C     C_R   0.388063 0.547845 0.317319 -0.190589
C52   C     C_R   0.616845 0.544005 0.680497 -0.195891
C53   C     C_R   0.082119 0.001352 0.586693 0.146373
C54   C     C_R   0.916050 0.993067 0.414542 0.144178
C55   C     C_R   0.418827 0.503164 0.412801 0.147925
C56   C     C_R   0.584888 0.497378 0.585691 0.143778
C57   C     C_R   0.121817 0.957998 0.526759 0.116212
C58   C     C_R   0.876446 0.956826 0.475550 0.126682
C59   C     C_R   0.378904 0.477940 0.473978 0.134628
C60   C     C_R   0.624121 0.451722 0.525210 0.126969
C61   C     C_R   0.013298 0.986808 0.551042 0.066998
C62   C     C_R   0.984954 0.981941 0.450492 0.065080
C63   C     C_R   0.487511 0.486055 0.449223 0.065320
C64   C     C_R   0.515820 0.492881 0.549918 0.066024
C65   C     C_R   0.026535 0.949363 0.390886 -0.029625
C66   C     C_R   0.971955 0.959851 0.611401 -0.039772
C67   C     C_R   0.473729 0.483754 0.610315 -0.036459
C68   C     C_R   0.528656 0.446601 0.389755 -0.040426
C69   C     C_R   0.092783 0.930950 0.430457 -0.140536
C70   C     C_R   0.905723 0.939046 0.572398 -0.148194
C71   C     C_R   0.407184 0.481026 0.571330 -0.145738
C72   C     C_R   0.594741 0.425117 0.429062 -0.138424
H13   H     H_    0.121064 0.885991 0.384235 0.192913
H14   H     H_    0.877903 0.897971 0.619752 0.206418
H15   H     H_    0.377455 0.478369 0.619371 0.196363
H16   H     H_    0.622437 0.374959 0.383005 0.202900
H17   H     H_    0.909988 0.101952 0.273099 0.124529
H18   H     H_    0.087516 0.125535 0.724982 0.122817
H19   H     H_    0.592992 0.618770 0.725589 0.127396
H20   H     H_    0.414180 0.607810 0.271140 0.116251
H21   H     H_    0.733507 0.891375 0.306830 0.101149
H22   H     H_    0.265636 0.915250 0.696294 0.098372
H23   H     H_    0.766651 0.382829 0.693953 0.104875
H24   H     H_    0.233978 0.436686 0.306957 0.099309
N1    N     N_R   0.499692 0.977104 0.650159 0.218694
O21   O     O_R   0.454762 0.969325 0.570505 -0.358909
O22   O     O_R   0.559363 0.985717 0.648012 -0.401432
N2    N     N_R   0.498517 0.940126 0.347337 0.215969
O23   O     O_R   0.543039 0.918646 0.426699 -0.373277
O24   O     O_R   0.439808 0.972466 0.350131 -0.398060
N3    N     N_R   0.000785 0.441209 0.348523 0.217347
O25   O     O_R   0.045755 0.423677 0.427690 -0.374012
O26   O     O_R   0.941560 0.460902 0.351538 -0.401405
N4    N     N_R   0.000923 0.461011 0.651180 0.217277
O27   O     O_R   0.956524 0.438121 0.571804 -0.368371
O28   O     O_R   0.059831 0.490402 0.648595 -0.410686
C73   C     C_2   0.236034 0.888578 0.511251 0.534752
H25   H     H_    0.279369 0.808016 0.544643 0.004683
O29   O     O_2   0.229691 0.952352 0.431868 -0.580180
C74   C     C_2   0.761540 0.894130 0.491976 0.465748
H26   H     H_    0.716085 0.824790 0.458031 0.084222
O30   O     O_2   0.769913 0.952121 0.572758 -0.611282
C75   C     C_2   0.265910 0.402260 0.491795 0.527549
H27   H     H_    0.215581 0.441449 0.465305 0.026310
O31   O     O_2   0.282679 0.308420 0.564630 -0.599876
C76   C     C_2   0.738822 0.390784 0.508344 0.465712
H28   H     H_    0.784675 0.323298 0.541948 0.084630
O32   O     O_2   0.729843 0.449769 0.427599 -0.608884
C77   C     C_2   0.003791 0.901215 0.288676 0.455882
H29   H     H_    0.960369 0.817684 0.261269 0.038439
O33   O     O_2   0.034065 0.952276 0.233905 -0.572603
C78   C     C_2   0.995185 0.918572 0.714396 0.458706
H30   H     H_    0.039405 0.839484 0.743055 0.038402
O34   O     O_2   0.964412 0.970073 0.768444 -0.574008
C79   C     C_2   0.495234 0.443033 0.713541 0.468851
H31   H     H_    0.536658 0.352168 0.742710 0.030557
O35   O     O_2   0.466066 0.507508 0.767163 -0.580986
C80   C     C_2   0.505271 0.395099 0.287983 0.460014
H32   H     H_    0.460767 0.316348 0.261368 0.045211
O36   O     O_2   0.536078 0.438316 0.232682 -0.575612

loop_
_geom_bond_atom_site_label_1
_geom_bond_atom_site_label_2
_geom_bond_distance
_ccdc_geom_bond_type
O17   V3    1.698456 S    
C43   C75   1.488017 S    
O1    C5    1.296534 A    
C8    C33   1.487893 S    
C12   C32   1.416148 A    
C27   C31   1.422558 A    
O19   V1    1.698289 S    
O13   V1    2.001051 S    
O3    C7    1.296636 A    
O1    V3    1.995593 S    
C44   C48   1.398811 A    
O15   V3    2.001025 S    
C40   C48   1.390941 A    
C61   C62   1.437069 A    
C14   N2    1.441227 S    
C29   C34   1.419196 A    
O7    C3    1.307683 A    
C65   C77   1.485258 S    
C31   C36   1.418867 A    
C22   C26   1.411045 A    
C41   C73   1.488138 S    
C50   H17   1.078946 S    
O9    V1    1.999193 S    
C49   H18   1.079296 S    
C78   O34   1.221926 D    
C10   C14   1.405596 A    
C51   C55   1.413056 A    
C9    C13   1.405082 A    
C77   H29   1.082649 S    
O4    C8    1.291282 A    
C16   N4    1.441101 S    
C56   C60   1.423557 A    
H4    C19   1.081729 S    
O2    V4    1.995594 S    
C14   C18   1.398011 A    
C13   N1    1.440876 S    
O3    V1    1.995714 S    
C5    C36   1.487808 S    
C66   C78   1.486598 S    
C6    C35   1.488280 S    
C10   C30   1.416440 A    
C25   C33   1.418581 A    
C1    O15   1.302704 A    
C7    C34   1.488086 S    
C58   C70   1.396034 A    
C10   H6    1.081613 S    
C2    O16   1.306326 A    
C27   C35   1.418145 A    
O2    C6    1.290818 A    
C79   H31   1.082717 S    
C28   C36   1.418101 A    
O14   V2    2.001051 S    
C1    C40   1.467390 S    
C17   C21   1.392692 A    
C44   C60   1.431095 A    
C40   C52   1.392341 A    
C12   C16   1.405414 A    
C80   O36   1.222013 D    
C61   C66   1.435049 A    
C67   C79   1.487342 S    
C57   C69   1.395089 A    
C30   C33   1.419934 A    
O11   C7    1.294782 A    
C63   C68   1.435198 A    
C60   C72   1.393982 A    
O12   C8    1.299914 A    
C21   H9    1.080958 S    
C4    C37   1.466183 S    
O17   V1    2.155989 S    
H1    C18   1.082078 S    
C23   H11   1.080312 S    
O10   V2    1.999191 S    
H3    C20   1.082252 S    
C37   C45   1.390664 A    
C77   O33   1.221892 D    
C54   C58   1.422971 A    
O5    V1    1.999982 S    
C65   C69   1.396824 A    
O7    V3    1.999949 S    
O19   V3    2.156223 S    
O8    V4    1.999947 S    
C52   C56   1.412916 A    
O20   V4    2.156223 S    
C78   H30   1.082416 S    
C74   O30   1.219471 D    
C50   C54   1.413012 A    
C15   N3    1.440690 S    
C25   C29   1.422800 A    
O18   V4    1.698456 S    
C19   C23   1.392232 A    
C26   C34   1.417825 A    
C45   H22   1.083213 S    
C64   C67   1.437643 A    
O4    V2    1.995713 S    
C72   H16   1.077776 S    
C53   C61   1.439940 A    
C47   H24   1.081847 S    
N4    O28   1.301615 A    
N3    O26   1.301510 A    
C43   C59   1.429148 A    
C24   H12   1.080302 S    
C2    C39   1.466118 S    
C42   C46   1.400162 A    
C63   C64   1.439289 A    
C41   C45   1.399059 A    
O8    C4    1.304899 A    
C11   C31   1.416124 A    
C26   C30   1.422175 A    
C51   H20   1.078930 S    
O9    C5    1.294652 A    
H2    C17   1.082681 S    
C38   C50   1.392336 A    
C37   C49   1.393400 A    
C80   H32   1.082192 S    
C59   C71   1.393871 A    
C9    H5    1.081790 S    
O6    V2    1.999984 S    
O18   V2    2.155988 S    
C44   C76   1.491237 S    
C32   C35   1.419607 A    
C73   H25   1.085677 S    
C76   O32   1.219813 D    
N3    O25   1.301632 A    
C68   C72   1.395191 A    
C56   C64   1.441886 A    
N2    O24   1.301590 A    
O16   V4    2.001025 S    
C39   C51   1.392594 A    
C69   H13   1.077954 S    
C3    O13   1.303471 A    
C49   C53   1.412879 A    
C71   H15   1.078398 S    
O5    C1    1.307605 A    
C74   H26   1.085169 S    
C3    C38   1.469165 S    
O6    C2    1.303279 A    
C11   C15   1.405043 A    
C75   H27   1.085428 S    
N1    O21   1.301607 A    
O11   V3    1.998979 S    
O12   V4    1.998981 S    
C62   C65   1.435987 A    
C11   H7    1.081827 S    
C18   C22   1.391960 A    
C68   C80   1.485557 S    
O10   C6    1.300560 A    
C52   H19   1.078123 S    
O20   V2    1.698290 S    
N4    O27   1.301626 A    
C22   H10   1.080001 S    
C16   C20   1.398456 A    
C43   C47   1.398967 A    
C75   O31   1.219847 D    
C39   C47   1.390573 A    
C15   C19   1.398281 A    
C42   C58   1.432397 A    
C48   H23   1.082310 S    
C21   C25   1.411731 A    
C41   C57   1.430299 A    
C66   C70   1.397067 A    
C23   C27   1.410799 A    
C79   O35   1.221876 D    
C53   C57   1.421534 A    
C9    C29   1.415975 A    
N1    O22   1.301531 A    
C55   C59   1.418897 A    
C28   C32   1.422465 A    
C20   C24   1.392372 A    
C70   H14   1.076434 S    
C12   H8    1.081704 S    
C4    O14   1.304801 A    
C73   O29   1.220169 D    
C13   C17   1.398928 A    
C76   H28   1.085166 S    
C67   C71   1.395897 A    
C46   H21   1.081863 S    
C55   C63   1.439453 A    
C42   C74   1.492160 S    
C54   C62   1.440470 A    
C38   C46   1.391206 A    
C24   C28   1.411052 A    
N2    O23   1.301638 A    
