data_mof_unit_61339.cif
_audit_creation_date              2012-12-10T20:00:26-0500
_audit_creation_method            fapswitch 2.2
_symmetry_space_group_name_H-M    P1
_symmetry_Int_Tables_number       1
_space_group_crystal_system       triclinic
_cell_length_a                    14.960805
_cell_length_b                    14.197188
_cell_length_c                    15.849427
_cell_angle_alpha                 89.99069
_cell_angle_beta                  90.102588
_cell_angle_gamma                 90.032608
_cell_volume                      3366.43388402

loop_
_atom_site_label
_atom_site_type_symbol
_atom_type_description
_atom_site_fract_x
_atom_site_fract_y
_atom_site_fract_z
_atom_type_partial_charge
C1    C     C_R   0.327895 0.499979 0.499932 0.925743
C2    C     C_R   0.672108 0.500032 0.500009 0.925866
C3    C     C_R   0.048119 0.500223 0.499696 -0.052617
C4    C     C_R   0.951895 0.500322 0.499654 -0.052970
C5    C     C_R   0.428582 0.107061 0.461285 0.351214
C6    C     C_R   0.571439 0.892940 0.538655 0.351568
C7    C     C_R   0.543869 0.107103 0.565783 0.350601
C8    C     C_R   0.456037 0.892874 0.434256 0.351173
C9    C     C_R   0.436862 0.205490 0.454963 -0.028256
C10   C     C_R   0.563197 0.794509 0.544963 -0.023636
C11   C     C_R   0.550217 0.205538 0.557734 -0.032646
C12   C     C_R   0.449682 0.794448 0.442338 -0.031353
C13   C     C_R   0.494721 0.053810 0.505176 -0.040586
C14   C     C_R   0.505255 0.946182 0.494807 -0.040465
C15   C     C_R   0.499913 0.500007 0.339331 0.889061
C16   C     C_R   0.500086 0.499992 0.660669 0.889138
C17   C     C_R   0.496185 0.586142 0.956020 0.327860
C18   C     C_R   0.503812 0.413858 0.043981 0.327888
C19   C     C_R   0.496014 0.586140 0.043944 0.327680
C20   C     C_R   0.503974 0.413859 0.956057 0.327685
C21   C     C_R   0.500150 0.500002 0.912887 -0.219972
C22   C     C_R   0.499843 0.499997 0.087114 -0.219907
C23   C     C_1   0.500186 0.499994 0.823790 0.194026
C24   C     C_1   0.499809 0.500006 0.176211 0.194128
C25   C     C_1   0.499839 0.500017 0.251023 -0.078887
C26   C     C_1   0.500158 0.499982 0.748978 -0.079057
C27   C     C_R   0.094176 0.567388 0.451394 0.444378
C28   C     C_R   0.905743 0.432860 0.451630 0.441955
C29   C     C_R   0.906017 0.567761 0.547733 0.445402
C30   C     C_R   0.094092 0.432884 0.547983 0.442875
C31   C     C_R   0.186557 0.567691 0.452587 -0.197389
C32   C     C_R   0.813374 0.432338 0.452916 -0.194726
C33   C     C_R   0.813632 0.568097 0.546694 -0.195658
C34   C     C_R   0.186467 0.432314 0.546845 -0.193354
C35   C     C_R   0.232206 0.499963 0.499763 -0.172559
C36   C     C_R   0.767804 0.500134 0.499901 -0.172548
H1    H     H_    0.222713 0.619371 0.415591 0.198853
H2    H     H_    0.777162 0.380447 0.416109 0.204870
H3    H     H_    0.777618 0.619960 0.583548 0.198690
H4    H     H_    0.222551 0.380547 0.583875 0.205073
H5    H     H_    0.387452 0.245543 0.420262 0.193002
H6    H     H_    0.612657 0.754455 0.579610 0.183845
H7    H     H_    0.588924 0.245642 0.602946 0.195075
H8    H     H_    0.410890 0.754331 0.397194 0.188228
N1    N     N_R   0.500000 0.252470 0.500000 -0.156188
N2    N     N_R   0.500000 0.747530 0.500000 -0.153139
O1    O     O_R   0.369060 0.579480 0.500010 -0.609687
O2    O     O_R   0.630940 0.420520 0.499990 -0.611443
O3    O     O_R   0.630940 0.579480 0.499990 -0.615926
O4    O     O_R   0.369060 0.420520 0.500010 -0.617973
O5    O     O_R   0.499980 0.579460 0.378020 -0.603927
O6    O     O_R   0.500020 0.420540 0.621980 -0.604746
O7    O     O_R   0.500020 0.579460 0.621980 -0.597152
O8    O     O_R   0.499980 0.420540 0.378020 -0.597783
Zn1   Zn    Zn3+2 0.500000 0.606140 0.500000 1.015630
Zn2   Zn    Zn3+2 0.500000 0.393860 0.500000 1.012280
Cl1   Cl    Cl    0.490995 0.693885 0.099894 -0.383149
Cl2   Cl    Cl    0.508971 0.306113 0.900108 -0.383541
Cl3   Cl    Cl    0.491456 0.693894 0.900033 -0.390224
Cl4   Cl    Cl    0.508564 0.306107 0.099969 -0.390822
Cl5   Cl    Cl    0.038151 0.650895 0.388239 -0.436297
Cl6   Cl    Cl    0.961639 0.349216 0.388725 -0.437161
Cl7   Cl    Cl    0.962267 0.651537 0.610467 -0.434701
Cl8   Cl    Cl    0.037970 0.349506 0.611083 -0.437650
Cl9   Cl    Cl    0.319867 0.062989 0.443323 -0.414882
Cl10  Cl    Cl    0.680122 0.937065 0.556673 -0.415726
Cl11  Cl    Cl    0.567347 0.063049 0.667571 -0.392318
Cl12  Cl    Cl    0.432500 0.936869 0.332456 -0.392761

loop_
_geom_bond_atom_site_label_1
_geom_bond_atom_site_label_2
_ccdc_geom_bond_type
N2    Zn1   S    
C10   N2    A    
C3    C30   A    
C3    C27   A    
C29   Cl7   S    
C28   Cl6   S    
C9    N1    A    
C2    O3    A    
C15   O5    A    
C10   H6    S    
C1    O4    A    
C9    H5    S    
C4    C29   A    
C28   C32   A    
C8    C12   A    
C20   Cl2   S    
C33   C36   A    
C22   C24   S    
C21   C23   S    
O1    Zn1   S    
C6    C14   A    
C12   H8    S    
O3    Zn1   S    
C13   C14   S    
C19   Cl1   S    
C7    C11   A    
C5    C9    A    
C33   H3    S    
C17   Cl3   S    
C34   H4    S    
C32   C36   A    
C31   C35   A    
C18   Cl4   S    
C17   C19   A    
C8    Cl12  S    
C30   Cl8   S    
C32   H2    S    
O7    Zn1   S    
C16   C26   S    
O8    Zn2   S    
C11   H7    S    
C15   C25   S    
C11   N1    A    
C6    C10   A    
C30   C34   A    
C27   C31   A    
C3    C4    S    
C15   O8    A    
C29   C33   A    
C6    Cl10  S    
C19   C22   A    
C2    C36   S    
C24   C25   T    
C1    C35   S    
C18   C20   A    
C5    Cl9   S    
C34   C35   A    
C4    C28   A    
C23   C26   T    
C7    Cl11  S    
C16   O6    A    
O2    Zn2   S    
C16   O7    A    
C1    O1    A    
C8    C14   A    
C7    C13   A    
C27   Cl5   S    
O5    Zn1   S    
C2    O2    A    
C20   C21   A    
C18   C22   A    
C5    C13   A    
O4    Zn2   S    
O6    Zn2   S    
N1    Zn2   S    
C31   H1    S    
C12   N2    A    
C17   C21   A    
