data_mof_unit_65296.cif
_audit_creation_date              2012-12-10T20:06:07-0500
_audit_creation_method            fapswitch 2.2
_symmetry_space_group_name_H-M    P1
_symmetry_Int_Tables_number       1
_space_group_crystal_system       triclinic
_cell_length_a                    22.41804
_cell_length_b                    26.086016
_cell_length_c                    22.419663
_cell_angle_alpha                 90.0385
_cell_angle_beta                  90.000106
_cell_angle_gamma                 90.000014
_cell_volume                      13110.9565532

loop_
_atom_site_label
_atom_site_type_symbol
_atom_type_description
_atom_site_fract_x
_atom_site_fract_y
_atom_site_fract_z
_atom_type_partial_charge
C1    C     C_R   0.498982 0.391269 0.748438 0.944708
C2    C     C_R   0.499249 0.391352 0.251501 0.801875
C3    C     C_R   0.498980 0.608731 0.251565 0.944780
C4    C     C_R   0.499245 0.608648 0.748495 0.801992
C5    C     C_R   0.498983 0.891269 0.248440 0.944675
C6    C     C_R   0.499249 0.891352 0.751501 0.801885
C7    C     C_R   0.498980 0.108731 0.751564 0.944770
C8    C     C_R   0.499242 0.108648 0.248494 0.802048
C9    C     C_R   0.998981 0.391268 0.248437 0.944727
C10   C     C_R   0.999250 0.391352 0.751501 0.801867
C11   C     C_R   0.998980 0.608731 0.751565 0.944782
C12   C     C_R   0.999246 0.608648 0.248496 0.801957
C13   C     C_R   0.998981 0.891268 0.748437 0.944723
C14   C     C_R   0.999249 0.891352 0.251501 0.801876
C15   C     C_R   0.998980 0.108731 0.251565 0.944775
C16   C     C_R   0.999246 0.108648 0.748496 0.801962
C17   C     C_3   0.499872 0.051273 0.754513 -0.028157
C18   C     C_3   0.500177 0.050993 0.245430 -0.072713
C19   C     C_3   0.499864 0.948727 0.245485 -0.028143
C20   C     C_3   0.500192 0.949007 0.754563 -0.072791
C21   C     C_3   0.499873 0.551273 0.254514 -0.028157
C22   C     C_3   0.500183 0.550993 0.745432 -0.072754
C23   C     C_3   0.499867 0.448727 0.745485 -0.028147
C24   C     C_3   0.500193 0.449007 0.254563 -0.072794
C25   C     C_3   0.999873 0.051273 0.254513 -0.028161
C26   C     C_3   0.000186 0.050993 0.745433 -0.072771
C27   C     C_3   0.999869 0.948727 0.745485 -0.028151
C28   C     C_3   0.000193 0.949007 0.254562 -0.072798
C29   C     C_3   0.999873 0.551273 0.754513 -0.028156
C30   C     C_3   0.000187 0.550993 0.245433 -0.072775
C31   C     C_3   0.999869 0.448727 0.245485 -0.028152
C32   C     C_3   0.000194 0.449007 0.754562 -0.072798
C33   C     C_1   0.499955 0.249957 0.973302 -0.114099
C34   C     C_1   0.499972 0.249942 0.026697 -0.113167
C35   C     C_1   0.499955 0.750043 0.026698 -0.114120
C36   C     C_1   0.499972 0.750058 0.973303 -0.113149
C37   C     C_1   0.499955 0.749957 0.473302 -0.114099
C38   C     C_1   0.499972 0.749942 0.526697 -0.113168
C39   C     C_1   0.499955 0.250043 0.526698 -0.114117
C40   C     C_1   0.499972 0.250058 0.473303 -0.113150
C41   C     C_1   0.999956 0.249957 0.473302 -0.114105
C42   C     C_1   0.999972 0.249942 0.526697 -0.113163
C43   C     C_1   0.999955 0.750043 0.526698 -0.114119
C44   C     C_1   0.999972 0.750058 0.473303 -0.113154
C45   C     C_1   0.999955 0.749957 0.973302 -0.114105
C46   C     C_1   0.999972 0.749942 0.026697 -0.113164
C47   C     C_1   0.999955 0.250043 0.026698 -0.114119
C48   C     C_1   0.999972 0.250058 0.973303 -0.113153
C49   C     C_R   0.499969 0.250021 0.590049 0.850237
C50   C     C_R   0.499981 0.250033 0.409952 0.849393
C51   C     C_R   0.499969 0.749979 0.409951 0.850163
C52   C     C_R   0.499981 0.749967 0.590048 0.849449
C53   C     C_R   0.499969 0.750021 0.090049 0.850254
C54   C     C_R   0.499981 0.750033 0.909952 0.849404
C55   C     C_R   0.499969 0.249979 0.909951 0.850194
C56   C     C_R   0.499981 0.249967 0.090048 0.849480
C57   C     C_R   0.999969 0.250021 0.090049 0.850237
C58   C     C_R   0.999981 0.250033 0.909952 0.849396
C59   C     C_R   0.999969 0.749979 0.909951 0.850198
C60   C     C_R   0.999981 0.749967 0.090048 0.849437
C61   C     C_R   0.999969 0.750021 0.590049 0.850242
C62   C     C_R   0.999981 0.750033 0.409952 0.849401
C63   C     C_R   0.999969 0.249979 0.409951 0.850202
C64   C     C_R   0.999981 0.249967 0.590048 0.849440
C65   C     C_R   0.659955 0.250000 0.750000 0.858062
C66   C     C_R   0.659964 0.250000 0.250000 0.820623
C67   C     C_R   0.659955 0.750000 0.250000 0.858052
C68   C     C_R   0.659964 0.750000 0.750000 0.820622
C69   C     C_R   0.159955 0.250000 0.250000 0.858068
C70   C     C_R   0.159965 0.250000 0.750000 0.820622
C71   C     C_R   0.159955 0.750000 0.750000 0.858071
C72   C     C_R   0.159965 0.750000 0.250000 0.820621
C73   C     C_R   0.340043 0.250000 0.750000 0.877204
C74   C     C_R   0.340051 0.250000 0.250000 0.864961
C75   C     C_R   0.340043 0.750000 0.250000 0.877204
C76   C     C_R   0.340051 0.750000 0.750000 0.864975
C77   C     C_R   0.840043 0.250000 0.250000 0.877201
C78   C     C_R   0.840051 0.250000 0.750000 0.864984
C79   C     C_R   0.840043 0.750000 0.750000 0.877201
C80   C     C_R   0.840051 0.750000 0.250000 0.864983
C81   C     C_1   0.276699 0.250000 0.750000 -0.100926
C82   C     C_1   0.276701 0.250000 0.250000 -0.090756
C83   C     C_1   0.276699 0.750000 0.250000 -0.100920
C84   C     C_1   0.276701 0.750000 0.750000 -0.090753
C85   C     C_1   0.776699 0.250000 0.250000 -0.100938
C86   C     C_1   0.776701 0.250000 0.750000 -0.090757
C87   C     C_1   0.776699 0.750000 0.750000 -0.100937
C88   C     C_1   0.776701 0.750000 0.250000 -0.090760
C89   C     C_1   0.223307 0.250000 0.750000 -0.107929
C90   C     C_1   0.223305 0.250000 0.250000 -0.086064
C91   C     C_1   0.223307 0.750000 0.250000 -0.107927
C92   C     C_1   0.223305 0.750000 0.750000 -0.086064
C93   C     C_1   0.723307 0.250000 0.250000 -0.107941
C94   C     C_1   0.723305 0.250000 0.750000 -0.086067
C95   C     C_1   0.723307 0.750000 0.750000 -0.107939
C96   C     C_1   0.723305 0.750000 0.250000 -0.086068
C97   C     C_3   0.433805 0.030045 0.750720 -0.323579
C98   C     C_3   0.434750 0.029620 0.256351 -0.294765
C99   C     C_3   0.433803 0.969952 0.249414 -0.323537
C100  C     C_3   0.434742 0.970377 0.743781 -0.294669
C101  C     C_3   0.433805 0.530045 0.250731 -0.323582
C102  C     C_3   0.434747 0.529621 0.756296 -0.294727
C103  C     C_3   0.433804 0.469953 0.749358 -0.323556
C104  C     C_3   0.434741 0.470377 0.243792 -0.294667
C105  C     C_3   0.933805 0.030045 0.250726 -0.323575
C106  C     C_3   0.934746 0.029621 0.756274 -0.294709
C107  C     C_3   0.933804 0.969954 0.749336 -0.323557
C108  C     C_3   0.934741 0.970377 0.243788 -0.294662
C109  C     C_3   0.933805 0.530045 0.750735 -0.323581
C110  C     C_3   0.934745 0.529622 0.256269 -0.294706
C111  C     C_3   0.933804 0.469954 0.249331 -0.323561
C112  C     C_3   0.934740 0.470376 0.743797 -0.294660
C113  C     C_3   0.531933 0.029662 0.696307 -0.236327
C114  C     C_3   0.538385 0.030268 0.299530 -0.271247
C115  C     C_3   0.532045 0.970341 0.303623 -0.236362
C116  C     C_3   0.538285 0.969735 0.700383 -0.271243
C117  C     C_3   0.531924 0.529663 0.196302 -0.236331
C118  C     C_3   0.538344 0.530267 0.799564 -0.271257
C119  C     C_3   0.531998 0.470340 0.803651 -0.236355
C120  C     C_3   0.538276 0.469735 0.200377 -0.271246
C121  C     C_3   0.031927 0.029663 0.196304 -0.236321
C122  C     C_3   0.038328 0.030266 0.799578 -0.271256
C123  C     C_3   0.031980 0.970339 0.803662 -0.236349
C124  C     C_3   0.038280 0.969735 0.200379 -0.271244
C125  C     C_3   0.031920 0.529663 0.696299 -0.236326
C126  C     C_3   0.038324 0.530266 0.299582 -0.271257
C127  C     C_3   0.031976 0.470339 0.303665 -0.236351
C128  C     C_3   0.038272 0.469736 0.700373 -0.271247
C129  C     C_3   0.532945 0.031067 0.814127 -0.223187
C130  C     C_3   0.525738 0.030341 0.182258 -0.199287
C131  C     C_3   0.532806 0.968932 0.185799 -0.223160
C132  C     C_3   0.525889 0.969659 0.817680 -0.199275
C133  C     C_3   0.532955 0.531067 0.314121 -0.223179
C134  C     C_3   0.525799 0.530341 0.682283 -0.199282
C135  C     C_3   0.532863 0.468932 0.685829 -0.223159
C136  C     C_3   0.525900 0.469659 0.317675 -0.199279
C137  C     C_3   0.032951 0.031067 0.314123 -0.223179
C138  C     C_3   0.025824 0.030341 0.682293 -0.199278
C139  C     C_3   0.032886 0.968933 0.685842 -0.223159
C140  C     C_3   0.025897 0.969659 0.317677 -0.199276
C141  C     C_3   0.032961 0.531067 0.814118 -0.223177
C142  C     C_3   0.025829 0.530341 0.182295 -0.199276
C143  C     C_3   0.032891 0.468933 0.185844 -0.223157
C144  C     C_3   0.025906 0.469659 0.817673 -0.199280
H1    H     H_    0.499726 0.036397 0.659245 0.111001
H2    H     H_    0.517022 0.045241 0.340953 0.123907
H3    H     H_    0.499915 0.963606 0.340751 0.110917
H4    H     H_    0.516838 0.954762 0.659004 0.124023
H5    H     H_    0.499711 0.536397 0.159246 0.111009
H6    H     H_    0.516948 0.545241 0.840969 0.123965
H7    H     H_    0.499835 0.463606 0.840751 0.110949
H8    H     H_    0.516822 0.454763 0.159001 0.124032
H9    H     H_    0.999717 0.036397 0.159245 0.111004
H10   H     H_    0.016919 0.045241 0.840976 0.123984
H11   H     H_    0.999805 0.963606 0.840751 0.110961
H12   H     H_    0.016828 0.954762 0.159002 0.124027
H13   H     H_    0.999704 0.536398 0.659245 0.111011
H14   H     H_    0.016912 0.545240 0.340978 0.123990
H15   H     H_    0.999797 0.463606 0.340751 0.110965
H16   H     H_    0.016815 0.454763 0.658999 0.124036
O1    O     O_3   0.500000 0.250000 0.750000 -0.535047
O2    O     O_3   0.500000 0.250000 0.250000 -0.516291
O3    O     O_3   0.500000 0.750000 0.250000 -0.535049
O4    O     O_3   0.500000 0.750000 0.750000 -0.516293
O5    O     O_3   1.000000 0.250000 0.250000 -0.535043
O6    O     O_3   0.000000 0.250000 0.750000 -0.516294
O7    O     O_3   0.000000 0.750000 0.750000 -0.535043
O8    O     O_3   1.000000 0.750000 0.250000 -0.516293
O9    O     O_R   0.465380 0.366870 0.784620 -0.654063
O10   O     O_R   0.465380 0.366870 0.215380 -0.619840
O11   O     O_R   0.465380 0.633130 0.215380 -0.654076
O12   O     O_R   0.465380 0.633130 0.784620 -0.619812
O13   O     O_R   0.465380 0.866870 0.284620 -0.654051
O14   O     O_R   0.465380 0.866870 0.715380 -0.619835
O15   O     O_R   0.465380 0.133130 0.715380 -0.654073
O16   O     O_R   0.465380 0.133130 0.284620 -0.619799
O17   O     O_R   0.965380 0.366870 0.284620 -0.654067
O18   O     O_R   0.965380 0.366870 0.715380 -0.619840
O19   O     O_R   0.965380 0.633130 0.715380 -0.654076
O20   O     O_R   0.965380 0.633130 0.284620 -0.619818
O21   O     O_R   0.965380 0.866870 0.784620 -0.654066
O22   O     O_R   0.965380 0.866870 0.215380 -0.619837
O23   O     O_R   0.965380 0.133130 0.215380 -0.654076
O24   O     O_R   0.965380 0.133130 0.784620 -0.619817
O25   O     O_R   0.534610 0.280640 0.617980 -0.601104
O26   O     O_R   0.534610 0.280640 0.382020 -0.596810
O27   O     O_R   0.534610 0.719360 0.382020 -0.601127
O28   O     O_R   0.534610 0.719360 0.617980 -0.596855
O29   O     O_R   0.534610 0.780640 0.117980 -0.601090
O30   O     O_R   0.534610 0.780640 0.882020 -0.596810
O31   O     O_R   0.534610 0.219360 0.882020 -0.601122
O32   O     O_R   0.534610 0.219360 0.117980 -0.596879
O33   O     O_R   0.034610 0.280640 0.117980 -0.601107
O34   O     O_R   0.034610 0.280640 0.882020 -0.596803
O35   O     O_R   0.034610 0.719360 0.882020 -0.601123
O36   O     O_R   0.034610 0.719360 0.117980 -0.596840
O37   O     O_R   0.034610 0.780640 0.617980 -0.601105
O38   O     O_R   0.034610 0.780640 0.382020 -0.596807
O39   O     O_R   0.034610 0.219360 0.382020 -0.601118
O40   O     O_R   0.034610 0.219360 0.617980 -0.596840
O41   O     O_R   0.632030 0.280640 0.715400 -0.609408
O42   O     O_R   0.632030 0.280640 0.284600 -0.638714
O43   O     O_R   0.632030 0.719360 0.284600 -0.609417
O44   O     O_R   0.632030 0.719360 0.715400 -0.638747
O45   O     O_R   0.632030 0.780640 0.215400 -0.609407
O46   O     O_R   0.632030 0.780640 0.784600 -0.638715
O47   O     O_R   0.632030 0.219360 0.784600 -0.609411
O48   O     O_R   0.632030 0.219360 0.215400 -0.638755
O49   O     O_R   0.132030 0.280640 0.215400 -0.609407
O50   O     O_R   0.132030 0.280640 0.784600 -0.638711
O51   O     O_R   0.132030 0.719360 0.784600 -0.609409
O52   O     O_R   0.132030 0.719360 0.215400 -0.638744
O53   O     O_R   0.132030 0.780640 0.715400 -0.609404
O54   O     O_R   0.132030 0.780640 0.284600 -0.638708
O55   O     O_R   0.132030 0.219360 0.284600 -0.609405
O56   O     O_R   0.132030 0.219360 0.715400 -0.638741
O57   O     O_R   0.367970 0.280650 0.784620 -0.619531
O58   O     O_R   0.367970 0.280650 0.215380 -0.608356
O59   O     O_R   0.367970 0.719350 0.215380 -0.619602
O60   O     O_R   0.367970 0.719350 0.784620 -0.608347
O61   O     O_R   0.367970 0.780650 0.284620 -0.619496
O62   O     O_R   0.367970 0.780650 0.715380 -0.608355
O63   O     O_R   0.367970 0.219350 0.715380 -0.619589
O64   O     O_R   0.367970 0.219350 0.284620 -0.608336
O65   O     O_R   0.867970 0.280650 0.284620 -0.619547
O66   O     O_R   0.867970 0.280650 0.715380 -0.608362
O67   O     O_R   0.867970 0.719350 0.715380 -0.619600
O68   O     O_R   0.867970 0.719350 0.284620 -0.608353
O69   O     O_R   0.867970 0.780650 0.784620 -0.619542
O70   O     O_R   0.867970 0.780650 0.215380 -0.608361
O71   O     O_R   0.867970 0.219350 0.215380 -0.619594
O72   O     O_R   0.867970 0.219350 0.784620 -0.608352
O73   O     O_R   0.465380 0.219370 0.617980 -0.646382
O74   O     O_R   0.465380 0.219370 0.382020 -0.644699
O75   O     O_R   0.465380 0.780630 0.382020 -0.646394
O76   O     O_R   0.465380 0.780630 0.617980 -0.644713
O77   O     O_R   0.465380 0.719370 0.117980 -0.646383
O78   O     O_R   0.465380 0.719370 0.882020 -0.644709
O79   O     O_R   0.465380 0.280630 0.882020 -0.646389
O80   O     O_R   0.465380 0.280630 0.117980 -0.644713
O81   O     O_R   0.965380 0.219370 0.117980 -0.646385
O82   O     O_R   0.965380 0.219370 0.882020 -0.644715
O83   O     O_R   0.965380 0.780630 0.882020 -0.646388
O84   O     O_R   0.965380 0.780630 0.117980 -0.644718
O85   O     O_R   0.965380 0.719370 0.617980 -0.646384
O86   O     O_R   0.965380 0.719370 0.382020 -0.644716
O87   O     O_R   0.965380 0.280630 0.382020 -0.646389
O88   O     O_R   0.965380 0.280630 0.617980 -0.644721
O89   O     O_R   0.534610 0.366870 0.715390 -0.558599
O90   O     O_R   0.534610 0.366870 0.284610 -0.638466
O91   O     O_R   0.534610 0.633130 0.284610 -0.558627
O92   O     O_R   0.534610 0.633130 0.715390 -0.638562
O93   O     O_R   0.534610 0.866870 0.215390 -0.558583
O94   O     O_R   0.534610 0.866870 0.784610 -0.638483
O95   O     O_R   0.534610 0.133130 0.784610 -0.558627
O96   O     O_R   0.534610 0.133130 0.215390 -0.638621
O97   O     O_R   0.034610 0.366870 0.215390 -0.558610
O98   O     O_R   0.034610 0.366870 0.784610 -0.638460
O99   O     O_R   0.034610 0.633130 0.784610 -0.558632
O100  O     O_R   0.034610 0.633130 0.215390 -0.638536
O101  O     O_R   0.034610 0.866870 0.715390 -0.558609
O102  O     O_R   0.034610 0.866870 0.284610 -0.638475
O103  O     O_R   0.034610 0.133130 0.284610 -0.558630
O104  O     O_R   0.034610 0.133130 0.715390 -0.638541
Zn1   Zn    Zn3+2 0.450550 0.206230 0.700550 1.035497
Zn2   Zn    Zn3+2 0.450550 0.206230 0.299450 1.030968
Zn3   Zn    Zn3+2 0.450550 0.793770 0.299450 1.035511
Zn4   Zn    Zn3+2 0.450550 0.793770 0.700550 1.030911
Zn5   Zn    Zn3+2 0.450550 0.706230 0.200550 1.035498
Zn6   Zn    Zn3+2 0.450550 0.706230 0.799450 1.030941
Zn7   Zn    Zn3+2 0.450550 0.293770 0.799450 1.035503
Zn8   Zn    Zn3+2 0.450550 0.293770 0.200550 1.030912
Zn9   Zn    Zn3+2 0.950550 0.206230 0.200550 1.035485
Zn10  Zn    Zn3+2 0.950550 0.206230 0.799450 1.030923
Zn11  Zn    Zn3+2 0.950550 0.793770 0.799450 1.035496
Zn12  Zn    Zn3+2 0.950550 0.793770 0.200550 1.030897
Zn13  Zn    Zn3+2 0.950550 0.706230 0.700550 1.035487
Zn14  Zn    Zn3+2 0.950550 0.706230 0.299450 1.030922
Zn15  Zn    Zn3+2 0.950550 0.293770 0.299450 1.035495
Zn16  Zn    Zn3+2 0.950550 0.293770 0.700550 1.030894
Zn17  Zn    Zn3+2 0.549450 0.293780 0.700550 1.102110
Zn18  Zn    Zn3+2 0.549450 0.293780 0.299450 1.020873
Zn19  Zn    Zn3+2 0.549450 0.706220 0.299450 1.102062
Zn20  Zn    Zn3+2 0.549450 0.706220 0.700550 1.020814
Zn21  Zn    Zn3+2 0.549450 0.793780 0.200550 1.102120
Zn22  Zn    Zn3+2 0.549450 0.793780 0.799450 1.020867
Zn23  Zn    Zn3+2 0.549450 0.206220 0.799450 1.102083
Zn24  Zn    Zn3+2 0.549450 0.206220 0.200550 1.020786
Zn25  Zn    Zn3+2 0.049450 0.293780 0.200550 1.102113
Zn26  Zn    Zn3+2 0.049450 0.293780 0.799450 1.020880
Zn27  Zn    Zn3+2 0.049450 0.706220 0.799450 1.102091
Zn28  Zn    Zn3+2 0.049450 0.706220 0.200550 1.020829
Zn29  Zn    Zn3+2 0.049450 0.793780 0.700550 1.102117
Zn30  Zn    Zn3+2 0.049450 0.793780 0.299450 1.020875
Zn31  Zn    Zn3+2 0.049450 0.206220 0.299450 1.102095
Zn32  Zn    Zn3+2 0.049450 0.206220 0.700550 1.020829
H17   H     H_    0.414356 0.044872 0.708259 0.201364
H18   H     H_    0.424791 0.036934 0.304406 0.205484
H19   H     H_    0.414440 0.955125 0.291914 0.201378
H20   H     H_    0.424681 0.963063 0.695747 0.205521
H21   H     H_    0.414350 0.544872 0.208274 0.201363
H22   H     H_    0.424747 0.536934 0.804342 0.205500
H23   H     H_    0.414406 0.455126 0.791841 0.201375
H24   H     H_    0.424673 0.463063 0.195760 0.205524
H25   H     H_    0.914352 0.044872 0.208267 0.201359
H26   H     H_    0.924730 0.036935 0.804318 0.205505
H27   H     H_    0.914393 0.955127 0.791813 0.201372
H28   H     H_    0.924676 0.963063 0.195754 0.205518
H29   H     H_    0.914347 0.544872 0.708279 0.201360
H30   H     H_    0.924726 0.536935 0.304311 0.205507
H31   H     H_    0.914389 0.455127 0.291806 0.201371
H32   H     H_    0.924668 0.463063 0.695765 0.205523
C145  C     C_2   0.391546 0.050006 0.798132 0.507828
H33   H     H_    0.392025 0.034790 0.842913 0.069941
O105  O     O_2   0.355103 0.083202 0.785990 -0.532728
C146  C     C_2   0.384319 0.057560 0.224344 0.470884
H34   H     H_    0.377607 0.054197 0.176786 0.052007
O106  O     O_2   0.349092 0.083791 0.252583 -0.511118
C147  C     C_2   0.391452 0.949991 0.202084 0.507893
H35   H     H_    0.391856 0.965197 0.157297 0.069843
O107  O     O_2   0.355018 0.916808 0.214302 -0.532614
C148  C     C_2   0.384384 0.942430 0.775892 0.470644
H36   H     H_    0.377767 0.945795 0.823464 0.051977
O108  O     O_2   0.349109 0.916187 0.747727 -0.511205
C149  C     C_2   0.391554 0.550006 0.298150 0.507821
H37   H     H_    0.392039 0.534789 0.342930 0.069948
O109  O     O_2   0.355108 0.583201 0.286012 -0.532739
C150  C     C_2   0.384345 0.557563 0.724247 0.470793
H38   H     H_    0.377671 0.554199 0.676684 0.052004
O110  O     O_2   0.349099 0.583798 0.752458 -0.511154
C151  C     C_2   0.391491 0.449992 0.701993 0.507859
H39   H     H_    0.391927 0.465203 0.657209 0.069884
O111  O     O_2   0.355051 0.416806 0.714181 -0.532664
C152  C     C_2   0.384388 0.442430 0.275911 0.470627
H40   H     H_    0.377779 0.445795 0.323484 0.051978
O112  O     O_2   0.349109 0.416187 0.247751 -0.511211
C153  C     C_2   0.891551 0.050006 0.298142 0.507828
H41   H     H_    0.892033 0.034789 0.342923 0.069932
O113  O     O_2   0.855106 0.083202 0.286003 -0.532730
C154  C     C_2   0.884356 0.057565 0.724209 0.470751
H42   H     H_    0.877698 0.054201 0.676643 0.051992
O114  O     O_2   0.849101 0.083802 0.752408 -0.511170
C155  C     C_2   0.891506 0.949993 0.701959 0.507846
H43   H     H_    0.891954 0.965205 0.657175 0.069895
O115  O     O_2   0.855065 0.916805 0.714134 -0.532687
C156  C     C_2   0.884387 0.942430 0.275904 0.470638
H44   H     H_    0.877775 0.945794 0.323476 0.051964
O116  O     O_2   0.849109 0.916187 0.247742 -0.511217
C157  C     C_2   0.891557 0.550006 0.798157 0.507818
H45   H     H_    0.892045 0.534788 0.842937 0.069948
O117  O     O_2   0.855112 0.583202 0.786023 -0.532742
C158  C     C_2   0.884358 0.557565 0.224200 0.470740
H46   H     H_    0.877704 0.554202 0.176633 0.051996
O118  O     O_2   0.849102 0.583802 0.252395 -0.511172
C159  C     C_2   0.891510 0.449993 0.201950 0.507844
H47   H     H_    0.891960 0.465206 0.157167 0.069903
O119  O     O_2   0.855068 0.416805 0.214123 -0.532691
C160  C     C_2   0.884391 0.442429 0.775920 0.470616
H48   H     H_    0.877785 0.445794 0.823493 0.051972
O120  O     O_2   0.849110 0.416186 0.747763 -0.511218
C161  C     C_2   0.599508 0.046424 0.810652 0.547833
H49   H     H_    0.628482 0.028497 0.778553 0.144985
O121  O     O_2   0.622069 0.077654 0.844612 -0.496100
C162  C     C_2   0.586105 0.053901 0.163712 0.514432
H50   H     H_    0.614726 0.073402 0.195100 0.099003
O122  O     O_2   0.604721 0.048752 0.112779 -0.525214
C163  C     C_2   0.599379 0.953580 0.189128 0.547893
H51   H     H_    0.628418 0.971502 0.221170 0.144987
O123  O     O_2   0.621872 0.922363 0.155107 -0.496094
C164  C     C_2   0.586299 0.946099 0.836090 0.514489
H52   H     H_    0.614828 0.926563 0.804649 0.098910
O124  O     O_2   0.605045 0.951277 0.886971 -0.525149
C165  C     C_2   0.599518 0.546424 0.310635 0.547800
H53   H     H_    0.628485 0.528497 0.278531 0.144988
O125  O     O_2   0.622085 0.577653 0.344593 -0.496110
C166  C     C_2   0.586182 0.553901 0.663790 0.514442
H54   H     H_    0.614770 0.573411 0.695201 0.098933
O126  O     O_2   0.604845 0.548747 0.612876 -0.525214
C167  C     C_2   0.599432 0.453580 0.689219 0.547831
H55   H     H_    0.628443 0.471505 0.721287 0.144981
O127  O     O_2   0.621955 0.422360 0.655223 -0.496109
C168  C     C_2   0.586312 0.446099 0.336076 0.514498
H56   H     H_    0.614838 0.426566 0.304629 0.098897
O128  O     O_2   0.605064 0.451273 0.386955 -0.525168
C169  C     C_2   0.099514 0.046425 0.310642 0.547835
H57   H     H_    0.128484 0.028497 0.278540 0.144986
O129  O     O_2   0.122078 0.077654 0.344600 -0.496091
C170  C     C_2   0.086214 0.053901 0.663822 0.514453
H58   H     H_    0.114786 0.073418 0.695241 0.098918
O130  O     O_2   0.104899 0.048740 0.612917 -0.525207
C171  C     C_2   0.099453 0.953579 0.689255 0.547829
H59   H     H_    0.128453 0.971505 0.721331 0.144981
O131  O     O_2   0.121987 0.922357 0.655269 -0.496106
C172  C     C_2   0.086308 0.946100 0.336081 0.514498
H60   H     H_    0.114834 0.926562 0.304637 0.098918
O132  O     O_2   0.105060 0.951278 0.386959 -0.525172
C173  C     C_2   0.099523 0.546425 0.810627 0.547801
H61   H     H_    0.128488 0.528498 0.778521 0.144988
O133  O     O_2   0.122092 0.577654 0.844582 -0.496107
C174  C     C_2   0.086221 0.553901 0.163830 0.514451
H62   H     H_    0.114790 0.573419 0.195251 0.098913
O134  O     O_2   0.104911 0.548739 0.112926 -0.525216
C175  C     C_2   0.099458 0.453579 0.189264 0.547824
H63   H     H_    0.128455 0.471505 0.221342 0.144981
O135  O     O_2   0.121995 0.422356 0.155279 -0.496111
C176  C     C_2   0.086320 0.446099 0.836067 0.514505
H64   H     H_    0.114842 0.426565 0.804618 0.098899
O136  O     O_2   0.105078 0.451274 0.886945 -0.525175
C177  C     C_2   0.510936 0.055829 0.872768 0.440962
H65   H     H_    0.528508 0.041416 0.914696 0.132321
O137  O     O_2   0.476447 0.091986 0.874671 -0.584614
C178  C     C_2   0.482542 0.048106 0.132890 0.418461
H66   H     H_    0.450433 0.022509 0.112832 0.024905
O138  O     O_2   0.481754 0.092639 0.115928 -0.528751
C179  C     C_2   0.510668 0.944160 0.127213 0.440750
H67   H     H_    0.528116 0.958588 0.085241 0.132198
O139  O     O_2   0.476219 0.907972 0.125400 -0.584692
C180  C     C_2   0.482800 0.951897 0.867144 0.418543
H68   H     H_    0.450708 0.977488 0.887238 0.024867
O140  O     O_2   0.482082 0.907376 0.884153 -0.528542
C181  C     C_2   0.510956 0.555828 0.372767 0.440972
H69   H     H_    0.528539 0.541416 0.414690 0.132302
O141  O     O_2   0.476465 0.591983 0.374676 -0.584611
C182  C     C_2   0.482645 0.548103 0.632876 0.418511
H70   H     H_    0.450547 0.522507 0.612801 0.024893
O142  O     O_2   0.481881 0.592633 0.615898 -0.528665
C183  C     C_2   0.510780 0.444164 0.627221 0.440833
H71   H     H_    0.528281 0.458586 0.585268 0.132224
O143  O     O_2   0.476314 0.407989 0.625370 -0.584668
C184  C     C_2   0.482819 0.451897 0.367147 0.418560
H72   H     H_    0.450729 0.477488 0.387243 0.024862
O144  O     O_2   0.482105 0.407377 0.384158 -0.528519
C185  C     C_2   0.010948 0.055829 0.372767 0.440958
H73   H     H_    0.028526 0.041416 0.414693 0.132295
O145  O     O_2   0.976458 0.091984 0.374674 -0.584623
C186  C     C_2   0.982687 0.048103 0.632870 0.418521
H74   H     H_    0.950591 0.022508 0.612791 0.024882
O146  O     O_2   0.981936 0.092630 0.615884 -0.528632
C187  C     C_2   0.010823 0.944166 0.627224 0.440864
H75   H     H_    0.028344 0.958585 0.585278 0.132238
O147  O     O_2   0.976351 0.907996 0.625359 -0.584663
C188  C     C_2   0.982812 0.951897 0.367146 0.418542
H76   H     H_    0.950721 0.977488 0.387241 0.024862
O148  O     O_2   0.982098 0.907376 0.384157 -0.528530
C189  C     C_2   0.010966 0.555828 0.872766 0.440976
H77   H     H_    0.028552 0.541416 0.914688 0.132293
O149  O     O_2   0.976473 0.591981 0.874679 -0.584616
C190  C     C_2   0.982697 0.548103 0.132869 0.418524
H78   H     H_    0.950601 0.522508 0.112788 0.024884
O150  O     O_2   0.981949 0.592630 0.115880 -0.528621
C191  C     C_2   0.010833 0.444166 0.127224 0.440871
H79   H     H_    0.028360 0.458585 0.085281 0.132237
O151  O     O_2   0.976360 0.407998 0.125356 -0.584658
C192  C     C_2   0.982829 0.451897 0.867148 0.418561
H80   H     H_    0.950739 0.477487 0.887245 0.024858
O152  O     O_2   0.982119 0.407378 0.884162 -0.528508
C193  C     C_2   0.586049 0.057545 0.671045 0.434897
H81   H     H_    0.604056 0.044841 0.628583 0.111339
O153  O     O_2   0.609070 0.094359 0.695500 -0.579923
C194  C     C_2   0.600368 0.054116 0.304144 0.316042
H82   H     H_    0.603827 0.095292 0.310175 0.075335
O154  O     O_2   0.646418 0.029292 0.302303 -0.559217
C195  C     C_2   0.586216 0.942466 0.328778 0.434836
H83   H     H_    0.604303 0.955172 0.371204 0.111339
O155  O     O_2   0.609201 0.905659 0.304275 -0.579775
C196  C     C_2   0.600260 0.945890 0.695643 0.315955
H84   H     H_    0.603709 0.904711 0.689627 0.075241
O156  O     O_2   0.646311 0.970717 0.697367 -0.559288
C197  C     C_2   0.586036 0.557545 0.171031 0.434908
H85   H     H_    0.604037 0.544840 0.128568 0.111352
O157  O     O_2   0.609059 0.594361 0.195482 -0.579929
C198  C     C_2   0.600325 0.554112 0.804228 0.316018
H86   H     H_    0.603782 0.595291 0.810241 0.075303
O158  O     O_2   0.646374 0.529284 0.802449 -0.559224
C199  C     C_2   0.586145 0.442460 0.828852 0.434889
H87   H     H_    0.604195 0.455164 0.871295 0.111348
O159  O     O_2   0.609146 0.405652 0.804368 -0.579823
C200  C     C_2   0.600250 0.445890 0.195626 0.315955
H88   H     H_    0.603698 0.404711 0.189608 0.075237
O160  O     O_2   0.646302 0.470717 0.197343 -0.559291
C201  C     C_2   0.086041 0.057545 0.171036 0.434889
H89   H     H_    0.104045 0.044841 0.128574 0.111347
O161  O     O_2   0.109063 0.094360 0.195489 -0.579940
C202  C     C_2   0.100308 0.054111 0.804262 0.316004
H90   H     H_    0.103764 0.095290 0.810270 0.075288
O162  O     O_2   0.146357 0.029282 0.802504 -0.559233
C203  C     C_2   0.086117 0.942458 0.828881 0.434900
H91   H     H_    0.104154 0.955161 0.871330 0.111347
O163  O     O_2   0.109125 0.905649 0.804405 -0.579848
C204  C     C_2   0.100254 0.945890 0.195633 0.315958
H92   H     H_    0.103703 0.904711 0.189616 0.075240
O164  O     O_2   0.146306 0.970717 0.197353 -0.559305
C205  C     C_2   0.086029 0.557546 0.671025 0.434905
H93   H     H_    0.104028 0.544841 0.628560 0.111355
O165  O     O_2   0.109054 0.594361 0.695473 -0.579940
C206  C     C_2   0.100304 0.554111 0.304270 0.316004
H94   H     H_    0.103760 0.595290 0.310277 0.075286
O166  O     O_2   0.146353 0.529281 0.302517 -0.559230
C207  C     C_2   0.086110 0.442458 0.328888 0.434908
H95   H     H_    0.104144 0.455161 0.371339 0.111350
O167  O     O_2   0.109120 0.405648 0.304414 -0.579850
C208  C     C_2   0.100246 0.445890 0.695617 0.315958
H96   H     H_    0.103693 0.404711 0.689599 0.075233
O168  O     O_2   0.146298 0.470717 0.697331 -0.559298

loop_
_geom_bond_atom_site_label_1
_geom_bond_atom_site_label_2
_ccdc_geom_bond_type
O7    Zn29  S    
C148  O108  D    
C183  H71   S    
C34   C56   S    
C126  C127  S    
C133  C181  S    
C35   C53   S    
C122  H10   S    
C193  H81   S    
C122  C202  S    
C79   C87   S    
C153  H41   S    
C25   C105  S    
C197  H85   S    
O42   Zn18  S    
C29   C109  S    
C175  O135  D    
C142  C174  S    
C9    O97   A    
C173  O133  D    
C114  C194  S    
O23   Zn9   S    
C106  C107  S    
C125  C205  S    
O71   Zn9   S    
C51   O75   A    
C79   O67   A    
O78   Zn6   S    
C110  C111  S    
C21   C117  S    
C23   C103  S    
C207  O167  D    
C139  C171  S    
O60   Zn6   S    
C67   O45   A    
O16   Zn2   S    
C110  C158  S    
O2    Zn18  S    
C142  C190  S    
C104  H24   S    
C129  C177  S    
C76   C84   S    
C20   C132  S    
C21   C133  S    
C14   O22   A    
C114  C115  S    
C9    C31   S    
C101  C149  S    
O94   Zn22  S    
C137  C140  S    
O37   Zn29  S    
C24   C120  S    
C68   C95   S    
O8    Zn14  S    
C195  H83   S    
C154  H42   S    
C4    O92   A    
O20   Zn14  S    
C141  C144  S    
O33   Zn25  S    
C72   C91   S    
O27   Zn19  S    
C6    O14   A    
C59   O35   A    
O57   Zn7   S    
C8    O96   A    
C146  H34   S    
C11   O99   A    
C117  C197  S    
C43   C44   T    
C37   C38   T    
C102  H22   S    
O4    Zn4   S    
C159  H47   S    
O54   Zn30  S    
C75   O59   A    
C138  C186  S    
C158  H46   S    
C105  C153  S    
C203  O163  D    
C75   O61   A    
C99   C147  S    
O82   Zn10  S    
O89   Zn17  S    
C174  O134  D    
C194  O154  D    
O8    Zn28  S    
C71   O51   A    
C64   O40   A    
C103  C151  S    
O32   Zn24  S    
C18   C130  S    
C11   O19   A    
C204  H92   S    
C41   C63   S    
O41   Zn17  S    
C42   C64   S    
C115  C195  S    
C83   C91   T    
C186  H74   S    
C52   O76   A    
C130  C162  S    
C22   C118  S    
C45   C59   S    
C116  C196  S    
C46   C60   S    
C56   O80   A    
C80   O70   A    
C30   C142  S    
C16   O24   A    
C135  C183  S    
C30   C126  S    
C63   O87   A    
O68   Zn14  S    
C190  H78   S    
C130  C131  S    
C106  C154  S    
C80   C88   S    
C58   O82   A    
C119  C199  S    
C28   C108  S    
C136  C168  S    
C69   O49   A    
C125  H13   S    
C123  C203  S    
C31   C143  S    
C189  H77   S    
C184  O144  D    
C32   C144  S    
C62   O86   A    
C172  H60   S    
C108  H28   S    
C196  H84   S    
C131  C163  S    
C160  O120  D    
C117  H5    S    
O50   Zn26  S    
C177  H65   S    
C78   O72   A    
C135  C167  S    
C169  O129  D    
O100  Zn28  S    
C3    C21   S    
C157  H45   S    
O101  Zn29  S    
C68   O44   A    
C17   C97   S    
C31   C127  S    
C143  C191  S    
C164  H52   S    
C17   C113  S    
C30   C110  S    
C183  O143  D    
C178  H66   S    
C3    O91   A    
C104  C152  S    
C187  O147  D    
O64   Zn2   S    
C1    O89   A    
C145  O105  D    
C113  H1    S    
C139  C187  S    
C162  H50   S    
O4    Zn20  S    
C50   O74   A    
C5    O93   A    
C149  O109  D    
C79   O69   A    
C28   C140  S    
C14   O102  A    
C85   C93   T    
C106  H26   S    
C71   C92   S    
C47   C48   T    
C129  C161  S    
C170  H58   S    
C7    C17   S    
C87   C95   T    
C57   O81   A    
C179  O139  D    
C192  H80   S    
C19   C115  S    
O7    Zn13  S    
C24   C136  S    
C126  C206  S    
O39   Zn31  S    
O1    Zn1   S    
O40   Zn32  S    
C132  C164  S    
C202  H90   S    
C166  O126  D    
C180  O140  D    
O36   Zn28  S    
O75   Zn3   S    
O55   Zn31  S    
C77   O71   A    
C73   O63   A    
O72   Zn10  S    
C15   O103  A    
C198  H86   S    
O12   Zn6   S    
C53   O77   A    
C39   C40   T    
C152  H40   S    
O56   Zn32  S    
O58   Zn8   S    
C158  O118  D    
O59   Zn5   S    
C25   C137  S    
O61   Zn3   S    
C137  C169  S    
C47   C57   S    
C4    C22   S    
C156  O116  D    
C64   O88   A    
C29   C141  S    
C74   O58   A    
C206  O166  D    
C201  H89   S    
C109  C157  S    
C33   C55   S    
O91   Zn19  S    
C143  C175  S    
C66   C93   S    
C182  H70   S    
C39   C49   S    
C98   C99   S    
C13   O21   A    
O38   Zn30  S    
C68   O46   A    
C70   O50   A    
C70   C89   S    
C157  O117  D    
C50   O26   A    
O83   Zn11  S    
O21   Zn11  S    
C97   C100  S    
O34   Zn26  S    
O22   Zn12  S    
C171  O131  D    
C54   O30   A    
O70   Zn12  S    
C142  C143  S    
C5    O13   A    
O3    Zn19  S    
C174  H62   S    
O52   Zn28  S    
O77   Zn5   S    
C8    O16   A    
O9    Zn7   S    
C134  C135  S    
C65   O47   A    
O104  Zn32  S    
O4    Zn22  S    
C32   C128  S    
C155  O115  D    
C128  C208  S    
C173  H61   S    
C2    C24   S    
C25   C121  S    
O102  Zn30  S    
O87   Zn15  S    
C200  H88   S    
O88   Zn16  S    
C36   C54   S    
O8    Zn12  S    
O73   Zn1   S    
C191  H79   S    
C66   O42   A    
O43   Zn19  S    
C49   O25   A    
C203  H91   S    
O84   Zn12  S    
C31   C111  S    
O85   Zn13  S    
C84   C92   T    
C188  H76   S    
O67   Zn13  S    
O25   Zn17  S    
C9    O17   A    
C72   O54   A    
C88   C96   T    
C77   O65   A    
C168  H56   S    
C100  C148  S    
C41   C42   T    
C35   C36   T    
C26   C106  S    
O28   Zn20  S    
C62   O38   A    
C167  H55   S    
O5    Zn31  S    
C123  H11   S    
C45   C46   T    
O6    Zn32  S    
C161  O121  D    
C60   O36   A    
C181  H69   S    
C121  H9    S    
O3    Zn5   S    
C56   O32   A    
C154  O114  D    
C180  H68   S    
O29   Zn21  S    
C165  O125  D    
O47   Zn23  S    
O1    Zn17  S    
O48   Zn24  S    
O7    Zn27  S    
C74   O64   A    
O96   Zn24  S    
C146  O106  D    
O81   Zn9   S    
C118  H6    S    
O51   Zn27  S    
C120  C200  S    
C163  H51   S    
C185  O145  D    
C15   O23   A    
C168  O128  D    
O30   Zn22  S    
O31   Zn23  S    
C4    O12   A    
C134  C182  S    
C129  C132  S    
C81   C89   T    
O98   Zn26  S    
C111  H31   S    
C148  H36   S    
C78   O66   A    
C205  H93   S    
C14   C28   S    
O24   Zn10  S    
C193  O153  D    
C18   C114  S    
C204  O164  D    
C74   C82   S    
C153  O113  D    
C186  O146  D    
C208  O168  D    
C197  O157  D    
C16   C26   S    
C140  C172  S    
C60   O84   A    
O97   Zn25  S    
C97   H17   S    
C117  C120  S    
C116  H4    S    
C150  H38   S    
C130  C178  S    
C107  H27   S    
C108  C156  S    
C71   O53   A    
C58   O34   A    
C43   C61   S    
C8    C18   S    
O45   Zn21  S    
C190  O150  D    
C187  H75   S    
C12   O20   A    
C66   O48   A    
C20   C100  S    
C27   C107  S    
C28   C124  S    
O65   Zn15  S    
C137  C185  S    
C163  O123  D    
C80   O68   A    
C54   O78   A    
C172  O132  D    
C73   C81   S    
C101  C104  S    
C196  O156  D    
C61   O37   A    
O13   Zn3   S    
C107  C155  S    
O14   Zn4   S    
C169  H57   S    
O2    Zn2   S    
O4    Zn6   S    
C208  H96   S    
O69   Zn11  S    
C19   C99   S    
C32   C112  S    
C65   O41   A    
C7    O95   A    
O49   Zn25  S    
C133  C165  S    
C26   C138  S    
C164  O124  D    
C48   C58   S    
C5    C19   S    
C113  C193  S    
C6    C20   S    
O8    Zn30  S    
C82   C90   T    
C23   C135  S    
C115  H3    S    
C124  C204  S    
C178  O138  D    
C23   C119  S    
C75   C83   S    
C145  H33   S    
C76   O60   A    
C40   C50   S    
C38   C52   S    
C162  O122  D    
O93   Zn21  S    
C149  H37   S    
C18   C98   S    
C136  C184  S    
O95   Zn23  S    
C51   O27   A    
C138  C139  S    
C147  H35   S    
C144  C192  S    
O35   Zn27  S    
C127  C207  S    
C194  H82   S    
C170  O130  D    
O76   Zn4   S    
C176  H64   S    
C192  O152  D    
C26   C122  S    
C55   O31   A    
C191  O151  D    
C155  H43   S    
O3    Zn21  S    
C141  C173  S    
C27   C139  S    
C175  H63   S    
C69   O55   A    
C151  H39   S    
O15   Zn1   S    
C202  O162  D    
C171  H59   S    
O1    Zn7   S    
C131  C179  S    
O2    Zn8   S    
C22   C134  S    
C167  O127  D    
C198  O158  D    
O92   Zn20  S    
C37   C51   S    
C152  O112  D    
O74   Zn2   S    
C19   C131  S    
C199  O159  D    
O5    Zn25  S    
C61   O85   A    
C207  H95   S    
C99   H19   S    
O62   Zn4   S    
C140  C188  S    
C6    O94   A    
C59   O83   A    
C1    O9    A    
O86   Zn14  S    
C184  H72   S    
C121  C124  S    
C49   O73   A    
C86   C94   T    
C118  C119  S    
O6    Zn10  S    
C7    O15   A    
C133  C136  S    
C10   O98   A    
C102  C150  S    
C100  H20   S    
O26   Zn18  S    
C101  H21   S    
C113  C116  S    
C21   C101  S    
C78   C86   S    
C182  O142  D    
C111  C159  S    
C181  O141  D    
C97   C145  S    
O90   Zn18  S    
C102  C103  S    
O5    Zn15  S    
O6    Zn16  S    
C126  H14   S    
C119  H7    S    
C105  C108  S    
C132  C180  S    
C120  H8    S    
C17   C129  S    
C10   O18   A    
C114  H2    S    
C150  O110  D    
C109  C112  S    
O7    Zn11  S    
C199  H87   S    
C20   C116  S    
C27   C123  S    
C118  C198  S    
C44   C62   S    
C12   C30   S    
O44   Zn20  S    
C57   O33   A    
C24   C104  S    
C110  H30   S    
C76   O62   A    
C189  O149  D    
O18   Zn16  S    
C125  C128  S    
C2    O90   A    
C179  H67   S    
O99   Zn27  S    
C33   C34   T    
C73   O57   A    
O66   Zn16  S    
C200  O160  D    
C151  O111  D    
O19   Zn13  S    
O3    Zn3   S    
C134  C166  S    
C65   C94   S    
C2    O10   A    
C1    C23   S    
C124  H12   S    
C112  C160  S    
O10   Zn8   S    
C67   C96   S    
C138  C170  S    
O11   Zn5   S    
C177  O137  D    
C188  O148  D    
C69   C90   S    
C98   H18   S    
C127  H15   S    
C166  H54   S    
C128  H16   S    
C29   C125  S    
O5    Zn9   S    
C144  C176  S    
O46   Zn22  S    
C52   O28   A    
C161  H49   S    
C22   C102  S    
C67   O43   A    
O79   Zn7   S    
C121  C201  S    
C70   O56   A    
O80   Zn8   S    
C205  O165  D    
O53   Zn29  S    
C165  H53   S    
C3    O11   A    
C156  H44   S    
C72   O52   A    
C53   O29   A    
O103  Zn31  S    
C103  H23   S    
C206  H94   S    
C201  O161  D    
C63   O39   A    
C176  O136  D    
C159  O119  D    
C160  H48   S    
O63   Zn1   S    
O17   Zn15  S    
C77   C85   S    
C16   O104  A    
C10   C32   S    
O6    Zn26  S    
C141  C189  S    
C11   C29   S    
C15   C25   S    
C112  H32   S    
C185  H73   S    
C109  H29   S    
C195  O155  D    
C13   C27   S    
C98   C146  S    
C147  O107  D    
C12   O100  A    
C55   O79   A    
C122  C123  S    
C13   O101  A    
O1    Zn23  S    
C105  H25   S    
O2    Zn24  S    
