data_mof_unit_14601.cif
_audit_creation_date              2012-12-11T17:00:22-0500
_audit_creation_method            fapswitch 2.2
_symmetry_space_group_name_H-M    P1
_symmetry_Int_Tables_number       1
_space_group_crystal_system       triclinic
_cell_length_a                    6.954681
_cell_length_b                    13.597206
_cell_length_c                    20.260964
_cell_angle_alpha                 103.075105
_cell_angle_beta                  89.520322
_cell_angle_gamma                 91.060754
_cell_volume                      1865.95285288

loop_
_atom_site_label
_atom_site_type_symbol
_atom_type_description
_atom_site_fract_x
_atom_site_fract_y
_atom_site_fract_z
_atom_type_partial_charge
O1    O     O_R   0.506770 0.599700 0.449550 -0.538205
O2    O     O_R   0.179980 0.595740 0.587960 -0.548809
O3    O     O_R   0.004580 0.400300 0.550450 -0.538454
C1    C     C_R   0.348222 0.616908 0.615283 0.704679
O4    O     O_R   0.177380 0.611700 0.452380 -0.539537
O5    O     O_R   0.001970 0.416370 0.413900 -0.544191
C2    C     C_R   0.347973 0.638352 0.435759 0.702215
O6    O     O_R   0.509390 0.583630 0.586100 -0.533705
O7    O     O_3   0.337530 0.435890 0.487530 -0.371624
V1    V     V_3+5 0.064660 0.511890 0.502310 1.435587
O8    O     O_R   0.671950 0.404260 0.412040 -0.542537
C3    C     C_R   0.840588 0.382916 0.384694 0.682288
O9    O     O_R   0.674540 0.388300 0.547620 -0.538266
C4    C     C_R   0.841559 0.361198 0.563789 0.687783
V2    V     V_3+5 0.564030 0.488110 0.497690 1.446179
O10   O     O_3   0.841030 0.564110 0.512470 -0.365814
C5    C     C_R   0.761104 0.109121 0.607280 -0.087543
H1    H     H_    0.719367 0.033532 0.580992 0.182635
C6    C     C_R   0.841949 0.279781 0.600159 -0.128074
C7    C     C_R   0.910161 0.312002 0.925176 -0.268385
C8    C     C_R   0.921629 0.387561 0.888725 0.408218
C9    C     C_R   0.897166 0.362214 0.818790 -0.125422
C10   C     C_R   0.860954 0.261212 0.783015 -0.024378
C11   C     C_R   0.841671 0.184626 0.820836 -0.065010
C12   C     C_R   0.841441 0.234824 0.710873 0.051784
C13   C     C_R   0.787462 0.134428 0.678029 -0.063917
C14   C     C_R   0.760967 0.060715 0.716044 0.250364
C15   C     C_R   0.794007 0.084126 0.785721 0.287787
C16   C     C_R   0.872669 0.305541 0.670042 -0.223045
C17   C     C_R   0.786128 0.180361 0.568172 0.334145
C18   C     C_R   0.869335 0.211897 0.892601 -0.088167
H2    H     H_    0.917276 0.382489 0.690828 0.106119
H3    H     H_    0.932521 0.331297 0.979535 0.091572
H4    H     H_    0.904500 0.424686 0.794357 0.121459
C19   C     C_R   0.708565 0.181132 0.227711 0.102926
C20   C     C_R   0.866013 0.183379 0.184428 -0.104699
C21   C     C_R   0.022398 0.247433 0.210305 -0.181231
H5    H     H_    0.145834 0.252561 0.178511 0.134015
C22   C     C_R   0.015490 0.310786 0.275730 -0.176497
H6    H     H_    0.134018 0.362746 0.292422 0.126493
C23   C     C_R   0.851609 0.312314 0.317249 -0.105546
C24   C     C_R   0.701638 0.244106 0.292527 0.112621
C25   C     C_3   0.494584 0.265649 0.285900 -0.408084
C26   C     C_3   0.502064 0.197916 0.215381 -0.416216
H7    H     H_    0.470715 0.346275 0.285892 0.164228
H8    H     H_    0.402726 0.234380 0.321677 0.182423
H9    H     H_    0.483471 0.239223 0.174413 0.169536
H10   H     H_    0.411867 0.128482 0.210409 0.172699
C27   C     C_R   0.487639 0.671154 0.732730 0.101405
C28   C     C_R   0.351185 0.681998 0.684591 -0.082905
C29   C     C_R   0.201689 0.750556 0.707068 -0.132496
H11   H     H_    0.087871 0.759242 0.672834 0.153399
C30   C     C_R   0.203359 0.813308 0.772757 -0.142080
H12   H     H_    0.092002 0.868194 0.786504 0.130794
C31   C     C_R   0.354475 0.809880 0.818012 -0.076861
C32   C     C_R   0.489922 0.733582 0.797324 0.106181
C33   C     C_3   0.704239 0.734221 0.800194 -0.373206
C34   C     C_3   0.701382 0.665670 0.729329 -0.389604
H13   H     H_    0.757825 0.696243 0.839430 0.172938
H14   H     H_    0.768286 0.809897 0.801644 0.225765
H15   H     H_    0.752852 0.588306 0.727966 0.154124
H16   H     H_    0.763281 0.701667 0.689723 0.211672
C35   C     C_R   0.475102 0.880888 0.386196 -0.146797
H17   H     H_    0.470570 0.831304 0.479418 0.138162
H18   H     H_    0.541614 0.999706 0.301079 0.135914
H19   H     H_    0.532176 0.954899 0.410318 0.153145
C36   C     C_R   0.365143 0.715323 0.395975 -0.040664
C37   C     C_R   0.277795 0.688572 0.071361 -0.156864
C38   C     C_R   0.242497 0.614926 0.107748 -0.114842
C39   C     C_R   0.272598 0.635897 0.177470 -0.160752
C40   C     C_R   0.341482 0.731996 0.212797 0.078942
C41   C     C_R   0.383477 0.806128 0.174672 0.070302
C42   C     C_R   0.369298 0.757181 0.284562 0.075364
C43   C     C_R   0.442410 0.854805 0.316074 0.132895
C44   C     C_R   0.484981 0.925370 0.277417 -0.197642
C45   C     C_R   0.456154 0.901505 0.207924 -0.204177
C46   C     C_R   0.328833 0.688749 0.326337 -0.217168
C47   C     C_R   0.438946 0.811090 0.425715 -0.153810
C48   C     C_R   0.348543 0.783881 0.103972 -0.080435
H20   H     H_    0.274557 0.613241 0.306339 0.091314
H21   H     H_    0.248380 0.671461 0.017481 0.122796
H22   H     H_    0.240113 0.575118 0.202024 0.104484
H23   H     H_    0.188637 0.541184 0.081855 0.112546
H24   H     H_    0.492923 0.958477 0.180237 0.123099
O11   O     O_R   0.203450 0.916320 0.913910 -0.552896
O12   O     O_R   0.535520 0.888300 0.047620 -0.543192
O13   O     O_R   0.710860 0.083650 0.086100 -0.543999
C49   C     C_R   0.365059 0.861763 0.064412 0.682074
O14   O     O_R   0.532860 0.904250 0.912040 -0.520726
O15   O     O_R   0.708190 0.099710 0.949550 -0.516104
C50   C     C_R   0.364321 0.881848 0.885024 0.728539
O16   O     O_R   0.206120 0.900260 0.050460 -0.537255
O17   O     O_3   0.375280 0.064080 0.012470 -0.374647
V3    V     V_3+5 0.648180 0.988110 0.997690 1.462187
O18   O     O_R   0.038220 0.111740 0.952370 -0.551744
C51   C     C_R   0.871032 0.137956 0.935263 0.743510
O19   O     O_R   0.040880 0.095790 0.087940 -0.546264
C52   C     C_R   0.872383 0.117637 0.115139 0.683511
V4    V     V_3+5 0.148800 0.011950 0.002300 1.417850
O20   O     O_3   0.871820 0.935920 0.987530 -0.369527
O21   O     O_3   0.753675 0.149172 0.499291 -0.652761
H25   H     H_    0.794485 0.202896 0.476160 0.271345
Br1   Br    Br    0.684717 0.923210 0.674512 -0.607003
O22   O     O_3   0.957706 0.487343 0.919932 -0.653387
H26   H     H_    0.971289 0.493195 0.969367 0.278642
O23   O     O_3   0.773707 0.006511 0.818354 -0.622162
H27   H     H_    0.904202 0.995181 0.833919 0.268674

loop_
_geom_bond_atom_site_label_1
_geom_bond_atom_site_label_2
_ccdc_geom_bond_type
C34   H16   S    
C31   C32   A    
O17   V3    S    
C42   C43   A    
O18   C51   A    
C36   C46   A    
C41   C45   A    
C45   H24   S    
O19   C52   A    
O11   C50   A    
C22   C23   A    
C30   H12   S    
C13   C14   A    
O21   H25   S    
C38   H23   S    
C5    C13   A    
C20   C21   A    
C41   C48   A    
O5    C3    A    
O12   C49   A    
C33   H13   S    
O23   H27   S    
C18   C51   S    
O13   V3    S    
C32   C33   S    
C23   C24   A    
O14   V3    S    
C19   C24   A    
O22   H26   S    
C31   C50   S    
O12   V3    S    
C8    O22   S    
O8    V2    S    
C49   O16   A    
C15   O23   S    
C37   C38   A    
C10   C11   A    
C39   C40   A    
O1    V2    S    
O14   C50   A    
O7    V1    S    
O17   V4    S    
C26   H9    S    
C1    O6    A    
O13   C52   A    
C34   H15   S    
C35   H19   S    
O9    C4    A    
C5    C17   A    
C36   C47   A    
C48   C49   S    
O19   V4    S    
O15   V3    S    
C30   C31   A    
C12   C16   A    
C9    H4    S    
C43   C44   A    
C29   H11   S    
C22   H6    S    
O4    C2    A    
C33   H14   S    
C28   C29   A    
C12   C13   A    
C27   C34   S    
C1    C28   S    
C29   C30   A    
C19   C20   A    
O2    C1    A    
C44   C45   A    
C21   H5    S    
O11   V4    S    
V4    O20   S    
V3    O20   S    
C5    H1    S    
C19   C26   S    
C25   H7    S    
O3    C4    A    
C7    H3    S    
O6    V2    S    
O9    V2    S    
C25   C26   S    
C24   C25   S    
C37   H21   S    
C6    C16   A    
C3    C23   S    
C40   C42   A    
C46   H20   S    
O1    C2    A    
H17   C47   S    
C4    C6    S    
C11   C15   A    
O5    V1    S    
O8    C3    A    
O15   C51   A    
C35   C43   A    
C16   H2    S    
C27   C32   A    
H18   C44   S    
O7    V2    S    
C11   C18   A    
O4    V1    S    
C21   C22   A    
O3    V1    S    
V1    O10   S    
C33   C34   S    
C37   C48   A    
V2    O10   S    
C17   O21   S    
C14   Br1   S    
O18   V4    S    
C10   C12   A    
C38   C39   A    
C39   H22   S    
C25   H8    S    
C2    C36   S    
C40   C41   A    
C7    C8    A    
C27   C28   A    
C14   C15   A    
C42   C46   A    
C9    C10   A    
C20   C52   S    
C8    C9    A    
C6    C17   A    
C7    C18   A    
C26   H10   S    
O16   V4    S    
C35   C47   A    
O2    V1    S    
