data_mof_unit_48657.cif
_audit_creation_date              2012-12-11T15:27:05-0500
_audit_creation_method            fapswitch 2.2
_symmetry_space_group_name_H-M    P1
_symmetry_Int_Tables_number       1
_space_group_crystal_system       triclinic
_cell_length_a                    13.79733
_cell_length_b                    13.944648
_cell_length_c                    27.359294
_cell_angle_alpha                 90.251189
_cell_angle_beta                  89.783797
_cell_angle_gamma                 119.581149
_cell_volume                      4577.73629712

loop_
_atom_site_label
_atom_site_type_symbol
_atom_type_description
_atom_site_fract_x
_atom_site_fract_y
_atom_site_fract_z
_atom_type_partial_charge
C1    C     C_R   0.233060 0.787518 0.568179 0.537517
C2    C     C_R   0.212231 0.445839 0.568326 0.543986
C3    C     C_R   0.553905 0.766116 0.568477 0.533548
C4    C     C_3   0.655289 0.734049 0.789255 0.225296
C5    C     C_3   0.247091 0.942409 0.784016 0.225088
C6    C     C_3   0.058043 0.316244 0.786031 0.224175
C7    C     C_3   0.645829 0.725615 0.732319 0.178460
C8    C     C_3   0.258211 0.935103 0.727609 0.180136
C9    C     C_3   0.069428 0.342479 0.730071 0.177216
C10   C     C_1   0.708213 0.864719 0.858572 -0.063368
C11   C     C_1   0.111188 0.876100 0.851486 -0.066578
C12   C     C_1   0.118433 0.234201 0.851171 -0.062620
C13   C     C_1   0.635074 0.819755 0.657316 -0.024458
C14   C     C_1   0.171806 0.818322 0.654812 -0.024312
C15   C     C_1   0.178312 0.356636 0.655258 -0.022201
C16   C     C_1   0.605356 0.799530 0.615416 0.014990
C17   C     C_1   0.195995 0.806564 0.613936 0.018092
C18   C     C_1   0.192291 0.391619 0.614304 0.017925
C19   C     C_R   0.070873 0.162347 0.941526 0.538274
C20   C     C_R   0.779632 0.887098 0.948964 0.528463
C21   C     C_R   0.091236 0.928444 0.941804 0.535330
C22   C     C_R   0.580367 0.788042 0.379965 0.083113
C23   C     C_R   0.194416 0.802718 0.383882 0.066984
C24   C     C_R   0.186757 0.370005 0.389344 0.062739
C25   C     C_R   0.687650 0.865669 0.364774 -0.183383
C26   C     C_R   0.124926 0.707910 0.356349 -0.167136
C27   C     C_R   0.275391 0.381041 0.359825 -0.162242
C28   C     C_R   0.709000 0.888964 0.315144 -0.122769
C29   C     C_R   0.109454 0.715978 0.307005 -0.146563
C30   C     C_R   0.254588 0.327242 0.314959 -0.141038
C31   C     C_R   0.622661 0.835287 0.281149 0.045322
C32   C     C_R   0.161571 0.818953 0.284520 0.037399
C33   C     C_R   0.144952 0.260975 0.299160 0.031834
C34   C     C_R   0.233118 0.786933 0.431312 0.590913
C35   C     C_R   0.211843 0.443710 0.431848 0.602986
C36   C     C_R   0.552707 0.765442 0.431154 0.573307
C37   C     C_R   0.514535 0.761600 0.296627 -0.045484
C38   C     C_R   0.221878 0.915033 0.312432 -0.061453
C39   C     C_R   0.056139 0.240040 0.330571 -0.056784
C40   C     C_R   0.492373 0.737329 0.346179 0.249465
C41   C     C_R   0.239456 0.907838 0.362432 0.239446
C42   C     C_R   0.076058 0.294795 0.375790 0.240738
C43   C     C_R   0.637092 0.750885 0.204131 0.263067
C44   C     C_R   0.251305 0.885870 0.203234 0.255859
C45   C     C_R   0.069842 0.278504 0.219713 0.255439
C46   C     C_R   0.667740 0.760578 0.154560 0.256404
C47   C     C_R   0.240357 0.899288 0.152879 0.238347
C48   C     C_R   0.057757 0.260752 0.168767 0.248992
C49   C     C_R   0.720030 0.955377 0.156936 -0.201657
C50   C     C_R   0.038686 0.785230 0.160320 -0.197031
C51   C     C_R   0.147617 0.148254 0.174037 -0.200222
C52   C     C_R   0.685746 0.944464 0.205308 -0.184507
C53   C     C_R   0.049390 0.771478 0.209581 -0.188527
C54   C     C_R   0.163876 0.169999 0.224000 -0.184668
C55   C     C_R   0.647397 0.843737 0.229097 0.027027
C56   C     C_R   0.154375 0.825541 0.231551 0.028987
C57   C     C_R   0.123624 0.233245 0.247019 0.027447
C58   C     C_R   0.716360 0.865514 0.132063 -0.022978
C59   C     C_R   0.132859 0.854414 0.132488 -0.026485
C60   C     C_R   0.093599 0.191807 0.146046 -0.021214
C61   C     C_R   0.068388 0.157672 0.094401 0.574846
C62   C     C_R   0.778305 0.885077 0.086270 0.556906
C63   C     C_R   0.116098 0.893328 0.085650 0.566641
C64   C     C_3   0.572172 0.861861 0.735498 -0.217986
C65   C     C_3   0.128457 0.726515 0.735914 -0.215473
C66   C     C_3   0.273770 0.391384 0.735380 -0.214984
C67   C     C_3   0.775133 0.928382 0.721869 -0.281329
C68   C     C_3   0.052891 0.851025 0.713408 -0.279432
C69   C     C_3   0.126446 0.200686 0.712101 -0.279336
C70   C     C_3   0.794072 0.937079 0.778036 -0.284100
C71   C     C_3   0.039514 0.869633 0.768355 -0.286894
C72   C     C_3   0.108473 0.168262 0.766790 -0.288013
C73   C     C_1   0.734618 0.873778 0.900895 -0.039121
C74   C     C_1   0.102211 0.898622 0.893043 -0.032512
C75   C     C_1   0.099050 0.202577 0.892713 -0.035105
C76   C     C_3   0.656385 0.833525 0.710223 0.038064
C77   C     C_3   0.153384 0.831948 0.706499 0.036148
C78   C     C_3   0.162725 0.324189 0.706815 0.038443
C79   C     C_3   0.592222 0.876106 0.791458 -0.198628
C80   C     C_3   0.106939 0.739541 0.790692 -0.196451
C81   C     C_3   0.258221 0.357439 0.789986 -0.202678
C82   C     C_3   0.687029 0.852955 0.805693 0.060174
C83   C     C_3   0.126024 0.857205 0.799970 0.060412
C84   C     C_3   0.135612 0.268947 0.799843 0.062359
Cr1   Cr    Cr6+3 0.164410 0.584450 0.499910 1.069216
Cr2   Cr    Cr6+3 0.415550 0.579960 0.499910 1.058627
Cr3   Cr    Cr6+3 0.420040 0.835590 0.499910 1.081249
Cr4   Cr    Cr6+3 0.156760 0.076070 0.017830 1.016008
Cr5   Cr    Cr6+3 0.923930 0.080690 0.017830 1.002551
Cr6   Cr    Cr6+3 0.919310 0.843240 0.017830 1.006385
H1    H     H_    0.615934 0.961732 0.802252 0.105989
H2    H     H_    0.019661 0.678178 0.800427 0.102129
H3    H     H_    0.313718 0.323420 0.799251 0.099787
H4    H     H_    0.484923 0.796950 0.728180 0.115746
H5    H     H_    0.198390 0.708841 0.732669 0.126014
H6    H     H_    0.304442 0.481141 0.732433 0.129724
H7    H     H_    0.513917 0.820131 0.811290 0.175048
H8    H     H_    0.162157 0.722165 0.814122 0.173105
H9    H     H_    0.283301 0.431224 0.813528 0.175900
H10   H     H_    0.725468 0.719787 0.799771 0.050978
H11   H     H_    0.262029 0.027206 0.792425 0.049612
H12   H     H_    0.970095 0.250054 0.792778 0.048033
H13   H     H_    0.754309 0.906752 0.391081 0.111615
H14   H     H_    0.089006 0.626081 0.371922 0.163191
H15   H     H_    0.361096 0.437502 0.369772 0.167242
H16   H     H_    0.793082 0.945659 0.303060 0.121061
H17   H     H_    0.061483 0.641271 0.285872 0.135290
H18   H     H_    0.323887 0.344366 0.290946 0.132994
H19   H     H_    0.693050 0.015513 0.224822 0.143907
H20   H     H_    0.974852 0.723402 0.231174 0.141760
H21   H     H_    0.206493 0.136225 0.244931 0.130047
H22   H     H_    0.755789 0.035825 0.139965 0.159638
H23   H     H_    0.955632 0.748666 0.144972 0.172506
H24   H     H_    0.175925 0.095907 0.157286 0.158466
H25   H     H_    0.448580 0.720941 0.269908 0.121565
H26   H     H_    0.257937 0.994955 0.294918 0.121101
H27   H     H_    0.971328 0.187057 0.318292 0.113801
H28   H     H_    0.581499 0.939682 0.720027 0.142311
H29   H     H_    0.053727 0.653645 0.720490 0.144415
H30   H     H_    0.339410 0.376767 0.719078 0.138142
H31   H     H_    0.838849 0.913548 0.703658 0.109883
H32   H     H_    0.065009 0.923910 0.692034 0.111130
H33   H     H_    0.047929 0.148936 0.691554 0.110397
H34   H     H_    0.786092 0.007824 0.707671 0.129739
H35   H     H_    0.975389 0.778409 0.699745 0.132404
H36   H     H_    0.191214 0.183890 0.696450 0.130459
H37   H     H_    0.819347 0.022456 0.790328 0.119760
H38   H     H_    0.953497 0.809031 0.780340 0.118088
H39   H     H_    0.163755 0.134570 0.776920 0.115435
H40   H     H_    0.863357 0.921408 0.786990 0.100220
H41   H     H_    0.049463 0.952327 0.773687 0.101487
H42   H     H_    0.020746 0.103286 0.772647 0.103110
H43   H     H_    0.717443 0.717483 0.718404 0.114851
H44   H     H_    0.261392 0.009689 0.711293 0.115949
H45   H     H_    0.989061 0.282685 0.712592 0.117642
O1    O     O_R   0.137310 0.468260 0.552980 -0.495786
O2    O     O_R   0.531740 0.669050 0.552980 -0.501466
O3    O     O_R   0.330950 0.862690 0.552980 -0.495498
O4    O     O_R   0.180530 0.983530 0.965090 -0.514835
O5    O     O_R   0.016470 0.197000 0.965090 -0.496513
O6    O     O_R   0.803000 0.819470 0.965090 -0.521775
O7    O     O_R   0.174120 0.688790 0.549730 -0.504419
O8    O     O_R   0.311210 0.485330 0.549730 -0.502714
O9    O     O_R   0.514670 0.825880 0.549730 -0.503267
O10   O     O_R   0.139940 0.470480 0.446230 -0.451692
O11   O     O_R   0.529520 0.669460 0.446230 -0.492807
O12   O     O_R   0.330540 0.860060 0.446230 -0.438051
O13   O     O_R   0.176560 0.690850 0.450770 -0.523334
O14   O     O_R   0.309150 0.485710 0.450770 -0.500001
O15   O     O_R   0.514290 0.823440 0.450770 -0.486093
O16   O     O_3   0.333333 0.666667 0.499990 -0.275656
O17   O     O_3   0.000000 1.000000 0.017910 -0.286115
O18   O     O_R   0.149710 0.171070 0.967700 -0.497372
O19   O     O_R   0.828930 0.978640 0.967700 -0.522368
O20   O     O_R   0.021360 0.850290 0.967700 -0.487032
O21   O     O_R   0.178510 0.985930 0.071830 -0.475994
O22   O     O_R   0.014070 0.192580 0.071830 -0.452655
O23   O     O_R   0.807420 0.821490 0.071830 -0.466592
O24   O     O_R   0.147830 0.173300 0.066650 -0.494779
O25   O     O_R   0.826700 0.974530 0.066650 -0.525777
O26   O     O_R   0.025470 0.852170 0.066650 -0.504494
O27   O     O_3   0.601752 0.653964 0.229929 -0.715735
H46   H     H_    0.608038 0.598831 0.209324 0.355539
O28   O     O_3   0.354206 0.930446 0.225815 -0.715372
H47   H     H_    0.414320 0.970631 0.201650 0.354833
O29   O     O_3   0.033911 0.343128 0.243603 -0.716789
H48   H     H_    0.988522 0.360686 0.221335 0.352611
O30   O     O_3   0.663707 0.670991 0.130510 -0.574035
C85   C     C_3   0.572044 0.623829 0.098001 0.015974
H49   H     H_    0.597732 0.593576 0.065535 0.164275
H50   H     H_    0.547105 0.683510 0.084005 0.101631
C86   C     C_3   0.472257 0.525775 0.122178 -0.285312
H51   H     H_    0.498884 0.468486 0.137194 0.179716
H52   H     H_    0.440760 0.555650 0.152752 0.169088
C87   C     C_3   0.378047 0.463061 0.085802 -0.469226
H53   H     H_    0.347136 0.517521 0.071554 0.135158
H54   H     H_    0.308578 0.391366 0.104389 0.164388
H55   H     H_    0.407202 0.432027 0.054817 0.159214
O31   O     O_3   0.333770 0.964626 0.124968 -0.568868
C88   C     C_3   0.365499 0.895601 0.099973 0.000462
H56   H     H_    0.301308 0.844414 0.072339 0.136500
H57   H     H_    0.376957 0.840458 0.125936 0.125978
C89   C     C_3   0.476106 0.967392 0.073762 -0.245013
H58   H     H_    0.466204 0.022641 0.047555 0.179175
H59   H     H_    0.540554 0.019303 0.101041 0.170793
C90   C     C_3   0.515156 0.897343 0.046096 -0.482270
H60   H     H_    0.526060 0.842099 0.071783 0.135103
H61   H     H_    0.596370 0.951728 0.028098 0.155388
H62   H     H_    0.453477 0.846851 0.017660 0.146224
O32   O     O_3   0.008743 0.309271 0.141828 -0.567115
C91   C     C_3   0.092243 0.416067 0.127764 0.009366
H63   H     H_    0.143762 0.409606 0.097994 0.158206
H64   H     H_    0.147444 0.463187 0.158978 0.134793
C92   C     C_3   0.037007 0.480232 0.108687 -0.245978
H65   H     H_    0.984855 0.436806 0.076377 0.181496
H66   H     H_    0.982168 0.484197 0.137562 0.171716
C93   C     C_3   0.123689 0.597413 0.094144 -0.490821
H67   H     H_    0.173754 0.643709 0.126451 0.143638
H68   H     H_    0.081045 0.640939 0.079454 0.153743
H69   H     H_    0.180137 0.595823 0.065486 0.141703
O33   O     O_3   0.385897 0.665033 0.362604 -0.699725
H70   H     H_    0.334282 0.637746 0.334341 0.316828
O34   O     O_3   0.302210 0.001139 0.390317 -0.675787
H71   H     H_    0.327221 0.067300 0.369488 0.320203
O35   O     O_3   0.989211 0.278584 0.406257 -0.679461
H72   H     H_    0.917784 0.223448 0.391223 0.319946
O36   O     O_3   0.549120 0.630055 0.716541 -0.700692
H73   H     H_    0.483637 0.637165 0.725962 0.344982
O37   O     O_3   0.358929 0.939250 0.714120 -0.703213
H74   H     H_    0.355652 0.869954 0.724754 0.344446
O38   O     O_3   0.084328 0.448037 0.720043 -0.707668
H75   H     H_    0.156187 0.503997 0.734298 0.347257
O39   O     O_3   0.551728 0.657599 0.811002 -0.570202
C94   C     C_3   0.561798 0.583030 0.842526 0.007672
H76   H     H_    0.485995 0.544742 0.865898 0.154512
H77   H     H_    0.634238 0.625454 0.867719 0.125568
C95   C     C_3   0.567914 0.492274 0.813244 -0.261282
H78   H     H_    0.503636 0.461103 0.784146 0.202469
H79   H     H_    0.650732 0.526206 0.795342 0.150643
C96   C     C_3   0.549443 0.396704 0.845983 -0.509973
H80   H     H_    0.612991 0.425694 0.875425 0.151780
H81   H     H_    0.556815 0.334543 0.823447 0.151607
H82   H     H_    0.464920 0.357581 0.862579 0.147054
O40   O     O_3   0.323007 0.917073 0.808106 -0.572832
C97   C     C_3   0.396393 0.002011 0.839822 0.010510
H83   H     H_    0.428146 0.963908 0.866302 0.157298
H84   H     H_    0.353663 0.037586 0.861894 0.124763
C98   C     C_3   0.494775 0.092005 0.811221 -0.261147
H85   H     H_    0.520254 0.054217 0.781690 0.208183
H86   H     H_    0.468798 0.147463 0.793754 0.148478
C99   C     C_3   0.594740 0.159061 0.844368 -0.508539
H87   H     H_    0.571726 0.197360 0.874632 0.151660
H88   H     H_    0.662948 0.224788 0.822597 0.148853
H89   H     H_    0.625415 0.105678 0.860090 0.144450
O41   O     O_3   0.089017 0.413814 0.813738 -0.568620
C100  C     C_3   0.001145 0.405430 0.843473 0.013664
H90   H     H_    0.039064 0.471901 0.871393 0.161240
H91   H     H_    0.958848 0.326165 0.863941 0.124986
C101  C     C_3   0.917286 0.422227 0.813272 -0.264295
H92   H     H_    0.962536 0.490378 0.786897 0.206282
H93   H     H_    0.863268 0.346153 0.792090 0.148149
C102  C     C_3   0.844494 0.450085 0.845777 -0.506583
H94   H     H_    0.799099 0.383827 0.873031 0.150915
H95   H     H_    0.783179 0.458575 0.822759 0.148840
H96   H     H_    0.896335 0.529339 0.865246 0.149399

loop_
_geom_bond_atom_site_label_1
_geom_bond_atom_site_label_2
_ccdc_geom_bond_type
C70   H37   S    
C58   C62   S    
C15   C18   T    
C92   H66   S    
C6    O41   S    
Cr6   O23   S    
O32   C91   S    
C2    C18   S    
C24   C42   A    
C85   H49   S    
C35   O14   A    
C101  H92   S    
Cr1   O13   S    
C100  H91   S    
O34   H71   S    
C67   H34   S    
C6    C9    S    
C96   H81   S    
C72   H39   S    
C87   H54   S    
O39   C94   S    
C88   H56   S    
C95   C96   S    
C45   C57   A    
C33   C39   A    
C20   O19   A    
Cr5   O25   S    
C50   C59   A    
Cr4   O21   S    
O28   H47   S    
C97   H84   S    
Cr1   O10   S    
C63   O21   A    
C7    H43   S    
C37   C40   A    
C61   O24   A    
C5    C83   S    
C10   C73   T    
C94   H77   S    
Cr4   O24   S    
C15   C78   S    
C69   H33   S    
C11   C74   T    
Cr2   O11   S    
C70   H40   S    
C97   C98   S    
C64   H28   S    
C100  H90   S    
C12   C84   S    
C42   O35   S    
C35   O10   A    
C23   C26   A    
C93   H68   S    
C96   H80   S    
C47   O31   S    
C1    O7    A    
Cr2   O2    S    
C26   H14   S    
C34   O13   A    
C53   H20   S    
C87   H53   S    
C28   H16   S    
C19   O5    A    
Cr3   O15   S    
C20   C73   S    
C102  H95   S    
O41   C100  S    
C24   C27   A    
C48   C60   A    
C3    O2    A    
C32   C38   A    
Cr3   O9    S    
C87   H55   S    
C45   O29   S    
C48   O32   S    
C44   C47   A    
C80   H8    S    
C49   C52   A    
C98   C99   S    
C92   H65   S    
Cr1   O16   S    
C65   C80   S    
C66   H30   S    
C46   C58   A    
C27   C30   A    
C2    O8    A    
Cr4   O17   S    
C14   C17   T    
C69   C78   S    
C80   C83   S    
C67   H31   S    
C98   H86   S    
C98   H85   S    
C21   O20   A    
C86   H52   S    
Cr2   O8    S    
C72   H42   S    
C39   C42   A    
C71   C83   S    
Cr5   O17   S    
C65   H29   S    
C66   C78   S    
O37   H74   S    
C5    H11   S    
C59   C63   S    
C24   C35   S    
C6    C84   S    
Cr6   O20   S    
Cr6   O26   S    
C8    H44   S    
C91   H63   S    
C50   C53   A    
C65   C77   S    
C51   H24   S    
C38   C41   A    
Cr6   O17   S    
Cr2   O14   S    
C68   H32   S    
C14   C77   S    
C94   H76   S    
C25   H13   S    
C81   H9    S    
O40   C97   S    
C4    C7    S    
C95   H78   S    
O35   H72   S    
C47   C59   A    
C21   C74   S    
C101  H93   S    
C2    O1    A    
C49   C58   A    
O36   H73   S    
C60   C61   S    
C25   C28   A    
C80   H2    S    
C69   C72   S    
C89   H58   S    
C91   H64   S    
Cr4   O4    S    
C61   O22   A    
C5    C8    S    
C88   C89   S    
C38   H26   S    
C34   O12   A    
C44   C56   A    
O38   H75   S    
C13   C76   S    
Cr5   O5    S    
C22   C40   A    
C62   O23   A    
C97   H83   S    
C64   C76   S    
C99   H88   S    
C40   O33   S    
C81   H3    S    
C72   C84   S    
C46   O30   S    
C49   H22   S    
C37   H25   S    
C9    H45   S    
C7    O36   S    
O30   C85   S    
C22   C25   A    
C69   H36   S    
C93   H69   S    
C4    H10   S    
O29   H48   S    
C19   O18   A    
C85   C86   S    
C62   O25   A    
C71   H38   S    
C89   C90   S    
C41   O34   S    
C21   O4    A    
Cr3   O3    S    
C90   H61   S    
C8    O37   S    
C81   C84   S    
C86   H51   S    
C86   C87   S    
C66   H6    S    
O27   H46   S    
C85   H50   S    
C45   C48   A    
C36   O11   A    
C68   C77   S    
C63   O26   A    
C23   C34   S    
C33   C57   S    
C4    O39   S    
C88   H57   S    
C30   C33   A    
C30   H18   S    
C79   H1    S    
C20   O6    A    
C79   H7    S    
C28   C31   A    
C3    O9    A    
C94   C95   S    
Cr1   O7    S    
C79   C82   S    
C29   C32   A    
C52   C55   A    
Cr5   O22   S    
C7    C76   S    
C43   C55   A    
C95   H79   S    
C22   C36   S    
C1    C17   S    
C23   C41   A    
C100  C101  S    
C51   C54   A    
C11   C83   S    
Cr4   O18   S    
C50   H23   S    
C90   H62   S    
C89   H59   S    
C13   C16   T    
C91   C92   S    
C64   H4    S    
C102  H96   S    
C39   H27   S    
Cr2   O16   S    
C66   C81   S    
C36   O15   A    
Cr5   O19   S    
C8    C77   S    
C52   H19   S    
C9    O38   S    
C68   C71   S    
C102  H94   S    
C19   C75   S    
C64   C79   S    
C10   C82   S    
C54   H21   S    
C101  C102  S    
C9    C78   S    
C6    H12   S    
C93   H67   S    
C70   C82   S    
C43   C46   A    
C53   C56   A    
Cr6   O6    S    
C99   H89   S    
C1    O3    A    
Cr1   O1    S    
C71   H41   S    
O31   C88   S    
C92   C93   S    
C43   O27   S    
C31   C37   A    
C65   H5    S    
C5    O40   S    
C4    C82   S    
O33   H70   S    
C26   C29   A    
Cr3   O12   S    
C12   C75   T    
C99   H87   S    
C27   H15   S    
C29   H17   S    
Cr3   O16   S    
C51   C60   A    
C44   O28   S    
C67   C70   S    
C31   C55   S    
C90   H60   S    
C68   H35   S    
C32   C56   S    
C96   H82   S    
C3    C16   S    
C67   C76   S    
C54   C57   A    
