data_mof_unit_10555.cif
_audit_creation_date              2012-10-26T19:09:56-0400
_audit_creation_method            fapswitch 2.2
_symmetry_space_group_name_H-M    P1
_symmetry_Int_Tables_number       1
_space_group_crystal_system       triclinic
_cell_length_a                    15.139379
_cell_length_b                    15.220775
_cell_length_c                    9.411447
_cell_angle_alpha                 89.871001
_cell_angle_beta                  89.988999
_cell_angle_gamma                 90.002841
_cell_volume                      2168.70319329

loop_
_atom_site_label
_atom_site_type_symbol
_atom_type_description
_atom_site_fract_x
_atom_site_fract_y
_atom_site_fract_z
_atom_type_partial_charge
C1    C     C_R   0.121300 0.381008 0.500220 0.634839
C2    C     C_R   0.880733 0.620826 0.500106 0.542914
C3    C     C_R   0.380816 0.879100 0.499917 0.542226
C4    C     C_R   0.380735 0.120828 0.500107 0.542911
C5    C     C_3   0.840375 0.233131 0.599823 -0.210275
C6    C     C_3   0.801412 0.271290 0.347344 -0.199397
C7    C     C_3   0.800777 0.728151 0.652932 -0.199152
C8    C     C_3   0.840506 0.766984 0.400945 -0.210639
C9    C     C_3   0.340415 0.733094 0.599677 -0.210285
C10   C     C_3   0.301303 0.771395 0.347309 -0.199285
C11   C     C_3   0.300811 0.228189 0.652919 -0.199030
C12   C     C_R   0.121374 0.618920 0.499780 0.636008
C13   C     C_3   0.340484 0.266963 0.400887 -0.210683
C14   C     C_3   0.266690 0.662767 0.606155 0.148172
C15   C     C_3   0.230926 0.698618 0.346551 0.145747
C16   C     C_3   0.230384 0.300925 0.653709 0.146995
C17   C     C_3   0.266836 0.337359 0.394506 0.147198
C18   C     C_3   0.766647 0.162807 0.606293 0.148199
C19   C     C_3   0.731034 0.198510 0.346588 0.145654
C20   C     C_3   0.730386 0.800923 0.653714 0.146846
C21   C     C_3   0.766847 0.837370 0.394527 0.147231
C22   C     C_3   0.723294 0.347467 0.549447 -0.270386
C23   C     C_R   0.621303 0.881011 0.500221 0.634859
C24   C     C_3   0.723293 0.652528 0.449711 -0.270219
C25   C     C_3   0.223306 0.847456 0.549643 -0.270388
C26   C     C_3   0.223284 0.152516 0.449778 -0.270206
C27   C     C_3   0.812863 0.309253 0.499324 0.004554
C28   C     C_3   0.812711 0.690611 0.500747 0.004480
C29   C     C_3   0.312847 0.809270 0.499327 0.004527
C30   C     C_3   0.312712 0.190613 0.500749 0.004434
C31   C     C_3   0.191691 0.686716 0.499037 0.135140
C32   C     C_3   0.191567 0.313171 0.501020 0.134504
C33   C     C_3   0.691708 0.186699 0.499033 0.135169
C34   C     C_R   0.621383 0.118911 0.499779 0.636026
C35   C     C_3   0.691572 0.813175 0.501023 0.134529
C36   C     C_3   0.151210 0.775789 0.545670 -0.335755
C37   C     C_3   0.151193 0.224197 0.453640 -0.335683
C38   C     C_3   0.651202 0.275798 0.545470 -0.335764
C39   C     C_3   0.651198 0.724205 0.453623 -0.335669
C40   C     C_3   0.931627 0.558173 0.083477 -0.103677
C41   C     C_3   0.931629 0.558175 0.916211 -0.103152
C42   C     C_3   0.985564 0.410740 0.084065 -0.106395
C43   C     C_3   0.985565 0.410744 0.916513 -0.106458
C44   C     C_3   0.432744 0.059471 0.083474 -0.103725
C45   C     C_3   0.086957 0.530674 0.083652 -0.105027
C46   C     C_3   0.432737 0.059464 0.916206 -0.103186
C47   C     C_3   0.483898 0.911050 0.084057 -0.106348
C48   C     C_3   0.483907 0.911051 0.916515 -0.106449
C49   C     C_3   0.086972 0.530672 0.916101 -0.109506
C50   C     C_3   0.587525 0.029078 0.083666 -0.104929
C51   C     C_3   0.587537 0.029079 0.916101 -0.109366
C52   C     C_R   0.880827 0.379090 0.499916 0.542182
Cu1   Cu    Cu3+1 0.000100 0.500000 0.642410 0.892708
Cu2   Cu    Cu3+1 0.000100 0.500000 0.357590 0.891700
Cu3   Cu    Cu3+1 0.500100 1.000000 0.642410 0.892703
Cu4   Cu    Cu3+1 0.500100 1.000000 0.357590 0.891692
H1    H     H_    0.903412 0.203696 0.561756 0.135662
H2    H     H_    0.176683 0.719153 0.273146 0.072429
H3    H     H_    0.175922 0.280257 0.726672 0.074359
H4    H     H_    0.238642 0.338165 0.284816 0.078814
H5    H     H_    0.738151 0.162413 0.715786 0.075366
H6    H     H_    0.676838 0.218993 0.273056 0.072590
H7    H     H_    0.675919 0.780295 0.726698 0.074596
H8    H     H_    0.738667 0.838164 0.284830 0.078709
H9    H     H_    0.729539 0.373268 0.659574 0.125709
H10   H     H_    0.703521 0.403355 0.479882 0.119092
H11   H     H_    0.703301 0.596471 0.518771 0.118919
H12   H     H_    0.865755 0.245262 0.308306 0.139637
H13   H     H_    0.729875 0.627000 0.339460 0.124171
H14   H     H_    0.229615 0.873194 0.659799 0.125680
H15   H     H_    0.203493 0.903383 0.480189 0.119111
H16   H     H_    0.203299 0.096487 0.518902 0.118933
H17   H     H_    0.229850 0.126944 0.339551 0.124177
H18   H     H_    0.120492 0.769607 0.652722 0.111095
H19   H     H_    0.098032 0.795724 0.470521 0.101482
H20   H     H_    0.097794 0.204124 0.528324 0.100704
H21   H     H_    0.120778 0.230600 0.346414 0.109969
H22   H     H_    0.620420 0.269678 0.652485 0.111133
H23   H     H_    0.864990 0.754105 0.692600 0.140739
H24   H     H_    0.598068 0.295692 0.470210 0.101468
H25   H     H_    0.597811 0.704119 0.528321 0.100694
H26   H     H_    0.620769 0.730618 0.346410 0.110055
H27   H     H_    0.941706 0.626615 0.121422 0.105783
H28   H     H_    0.941702 0.626631 0.877808 0.106363
H29   H     H_    0.036754 0.364364 0.123658 0.104737
H30   H     H_    0.036776 0.364396 0.877221 0.104736
H31   H     H_    0.444077 0.127704 0.121517 0.105517
H32   H     H_    0.444040 0.127708 0.877675 0.106231
H33   H     H_    0.534177 0.863719 0.123744 0.104611
H34   H     H_    0.903471 0.796279 0.439567 0.136111
H35   H     H_    0.534224 0.863757 0.877155 0.104376
H36   H     H_    0.865637 0.536972 0.122782 0.109289
H37   H     H_    0.865634 0.536967 0.877149 0.108479
H38   H     H_    0.920994 0.384924 0.121556 0.109302
H39   H     H_    0.920998 0.384941 0.879130 0.110038
H40   H     H_    0.366353 0.039474 0.122686 0.109427
H41   H     H_    0.366343 0.039431 0.877259 0.108536
H42   H     H_    0.418818 0.886470 0.121433 0.109406
H43   H     H_    0.418841 0.886467 0.879212 0.110250
H44   H     H_    0.852598 0.258271 0.709021 0.074427
H45   H     H_    0.403430 0.703680 0.561474 0.135692
H46   H     H_    0.780660 0.324202 0.272525 0.078093
H47   H     H_    0.779844 0.675029 0.727244 0.075599
H48   H     H_    0.852964 0.742107 0.291646 0.074997
H49   H     H_    0.352703 0.758176 0.708893 0.074399
H50   H     H_    0.280499 0.824351 0.272612 0.077891
H51   H     H_    0.279926 0.175080 0.727289 0.075581
H52   H     H_    0.352899 0.242063 0.291587 0.075039
H53   H     H_    0.336145 0.561253 0.661497 0.325781
H54   H     H_    0.274514 0.625232 0.193168 0.283926
H55   H     H_    0.273349 0.374018 0.807868 0.285022
H56   H     H_    0.365620 0.745391 0.308120 0.139746
H57   H     H_    0.336592 0.438934 0.340377 0.326263
H58   H     H_    0.836082 0.061326 0.661873 0.325675
H59   H     H_    0.774826 0.125072 0.193421 0.283921
H60   H     H_    0.773547 0.873946 0.807812 0.284860
H61   H     H_    0.836633 0.938930 0.340429 0.326230
H62   H     H_    0.101032 0.598577 0.120236 0.116905
H63   H     H_    0.101204 0.598563 0.878935 0.107255
H64   H     H_    0.141687 0.488650 0.123843 0.131881
H65   H     H_    0.141659 0.488600 0.876283 0.138159
H66   H     H_    0.602894 0.096696 0.120266 0.117750
H67   H     H_    0.365024 0.254185 0.692513 0.140781
H68   H     H_    0.603067 0.096682 0.878921 0.107579
H69   H     H_    0.641465 0.986048 0.123835 0.131141
H70   H     H_    0.641427 0.985998 0.876319 0.138336
H71   H     H_    0.403469 0.296254 0.439434 0.136075
H72   H     H_    0.238253 0.662309 0.715689 0.075397
N1    N     N_3   0.001260 0.500000 0.143650 -0.225018
N2    N     N_3   0.001260 0.500000 0.856350 -0.223369
N3    N     N_3   0.501260 0.000000 0.143650 -0.225059
N4    N     N_3   0.501260 1.000000 0.856350 -0.223487
O1    O     O_R   0.091250 0.408820 0.620260 -0.486146
O2    O     O_R   0.908940 0.408800 0.379740 -0.522553
O3    O     O_R   0.908940 0.591200 0.620260 -0.523611
O4    O     O_R   0.908940 0.591200 0.379740 -0.521916
O5    O     O_R   0.408940 0.908800 0.620260 -0.520985
O6    O     O_R   0.408940 0.908800 0.379740 -0.522602
O7    O     O_R   0.408940 0.091200 0.620260 -0.523614
O8    O     O_R   0.408940 0.091200 0.379740 -0.521903
O9    O     O_3   0.301476 0.579255 0.576754 -0.577017
O10   O     O_3   0.267769 0.619379 0.297712 -0.642162
O11   O     O_3   0.267080 0.380055 0.703278 -0.641205
O12   O     O_R   0.091250 0.408820 0.379740 -0.516609
O13   O     O_3   0.301624 0.420757 0.424732 -0.576902
O14   O     O_3   0.801445 0.079276 0.577063 -0.576948
O15   O     O_3   0.767906 0.119239 0.297937 -0.642078
O16   O     O_3   0.767127 0.880037 0.703254 -0.641235
O17   O     O_3   0.801618 0.920777 0.424745 -0.576778
O18   O     O_R   0.091250 0.591180 0.620260 -0.517236
O19   O     O_R   0.091250 0.591180 0.379740 -0.488325
O20   O     O_R   0.591250 0.908820 0.620260 -0.486192
O21   O     O_R   0.591250 0.908820 0.379740 -0.516583
O22   O     O_R   0.591250 0.091180 0.620260 -0.517131
O23   O     O_R   0.591250 0.091180 0.379740 -0.488401
O24   O     O_R   0.908940 0.408800 0.620260 -0.520931

loop_
_geom_bond_atom_site_label_1
_geom_bond_atom_site_label_2
_ccdc_geom_bond_type
C45   H62   S    
Cu3   O22   S    
Cu2   O12   S    
C40   N1    S    
C45   N1    S    
C52   O2    A    
C17   O13   S    
C50   H66   S    
C14   C31   S    
Cu3   Cu4   S    
C24   C39   S    
Cu3   O7    S    
Cu3   O20   S    
Cu1   Cu2   S    
C44   N3    S    
C6    C19   S    
C47   H42   S    
C7    H23   S    
C3    O6    A    
C10   C15   S    
C13   H52   S    
C46   N4    S    
C41   N2    S    
Cu4   O8    S    
C19   H6    S    
C9    H49   S    
Cu2   O2    S    
H59   O15   S    
C26   H17   S    
C14   H72   S    
C23   O20   A    
C12   O19   A    
H57   O13   S    
C3    C29   S    
C22   H10   S    
C21   H8    S    
C24   H11   S    
C5    C27   S    
C20   C35   S    
C41   H37   S    
C47   C48   S    
C11   C30   S    
C48   H35   S    
Cu1   O3    S    
C43   H39   S    
C20   O16   S    
C10   H56   S    
C3    O5    A    
C21   O17   S    
C44   H31   S    
C9    C29   S    
C25   H14   S    
C6    H12   S    
C14   O9    S    
C49   H65   S    
C7    H47   S    
C51   H68   S    
C47   H33   S    
C40   H27   S    
Cu4   O23   S    
C1    O1    A    
Cu4   O6    S    
C44   C46   S    
C24   H13   S    
C8    C21   S    
C46   H32   S    
C34   O22   A    
C25   C29   S    
C33   C34   S    
C12   O18   A    
C13   C30   S    
C16   O11   S    
Cu1   O1    S    
H58   O14   S    
C19   C33   S    
C42   H29   S    
C5    C18   S    
C38   H22   S    
C34   O23   A    
C41   H28   S    
C37   H21   S    
C1    C32   S    
C19   O15   S    
C7    C28   S    
C2    O3    A    
C47   N3    S    
C16   H3    S    
C35   C39   S    
C9    C14   S    
C22   H9    S    
C44   H40   S    
C36   H19   S    
C4    O8    A    
C15   O10   S    
H54   O10   S    
C11   C16   S    
C6    C27   S    
C5    H44   S    
C45   C49   S    
Cu2   O4    S    
C50   C51   S    
C26   C37   S    
C50   H69   S    
C32   C37   S    
C40   H36   S    
C8    H48   S    
C39   H25   S    
C36   H18   S    
C25   H15   S    
C45   H64   S    
C40   C41   S    
C46   H41   S    
C7    C20   S    
C23   C35   S    
C22   C27   S    
C23   O21   A    
C12   C31   S    
C11   H51   S    
Cu1   O18   S    
C8    C28   S    
C15   H2    S    
C10   H50   S    
C16   C32   S    
C42   C43   S    
C27   C52   S    
H60   O16   S    
C26   H16   S    
C48   H43   S    
H53   O9    S    
C42   H38   S    
C43   H30   S    
Cu2   N1    S    
C43   N2    S    
C11   H67   S    
C24   C28   S    
C39   H26   S    
Cu4   O21   S    
C18   O14   S    
C2    C28   S    
C51   N4    S    
C18   H5    S    
C15   C31   S    
Cu2   O19   S    
C21   C35   S    
H55   O11   S    
C52   O24   A    
C49   N2    S    
C33   C38   S    
Cu3   O5    S    
C5    H1    S    
C20   H7    S    
C1    O12   A    
C4    O7    A    
C10   C29   S    
C49   H63   S    
C38   H24   S    
C37   H20   S    
C17   H4    S    
C42   N1    S    
C6    H46   S    
C18   C33   S    
C2    O4    A    
Cu4   N3    S    
C50   N3    S    
C25   C36   S    
C13   C17   S    
C13   H71   S    
C8    H34   S    
Cu1   O24   S    
C9    H45   S    
Cu3   N4    S    
C17   C32   S    
C31   C36   S    
C48   N4    S    
H61   O17   S    
Cu1   N2    S    
C51   H70   S    
C4    C30   S    
C26   C30   S    
C22   C38   S    
