data_mof_unit_52758.cif
_audit_creation_date              2012-12-10T18:47:07-0500
_audit_creation_method            fapswitch 2.2
_symmetry_space_group_name_H-M    P1
_symmetry_Int_Tables_number       1
_space_group_crystal_system       triclinic
_cell_length_a                    10.694695
_cell_length_b                    9.920567
_cell_length_c                    15.003416
_cell_angle_alpha                 89.299991
_cell_angle_beta                  91.236713
_cell_angle_gamma                 89.796053
_cell_volume                      1591.32279109

loop_
_atom_site_label
_atom_site_type_symbol
_atom_type_description
_atom_site_fract_x
_atom_site_fract_y
_atom_site_fract_z
_atom_type_partial_charge
C1    C     C_R   0.260169 0.500161 0.499740 0.864553
C2    C     C_R   0.127612 0.500310 0.499685 -0.010166
C3    C     C_R   0.584396 0.068597 0.551931 0.058882
C4    C     C_R   0.415613 0.931406 0.448061 0.058893
C5    C     C_R   0.417501 0.074813 0.447199 0.170422
C6    C     C_R   0.582496 0.925189 0.552805 0.170401
C7    C     C_R   0.500288 0.500591 0.326871 0.885196
C8    C     C_R   0.499709 0.499410 0.673129 0.885209
C9    C     C_R   0.540535 0.385106 0.816016 -0.248824
C10   C     C_R   0.459348 0.614855 0.183986 -0.248789
C11   C     C_R   0.498721 0.498728 0.768912 -0.082736
C12   C     C_R   0.739831 0.499839 0.500256 0.864547
C13   C     C_R   0.501268 0.501275 0.231089 -0.082700
C14   C     C_R   0.456877 0.612605 0.812769 -0.224388
C15   C     C_R   0.543215 0.387444 0.187234 -0.224410
C16   C     C_R   0.456301 0.614624 0.905222 0.086157
C17   C     C_R   0.543733 0.385402 0.094783 0.086151
C18   C     C_R   0.499661 0.499565 0.953552 -0.010134
C19   C     C_R   0.500308 0.500431 0.046453 -0.010134
C20   C     C_R   0.542436 0.383741 0.908670 0.070810
C21   C     C_R   0.457494 0.616241 0.091333 0.070806
C22   C     C_R   0.413102 0.729314 0.949642 0.084188
C23   C     C_R   0.413437 0.730415 0.042797 0.040839
C24   C     C_R   0.586956 0.270724 0.050362 0.084192
C25   C     C_R   0.586529 0.269586 0.957205 0.040859
C26   C     C_R   0.063418 0.386326 0.470186 -0.182238
C27   C     C_R   0.936581 0.613684 0.529792 -0.182235
C28   C     C_R   0.935304 0.385949 0.470461 -0.208326
C29   C     C_R   0.064695 0.614062 0.529516 -0.208330
C30   C     C_R   0.872387 0.499697 0.500299 -0.010157
H1    H     H_    0.573025 0.298951 0.779634 0.146202
H2    H     H_    0.421482 0.928339 0.918798 0.203841
H3    H     H_    0.578784 0.071688 0.081244 0.203860
H4    H     H_    0.724761 0.137415 0.083301 0.205054
H5    H     H_    0.291899 0.821545 0.125253 0.187755
H6    H     H_    0.439227 0.886650 0.127483 0.182636
H7    H     H_    0.560715 0.113313 0.872549 0.182608
H8    H     H_    0.708026 0.178457 0.874714 0.187765
H9    H     H_    0.641852 0.205929 0.643609 0.225072
H10   H     H_    0.745466 0.174316 0.560831 0.211951
H11   H     H_    0.254597 0.825590 0.439087 0.212021
H12   H     H_    0.426756 0.700972 0.220363 0.146119
H13   H     H_    0.358250 0.794168 0.356298 0.224985
H14   H     H_    0.349613 0.123589 0.324523 0.180108
H15   H     H_    0.241739 0.120136 0.405202 0.165826
H16   H     H_    0.758255 0.879851 0.594802 0.165832
H17   H     H_    0.650385 0.876431 0.675483 0.180095
H18   H     H_    0.423802 0.699203 0.774226 0.184006
H19   H     H_    0.576404 0.300892 0.225771 0.183982
H20   H     H_    0.111796 0.298556 0.446201 0.152535
H21   H     H_    0.888204 0.701456 0.553777 0.152534
H22   H     H_    0.885821 0.297952 0.446485 0.149239
H23   H     H_    0.114177 0.702063 0.553488 0.149254
H24   H     H_    0.275445 0.862789 0.916676 0.205078
N1    N     N_R   0.500000 0.857200 0.500000 -0.112574
N2    N     N_3   0.667270 0.850252 0.609521 -0.392790
N3    N     N_R   0.500000 0.142800 0.500000 -0.112586
N4    N     N_3   0.368327 0.844873 0.899785 -0.476352
N5    N     N_3   0.631872 0.155225 0.100218 -0.476348
N6    N     N_3   0.367994 0.848495 0.086336 -0.478226
N7    N     N_3   0.631964 0.151507 0.913664 -0.478240
N8    N     N_3   0.680354 0.132582 0.603720 -0.489973
N9    N     N_3   0.319697 0.867425 0.396232 -0.489992
N10   N     N_3   0.332721 0.149751 0.390489 -0.392784
O1    O     O_R   0.316770 0.614620 0.499990 -0.644895
O2    O     O_R   0.683230 0.385380 0.500010 -0.644898
O3    O     O_R   0.683230 0.614620 0.500010 -0.600025
O4    O     O_R   0.316770 0.385380 0.499990 -0.600018
O5    O     O_R   0.499980 0.614680 0.367850 -0.636952
O6    O     O_R   0.500020 0.385320 0.632150 -0.636979
O7    O     O_R   0.500020 0.614680 0.632150 -0.606564
O8    O     O_R   0.499980 0.385320 0.367850 -0.606558
Zn1   Zn    Zn3+2 0.500000 0.653120 0.500000 0.949935
Zn2   Zn    Zn3+2 0.500000 0.346880 0.500000 0.949927

loop_
_geom_bond_atom_site_label_1
_geom_bond_atom_site_label_2
_ccdc_geom_bond_type
N3    Zn2   S    
C22   N4    S    
H7    N7    S    
C12   O2    A    
C7    O5    A    
C19   C21   A    
O3    Zn1   S    
C1    O1    A    
H2    N4    S    
C27   C29   A    
H11   N9    S    
C9    C11   A    
C9    C20   A    
C8    O6    A    
C7    O8    A    
C5    N3    A    
C6    N1    A    
H8    N7    S    
C3    C6    A    
C26   H20   S    
H3    N5    S    
H13   N9    S    
C2    C26   A    
C16   C18   A    
C25   N7    S    
C12   O3    A    
H14   N10   S    
C15   H19   S    
O5    Zn1   S    
C28   H22   S    
C4    N9    S    
C23   N6    S    
C29   H23   S    
C2    C29   A    
C6    N2    S    
C3    N3    A    
C28   C30   A    
C17   C19   A    
H17   N2    S    
C27   H21   S    
C1    C2    S    
C9    H1    S    
C18   C20   A    
C13   C15   A    
C10   C21   A    
H4    N5    S    
C11   C14   A    
C14   C16   A    
C3    N8    S    
C17   C24   A    
C10   H12   S    
C20   C25   A    
C8    C11   S    
O4    Zn2   S    
N1    Zn1   S    
C7    C13   S    
C1    O4    A    
H10   N8    S    
C24   C25   A    
O8    Zn2   S    
C18   C19   A    
H24   N4    S    
O1    Zn1   S    
H16   N2    S    
C4    N1    A    
O7    Zn1   S    
H9    N8    S    
C27   C30   A    
O6    Zn2   S    
C4    C5    A    
C8    O7    A    
C14   H18   S    
H15   N10   S    
C12   C30   S    
C15   C17   A    
C26   C28   A    
C21   C23   A    
C22   C23   A    
C24   N5    S    
C5    N10   S    
C16   C22   A    
H5    N6    S    
H6    N6    S    
C10   C13   A    
O2    Zn2   S    
