data_mof_unit_67967.cif
_audit_creation_date              2012-12-10T20:49:08-0500
_audit_creation_method            fapswitch 2.2
_symmetry_space_group_name_H-M    P1
_symmetry_Int_Tables_number       1
_space_group_crystal_system       triclinic
_cell_length_a                    9.032492
_cell_length_b                    8.183567
_cell_length_c                    10.671756
_cell_angle_alpha                 86.000596
_cell_angle_beta                  88.853631
_cell_angle_gamma                 89.291971
_cell_volume                      786.708885256

loop_
_atom_site_label
_atom_site_type_symbol
_atom_type_description
_atom_site_fract_x
_atom_site_fract_y
_atom_site_fract_z
_atom_type_partial_charge
C1    C     C_R   0.218097 0.500687 0.501403 0.981480
C2    C     C_3   0.630994 0.510544 0.050029 -0.173453
C3    C     C_3   0.513189 0.493487 0.875992 -0.297802
C4    C     C_3   0.482680 0.507954 0.122664 -0.286102
C5    C     C_1   0.065007 0.501008 0.500464 -0.160661
C6    C     C_1   0.934974 0.498642 0.499909 -0.151517
C7    C     C_2   0.213682 0.465253 0.889528 0.370787
C8    C     C_2   0.784871 0.507382 0.101139 0.390114
C9    C     C_3   0.254754 0.844544 0.947293 0.081048
C10   C     C_3   0.346601 0.963940 0.861756 -0.312742
C11   C     C_3   0.252635 0.052477 0.761086 -0.880653
C12   C     C_R   0.781876 0.499222 0.500199 0.997561
C13   C     C_3   0.689688 0.131727 0.058519 0.189357
C14   C     C_3   0.847638 0.064027 0.063031 -0.437883
C15   C     C_3   0.857964 0.919230 0.160500 -0.855008
C16   C     C_3   0.720784 0.820395 0.823341 0.075449
C17   C     C_3   0.863176 0.718786 0.820284 -0.420548
C18   C     C_3   0.961499 0.785127 0.711405 -0.936785
C19   C     C_3   0.228272 0.205531 0.137029 0.064743
C20   C     C_3   0.208769 0.226525 0.276202 -0.283165
C21   C     C_3   0.066097 0.154454 0.333615 -0.933968
C22   C     C_R   0.484185 0.504302 0.257837 0.987678
C23   C     C_R   0.516342 0.496006 0.741718 0.994457
C24   C     C_3   0.415128 0.631624 0.022774 0.409858
C25   C     C_3   0.577954 0.369649 0.975149 0.359971
C26   C     C_3   0.566294 0.636534 0.951996 0.375928
C27   C     C_3   0.429101 0.364530 0.048518 0.351442
C28   C     C_3   0.362078 0.486851 0.948058 -0.246498
H1    H     H_    0.113241 0.491407 0.941630 0.037956
H2    H     H_    0.609599 0.030370 0.058426 0.246531
H3    H     H_    0.669953 0.192785 0.147724 0.164061
H4    H     H_    0.885709 0.024967 0.970679 0.237160
H5    H     H_    0.922595 0.162508 0.086829 0.202838
H6    H     H_    0.827637 0.957713 0.255428 0.267090
H7    H     H_    0.971623 0.866226 0.160667 0.254279
H8    H     H_    0.779528 0.823745 0.137915 0.319957
H9    H     H_    0.750496 0.951487 0.818908 0.193853
H10   H     H_    0.659245 0.817173 0.736886 0.177006
H11   H     H_    0.923044 0.728812 0.909154 0.219299
H12   H     H_    0.878674 0.491121 0.038683 0.052574
H13   H     H_    0.837660 0.588358 0.808570 0.216721
H14   H     H_    0.904808 0.780009 0.620984 0.284491
H15   H     H_    0.066490 0.714035 0.708225 0.291779
H16   H     H_    0.984898 0.915416 0.722958 0.257512
H17   H     H_    0.187998 0.082987 0.119879 0.196778
H18   H     H_    0.157095 0.294385 0.084482 0.094758
H19   H     H_    0.301600 0.163458 0.326589 0.278990
H20   H     H_    0.208244 0.359955 0.286718 0.192621
H21   H     H_    0.968002 0.216285 0.290163 0.287572
H22   H     H_    0.061282 0.171703 0.435772 0.281729
H23   H     H_    0.156316 0.908975 0.983243 0.138069
H24   H     H_    0.065086 0.020706 0.323442 0.269450
H25   H     H_    0.207044 0.755682 0.888564 0.131935
H26   H     H_    0.401330 0.054107 0.916834 0.290265
H27   H     H_    0.431257 0.895331 0.811258 0.244753
H28   H     H_    0.224247 0.966902 0.689428 0.252209
H29   H     H_    0.317261 0.151268 0.711698 0.328084
H30   H     H_    0.151136 0.106177 0.802826 0.271990
N1    N     N_1   0.500000 0.073640 0.500000 -0.072248
N2    N     N_1   0.500000 0.926360 0.500000 -0.057158
O1    O     O_R   0.285350 0.636850 0.500000 -0.622569
O2    O     O_2   0.805557 0.516554 0.212890 -0.607097
O3    O     O_3   0.334655 0.774662 0.052051 -0.615143
O4    O     O_3   0.670150 0.235550 0.948106 -0.663796
O5    O     O_3   0.635165 0.791411 0.934394 -0.659017
O6    O     O_3   0.379824 0.210093 0.101332 -0.647969
O7    O     O_R   0.714650 0.363150 0.500000 -0.615598
O8    O     O_R   0.714650 0.636850 0.500000 -0.636918
O9    O     O_R   0.285350 0.363150 0.500000 -0.641589
O10   O     O_R   0.499970 0.636850 0.313950 -0.574790
O11   O     O_R   0.500030 0.363150 0.686050 -0.591079
O12   O     O_R   0.500030 0.636850 0.686050 -0.666227
O13   O     O_R   0.499970 0.363150 0.313950 -0.627585
O14   O     O_2   0.204180 0.425367 0.782290 -0.595873
Zn1   Zn    Zn3+2 0.500000 0.682780 0.500000 0.983176
Zn2   Zn    Zn3+2 0.500000 0.317220 0.500000 0.976085

loop_
_geom_bond_atom_site_label_1
_geom_bond_atom_site_label_2
_ccdc_geom_bond_type
C7    H1    S    
C3    C23   S    
C19   C20   S    
C9    H23   S    
C14   H5    S    
C21   H21   S    
C19   H18   S    
O1    Zn1   S    
O8    Zn1   S    
C12   O8    A    
C19   O6    S    
C1    C5    S    
C3    C28   S    
C24   C26   S    
C18   H14   S    
C6    C12   S    
C5    C6    T    
C4    C24   S    
O9    Zn2   S    
C17   H11   S    
C16   C17   S    
C11   H30   S    
C9    C10   S    
C15   H6    S    
C16   H9    S    
N1    N2    T    
C13   C14   S    
O12   Zn1   S    
C15   H7    S    
C21   H22   S    
C7    O14   D    
C12   O7    A    
C23   O11   A    
C13   H2    S    
C3    C25   S    
C1    O9    A    
C7    C28   S    
C25   O4    S    
C2    C4    S    
C18   H16   S    
C4    C22   S    
C17   C18   S    
C2    C26   S    
C10   H27   S    
C20   H20   S    
C24   O3    S    
O13   Zn2   S    
C9    H25   S    
C15   H8    S    
C27   C28   S    
C4    C27   S    
C9    O3    S    
C26   O5    S    
C23   O12   A    
C13   H3    S    
C3    C26   S    
C2    C8    S    
C24   C28   S    
C14   H4    S    
C1    O1    A    
C19   H17   S    
O7    Zn2   S    
C25   C27   S    
N2    Zn1   S    
C27   O6    S    
C18   H15   S    
O11   Zn2   S    
C13   O4    S    
C2    C25   S    
C10   H26   S    
C17   H13   S    
C20   H19   S    
C10   C11   S    
C20   C21   S    
C8    O2    D    
O10   Zn1   S    
C14   C15   S    
C16   O5    S    
C8    H12   S    
C22   O13   A    
C11   H29   S    
N1    Zn2   S    
C22   O10   A    
C21   H24   S    
C11   H28   S    
C16   H10   S    
