data_mof_unit_24876.cif
_audit_creation_date              2012-12-10T17:22:52-0500
_audit_creation_method            fapswitch 2.2
_symmetry_space_group_name_H-M    P1
_symmetry_Int_Tables_number       1
_space_group_crystal_system       triclinic
_cell_length_a                    10.231778
_cell_length_b                    10.506455
_cell_length_c                    10.782841
_cell_angle_alpha                 90.059533
_cell_angle_beta                  94.689058
_cell_angle_gamma                 81.174189
_cell_volume                      1141.51562797

loop_
_atom_site_label
_atom_site_type_symbol
_atom_type_description
_atom_site_fract_x
_atom_site_fract_y
_atom_site_fract_z
_atom_type_partial_charge
C1    C     C_R   0.444582 0.512733 0.267624 0.930480
C2    C     C_R   0.555234 0.496195 0.732604 0.930146
C3    C     C_R   0.499623 0.257560 0.499935 0.852878
C4    C     C_R   0.500370 0.742428 0.500133 0.848625
C5    C     C_3   0.536827 0.036596 0.390392 -0.183494
C6    C     C_3   0.463034 0.963326 0.609830 -0.186943
C7    C     C_3   0.414668 0.970174 0.406950 -0.180985
C8    C     C_3   0.585195 0.029760 0.593284 -0.174587
C9    C     C_3   0.501146 0.877495 0.500061 0.033515
C10   C     C_3   0.498746 0.122463 0.500150 0.034785
C11   C     C_3   0.623477 0.941228 0.483500 -0.135210
C12   C     C_3   0.376387 0.058717 0.516731 -0.143710
C13   C     C_2   0.412905 0.532164 0.135751 -0.376509
C14   C     C_2   0.585259 0.510684 0.864648 -0.385178
C15   C     C_2   0.508190 0.555837 0.066175 -0.160954
C16   C     C_2   0.485391 0.552899 0.933547 -0.158947
C17   C     C_2   0.078990 0.472381 0.510227 -0.113493
C18   C     C_2   0.929420 0.491158 0.525859 -0.114563
N1    N     N_2   0.157310 0.552180 0.551120 -0.040194
N2    N     N_2   0.842690 0.447820 0.448880 -0.041963
O1    O     O_R   0.568940 0.489500 0.307530 -0.607221
O2    O     O_R   0.431060 0.510500 0.692470 -0.610643
O3    O     O_R   0.348880 0.522990 0.340350 -0.611686
O4    O     O_R   0.651120 0.477010 0.659650 -0.618985
O5    O     O_R   0.610000 0.297210 0.483560 -0.617605
O6    O     O_R   0.390000 0.702790 0.516440 -0.617337
O7    O     O_R   0.389940 0.330700 0.516390 -0.627711
O8    O     O_R   0.610060 0.669300 0.483610 -0.624387
Zn1   Zn    Zn3+2 0.646930 0.477640 0.478080 0.938687
Zn2   Zn    Zn3+2 0.353070 0.522360 0.521920 0.939937
H1    H     H_    0.345444 0.941080 0.331230 0.132203
H2    H     H_    0.654416 0.058782 0.669042 0.131333
H3    H     H_    0.566781 0.071163 0.301228 0.126761
H4    H     H_    0.433107 0.928591 0.698933 0.132811
H5    H     H_    0.724311 0.889461 0.470063 0.139625
H6    H     H_    0.275539 0.110434 0.530201 0.135651
H7    H     H_    0.383250 0.574823 0.893645 0.184894
H8    H     H_    0.606762 0.566479 0.106328 0.178766
H9    H     H_    0.686864 0.487088 0.905521 0.149018
H10   H     H_    0.313847 0.523572 0.095068 0.148958
H11   H     H_    0.890162 0.548113 0.601991 0.139925
H12   H     H_    0.123772 0.391383 0.458059 0.138641
C19   C     C_3   0.897192 0.355134 0.356761 -0.214074
C20   C     C_3   0.796696 0.317106 0.257318 -0.782874
H13   H     H_    0.717332 0.274333 0.297064 0.281614
H14   H     H_    0.756663 0.400426 0.195722 0.249190
H15   H     H_    0.848352 0.242389 0.197858 0.195338
H16   H     H_    0.969461 0.397138 0.303657 0.158390
H17   H     H_    0.948116 0.265596 0.405613 0.159531
C21   C     C_3   0.099976 0.652937 0.634622 -0.213835
C22   C     C_3   0.185965 0.755128 0.670684 -0.799154
H18   H     H_    0.284354 0.712606 0.714160 0.275616
H19   H     H_    0.193097 0.817351 0.589198 0.261923
H20   H     H_    0.137007 0.818838 0.741100 0.196231
H21   H     H_    0.006658 0.707633 0.588955 0.159040
H22   H     H_    0.077919 0.607191 0.722041 0.157729

loop_
_geom_bond_atom_site_label_1
_geom_bond_atom_site_label_2
_ccdc_geom_bond_type
C2    O2    A    
C4    O6    A    
C19   C20   S    
C15   H8    S    
C1    O1    A    
C12   H6    S    
C19   H16   S    
C21   H21   S    
C20   H15   S    
C16   H7    S    
C22   H20   S    
C6    C9    S    
C11   H5    S    
C21   C22   S    
C4    C9    S    
C5    C10   S    
C3    C10   S    
O7    Zn2   S    
O5    Zn1   S    
C9    C11   S    
N1    C21   S    
C10   C12   S    
C8    C11   S    
C6    C12   S    
C3    O7    A    
O8    Zn1   S    
C17   N1    D    
C20   H14   S    
C1    O3    A    
C18   N2    D    
N2    Zn1   S    
C13   C15   D    
C5    C11   S    
C2    O4    A    
C7    C12   S    
C2    C14   S    
C14   C16   D    
C1    C13   S    
C15   C16   S    
C22   H18   S    
C8    H2    S    
O3    Zn2   S    
C7    C9    S    
C3    O5    A    
N2    C19   S    
C7    H1    S    
C20   H13   S    
C17   C18   S    
C18   H11   S    
C5    C7    S    
C17   H12   S    
C19   H17   S    
C13   H10   S    
C6    C8    S    
O2    Zn2   S    
C4    O8    A    
C14   H9    S    
O4    Zn1   S    
N1    Zn2   S    
O1    Zn1   S    
C8    C10   S    
C21   H22   S    
C6    H4    S    
C22   H19   S    
O6    Zn2   S    
C5    H3    S    
