data_mof_unit_14217.cif
_audit_creation_date              2012-12-10T16:49:28-0500
_audit_creation_method            fapswitch 2.2
_symmetry_space_group_name_H-M    P1
_symmetry_Int_Tables_number       1
_space_group_crystal_system       triclinic
_cell_length_a                    19.348226
_cell_length_b                    8.686608
_cell_length_c                    7.427615
_cell_angle_alpha                 103.118326
_cell_angle_beta                  93.601164
_cell_angle_gamma                 92.294749
_cell_volume                      1211.48937359

loop_
_atom_site_label
_atom_site_type_symbol
_atom_type_description
_atom_site_fract_x
_atom_site_fract_y
_atom_site_fract_z
_atom_type_partial_charge
C1    C     C_R   0.497758 0.199598 0.453152 0.906328
C2    C     C_R   0.502271 0.800405 0.546849 0.900856
C3    C     C_2   0.496768 0.031660 0.426772 -0.308792
C4    C     C_2   0.503323 0.968352 0.573232 -0.307617
C5    C     C_R   0.367735 0.504505 0.504380 0.842116
C6    C     C_R   0.632343 0.495499 0.495529 0.850118
C7    C     C_R   0.259919 0.602813 0.661756 0.357690
C8    C     C_R   0.740676 0.405429 0.333390 0.428250
C9    C     C_R   0.187441 0.596956 0.658534 -0.215466
C10   C     C_R   0.813187 0.411461 0.338000 -0.209681
C11   C     C_R   0.146556 0.502470 0.508141 -0.010242
C12   C     C_R   0.853844 0.498473 0.493560 -0.026773
C13   C     C_R   0.178891 0.411447 0.359794 -0.122767
C14   C     C_R   0.821270 0.581994 0.646049 -0.120008
C15   C     C_R   0.250751 0.414257 0.361910 -0.228649
C16   C     C_R   0.749381 0.578883 0.643111 -0.186973
C17   C     C_R   0.292089 0.508119 0.511918 -0.134823
C18   C     C_R   0.708147 0.492255 0.488023 -0.150969
C19   C     C_R   0.930061 0.500006 0.497331 0.449279
C20   C     C_R   0.070357 0.500924 0.504846 0.442020
Cu1   Cu    Cu3+1 0.507710 0.517380 0.684380 1.055049
Cu2   Cu    Cu3+1 0.492290 0.482620 0.315620 1.040477
H1    H     H_    0.162732 0.668381 0.772935 0.198975
H2    H     H_    0.838146 0.346278 0.220084 0.202608
H3    H     H_    0.148763 0.337451 0.241667 0.176690
H4    H     H_    0.851234 0.650077 0.768256 0.177535
H5    H     H_    0.274185 0.341336 0.245816 0.180045
H6    H     H_    0.725885 0.645989 0.762871 0.188840
H7    H     H_    0.445533 0.379282 0.948862 0.233141
H8    H     H_    0.554436 0.620785 0.051157 0.235182
N1    N     N_R   0.030605 0.416169 0.355545 -0.222994
N2    N     N_R   0.969808 0.584717 0.646711 -0.221698
N3    N     N_R   0.961831 0.415695 0.351904 -0.221184
N4    N     N_R   0.038600 0.585248 0.650321 -0.222615
N5    N     N_2   0.480680 0.456420 0.038530 -0.173520
N6    N     N_2   0.519320 0.543580 0.961470 -0.164735
O1    O     O_R   0.505010 0.286130 0.619770 -0.591586
O2    O     O_R   0.494990 0.713870 0.380230 -0.586624
O3    O     O_R   0.491990 0.256780 0.308370 -0.572340
O4    O     O_R   0.508010 0.743220 0.691630 -0.564993
O5    O     O_R   0.406650 0.514660 0.655750 -0.535730
O6    O     O_R   0.593350 0.485340 0.344250 -0.540465
O7    O     O_R   0.393640 0.485310 0.344340 -0.583273
O8    O     O_R   0.606360 0.514690 0.655660 -0.570566
S1    S     S_3+6 0.307110 0.736350 0.850004 0.017427
O9    O     O_2   0.361733 0.829617 0.778145 -0.272948
O10   O     O_2   0.259854 0.849843 0.958438 -0.288937
O11   O     O_3   0.345545 0.634583 0.992069 -0.494819
H9    H     H_    0.307106 0.573841 0.031185 0.337706
S2    S     S_3+6 0.694103 0.281537 0.136445 0.007472
O12   O     O_2   0.660574 0.382706 0.020191 -0.290320
O13   O     O_2   0.742080 0.174772 0.021394 -0.288286
O14   O     O_3   0.632814 0.169195 0.204916 -0.541793
H10   H     H_    0.606085 0.112517 0.089082 0.368262
H11   H     H_    0.490700 0.959805 0.285681 0.193025
H12   H     H_    0.509415 0.040211 0.714324 0.183092

loop_
_geom_bond_atom_site_label_1
_geom_bond_atom_site_label_2
_ccdc_geom_bond_type
C16   H6    S    
S2    O13   D    
N1    N3    A    
C15   C17   A    
C8    S2    S    
C8    C18   A    
Cu1   O8    S    
C11   C13   A    
H7    N5    S    
C1    O3    A    
C15   H5    S    
Cu2   O7    S    
H8    N6    S    
C20   N4    A    
S1    O10   D    
S2    O12   D    
C5    O7    A    
Cu1   N6    S    
C6    O8    A    
Cu1   Cu2   S    
C14   H4    S    
Cu2   N5    S    
C9    C11   A    
C13   H3    S    
Cu2   O6    S    
Cu1   O4    S    
C10   C12   A    
Cu1   O5    S    
C19   N2    A    
C7    S1    S    
C12   C19   S    
C8    C10   A    
O11   H9    S    
C12   C14   A    
C1    C3    S    
C13   C15   A    
C19   N3    A    
C6    C18   S    
C14   C16   A    
C11   C20   S    
S1    O9    D    
S2    O14   S    
C5    C17   S    
Cu2   O3    S    
C3    C4    D    
Cu2   O2    S    
C2    C4    S    
C2    O4    A    
Cu1   O1    S    
C16   C18   A    
C6    O6    A    
S1    O11   S    
C7    C9    A    
C2    O2    A    
C9    H1    S    
C5    O5    A    
C10   H2    S    
O14   H10   S    
C3    H11   S    
C4    H12   S    
N5    N6    D    
C1    O1    A    
C7    C17   A    
C20   N1    A    
N2    N4    A    
