data_mof_unit_51252.cif
_audit_creation_date              2012-12-10T18:45:04-0500
_audit_creation_method            fapswitch 2.2
_symmetry_space_group_name_H-M    P1
_symmetry_Int_Tables_number       1
_space_group_crystal_system       triclinic
_cell_length_a                    10.687661
_cell_length_b                    9.840761
_cell_length_c                    10.64045
_cell_angle_alpha                 89.979458
_cell_angle_beta                  90.190524
_cell_angle_gamma                 90.503701
_cell_volume                      1119.0568304

loop_
_atom_site_label
_atom_site_type_symbol
_atom_type_description
_atom_site_fract_x
_atom_site_fract_y
_atom_site_fract_z
_atom_type_partial_charge
C1    C     C_R   0.259993 0.499140 0.501975 0.942743
C2    C     C_R   0.739843 0.500319 0.503234 0.887195
C3    C     C_R   0.936560 0.604149 0.447141 -0.267280
C4    C     C_R   0.064493 0.602739 0.445814 -0.267766
C5    C     C_R   0.562092 0.072532 0.591301 -0.062278
C6    C     C_R   0.438236 0.071393 0.408463 -0.081733
C7    C     C_R   0.562017 0.928654 0.591388 -0.073622
C8    C     C_R   0.438585 0.927531 0.408243 -0.072094
C9    C     C_R   0.504370 0.500062 0.260430 0.863842
C10   C     C_R   0.504241 0.500229 0.739625 0.863866
C11   C     C_R   0.706635 0.641913 0.131898 -0.177481
C12   C     C_R   0.704034 0.647146 0.870149 -0.225081
C13   C     C_R   0.799670 0.712611 0.066891 -0.137656
C14   C     C_R   0.798191 0.715504 0.936226 -0.146515
C15   C     C_R   0.608265 0.575481 0.934617 0.092367
C16   C     C_R   0.609122 0.573832 0.066376 0.098359
C17   C     C_R   0.513963 0.499718 0.128290 -0.097316
C18   C     C_R   0.513513 0.500608 0.871868 -0.113024
C19   C     C_R   0.424953 0.422683 0.063864 -0.227347
C20   C     C_R   0.424970 0.422791 0.935602 -0.208941
C21   C     C_R   0.063740 0.391174 0.567595 0.366668
C22   C     C_R   0.934395 0.396941 0.574453 0.360621
C23   C     C_R   0.872074 0.500692 0.509308 -0.182935
C24   C     C_R   0.127466 0.497115 0.505462 -0.184028
H1    H     H_    0.353520 0.364895 0.113230 0.149848
H2    H     H_    0.353686 0.364851 0.885697 0.173140
H3    H     H_    0.713532 0.639196 0.233175 0.148155
H4    H     H_    0.709469 0.648404 0.768795 0.143918
H5    H     H_    0.873836 0.764104 0.118079 0.129567
H6    H     H_    0.871205 0.769270 0.885796 0.135664
H7    H     H_    0.888046 0.684451 0.397710 0.175845
H8    H     H_    0.114279 0.682770 0.396292 0.178353
H9    H     H_    0.611579 0.127546 0.664272 0.144031
H10   H     H_    0.388318 0.125397 0.335606 0.122009
H11   H     H_    0.611690 0.874716 0.664451 0.130481
H12   H     H_    0.388924 0.872635 0.335209 0.127223
N1    N     N_R   0.500000 0.857200 0.500000 -0.076869
N2    N     N_R   0.500000 0.142810 0.500000 -0.082381
O1    O     O_R   0.316770 0.614620 0.499990 -0.626901
O2    O     O_R   0.683230 0.614620 0.500010 -0.644873
O3    O     O_R   0.316800 0.385290 0.500000 -0.599599
O4    O     O_R   0.683200 0.385290 0.500000 -0.573228
O5    O     O_R   0.500010 0.614690 0.316770 -0.628362
O6    O     O_R   0.499990 0.614690 0.683230 -0.624429
O7    O     O_R   0.500040 0.385360 0.316770 -0.623629
O8    O     O_R   0.499960 0.385360 0.683230 -0.620288
Zn1   Zn    Zn3+2 0.500000 0.653120 0.500000 0.929630
Zn2   Zn    Zn3+2 0.500000 0.346880 0.500000 0.963399
O9    O     O_3   0.128326 0.294176 0.635971 -0.633637
C25   C     C_3   0.118471 0.166798 0.574902 0.131009
H13   H     H_    0.164237 0.171123 0.481063 0.127131
H14   H     H_    0.019264 0.134629 0.561886 0.176179
C26   C     C_3   0.183774 0.059725 0.655242 -0.341913
H15   H     H_    0.285659 0.082716 0.659189 0.235859
H16   H     H_    0.146484 0.063088 0.752591 0.219822
C27   C     C_3   0.163256 0.916983 0.602436 -0.940159
H17   H     H_    0.062772 0.887862 0.608314 0.261553
H18   H     H_    0.218704 0.842945 0.657722 0.283776
H19   H     H_    0.193184 0.912312 0.502803 0.258385
O10   O     O_3   0.870027 0.298381 0.641720 -0.646993
C28   C     C_3   0.846971 0.345654 0.764787 0.119244
H20   H     H_    0.753306 0.392897 0.766238 0.142351
H21   H     H_    0.917773 0.421558 0.798902 0.130832
C29   C     C_3   0.847460 0.224893 0.855117 -0.329055
H22   H     H_    0.782080 0.144759 0.820519 0.216536
H23   H     H_    0.943096 0.181544 0.858831 0.224501
C30   C     C_3   0.808329 0.266996 0.987223 -0.945539
H24   H     H_    0.869830 0.350133 0.022881 0.268278
H25   H     H_    0.815728 0.178640 0.051659 0.262912
H26   H     H_    0.709778 0.301644 0.986655 0.277657

loop_
_geom_bond_atom_site_label_1
_geom_bond_atom_site_label_2
_ccdc_geom_bond_type
C10   O8    A    
C28   C29   S    
C25   H14   S    
C27   H19   S    
C9    O7    A    
C13   C14   A    
N1    Zn1   S    
C11   C16   A    
C15   C18   A    
C3    C23   A    
C19   C20   A    
O6    Zn1   S    
C11   H3    S    
C30   H26   S    
C6    H10   S    
C29   H22   S    
C21   O9    S    
C25   H13   S    
C7    N1    A    
O4    Zn2   S    
C21   C22   A    
C3    H7    S    
C1    O3    A    
C11   C13   A    
C4    H8    S    
C20   H2    S    
C2    O4    A    
C4    C24   A    
C9    C17   S    
C17   C19   A    
O3    Zn2   S    
C27   H18   S    
C12   C15   A    
C18   C20   A    
C5    H9    S    
C26   H16   S    
C22   O10   S    
C28   H20   S    
C10   C18   S    
O8    Zn2   S    
C9    O5    A    
C25   C26   S    
C8    N1    A    
C21   C24   A    
C19   H1    S    
C10   O6    A    
C15   C16   A    
C29   C30   S    
C2    O2    A    
C7    H11   S    
N2    Zn2   S    
C5    N2    A    
C27   H17   S    
C12   H4    S    
C1    C24   S    
O1    Zn1   S    
O9    C25   S    
C8    H12   S    
C26   C27   S    
C13   H5    S    
C2    C23   S    
C5    C7    A    
C1    O1    A    
C22   C23   A    
C16   C17   A    
C6    C8    A    
O7    Zn2   S    
C6    N2    A    
C14   H6    S    
O2    Zn1   S    
O5    Zn1   S    
C28   H21   S    
C3    C4    A    
C30   H24   S    
C26   H15   S    
C12   C14   A    
O10   C28   S    
C30   H25   S    
C29   H23   S    
