data_mof_unit_27305.cif
_audit_creation_date              2013-03-05T16:23:17-0500
_audit_creation_method            fapswitch 2.2
_symmetry_space_group_name_H-M    P1
_symmetry_Int_Tables_number       1
_space_group_crystal_system       triclinic
_cell_length_a                    27.77766
_cell_length_b                    10.483149
_cell_length_c                    9.741716
_cell_angle_alpha                 90.585407
_cell_angle_beta                  90.192668
_cell_angle_gamma                 90.67601
_cell_volume                      2836.39915592

loop_
_atom_site_label
_atom_site_type_symbol
_atom_site_description
_atom_site_fract_x
_atom_site_fract_y
_atom_site_fract_z
_atom_type_partial_charge
O1    O     O_R   0.500000 0.313960 0.616610 -0.632125
O2    O     O_R   0.500000 0.686040 0.383390 -0.632245
O3    O     O_R   0.500020 0.313950 0.383350 -0.611757
O4    O     O_R   0.499980 0.686050 0.616650 -0.611331
C1    C     C_R   0.499985 0.257454 0.499277 0.884800
C2    C     C_R   0.500017 0.742545 0.500724 0.885564
O5    O     O_R   0.428750 0.500030 0.616610 -0.636832
O6    O     O_R   0.571250 0.499970 0.383390 -0.636735
O7    O     O_R   0.428770 0.500020 0.383360 -0.572070
O8    O     O_R   0.571230 0.499980 0.616640 -0.572461
C3    C     C_R   0.406183 0.494882 0.499503 0.908284
C4    C     C_R   0.593809 0.505194 0.500498 0.909030
Zn1   Zn    Zn3+2 0.499990 0.500010 0.655740 0.982056
Zn2   Zn    Zn3+2 0.500010 0.499990 0.344260 0.982172
C5    C     C_R   0.175638 0.373643 0.474348 0.518092
C6    C     C_R   0.824339 0.626807 0.526346 0.518009
O9    O     O_2   0.198402 0.261674 0.456244 -0.545534
O10   O     O_2   0.801581 0.738865 0.543830 -0.545639
N1    N     N_R   0.201629 0.483007 0.498948 -0.345930
N2    N     N_R   0.798350 0.517380 0.502000 -0.345859
C7    C     C_R   0.179596 0.597725 0.517002 0.548302
C8    C     C_R   0.820395 0.402598 0.484506 0.548169
C9    C     C_R   0.278442 0.517275 0.618007 -0.074525
C10   C     C_R   0.721606 0.482121 0.382799 -0.074321
C11   C     C_R   0.328359 0.520630 0.616823 -0.247292
C12   C     C_R   0.671689 0.478685 0.383752 -0.247768
C13   C     C_R   0.327892 0.437781 0.381647 0.294162
C14   C     C_R   0.671991 0.563739 0.618051 0.293464
C15   C     C_R   0.277695 0.439718 0.382802 -0.158751
C16   C     C_R   0.722188 0.561751 0.617230 -0.158902
C17   C     C_R   0.253022 0.478926 0.500383 0.233887
C18   C     C_R   0.746951 0.521479 0.500204 0.233622
C19   C     C_R   0.101690 0.493153 0.494873 -0.055101
C20   C     C_R   0.898292 0.507230 0.506568 -0.055137
C21   C     C_R   0.125342 0.377430 0.468487 0.001784
C22   C     C_R   0.874629 0.623001 0.532563 0.002020
C23   C     C_R   0.098594 0.269862 0.429969 -0.183222
C24   C     C_R   0.901357 0.730615 0.571036 -0.183349
C25   C     C_R   0.129308 0.604533 0.516038 -0.101334
C26   C     C_R   0.870683 0.395802 0.485618 -0.101286
C27   C     C_R   0.353594 0.483286 0.498679 -0.176831
C28   C     C_R   0.646380 0.517030 0.501380 -0.176309
H1    H     H_    0.257596 0.408380 0.292864 0.187484
H2    H     H_    0.742225 0.593915 0.706960 0.188123
H3    H     H_    0.116035 0.182287 0.398963 0.194826
H4    H     H_    0.883898 0.818233 0.601807 0.194709
C29   C     C_R   0.972512 0.384161 0.480662 -0.070090
C30   C     C_R   0.027474 0.616233 0.521050 -0.070073
C31   C     C_R   0.976379 0.616609 0.532001 0.091157
C32   C     C_R   0.023597 0.383810 0.469554 0.091107
C33   C     C_R   0.949318 0.502698 0.505011 0.005391
C34   C     C_R   0.050664 0.497700 0.496577 0.005376
C35   C     C_R   0.943581 0.270062 0.473896 0.501952
C36   C     C_R   0.056422 0.730301 0.528022 0.501980
C37   C     C_R   0.893331 0.278826 0.474214 -0.225513
C38   C     C_R   0.106671 0.721495 0.527752 -0.225417
O11   O     O_2   0.793635 0.295148 0.467557 -0.549662
O12   O     O_2   0.206369 0.705102 0.534341 -0.549489
C39   C     C_R   0.048897 0.274936 0.424154 -0.161195
C40   C     C_R   0.951052 0.725527 0.577156 -0.161501
H5    H     H_    0.652907 0.443958 0.292892 0.183309
H6    H     H_    0.347193 0.554485 0.707954 0.183798
H7    H     H_    0.740710 0.451738 0.291639 0.164865
H8    H     H_    0.259396 0.546889 0.709553 0.164906
H9    H     H_    0.871716 0.192307 0.471970 0.206421
H10   H     H_    0.128294 0.807998 0.530171 0.206397
H11   H     H_    0.031657 0.193408 0.377040 0.205004
H12   H     H_    0.968253 0.807106 0.624270 0.205181
C41   C     C_3   0.539619 0.044512 0.565047 -0.158189
C42   C     C_3   0.460388 0.955486 0.434955 -0.158975
C43   C     C_3   0.539648 0.957989 0.435868 -0.160812
C44   C     C_3   0.460360 0.042008 0.564134 -0.161595
H13   H     H_    0.571882 0.918773 0.384060 0.157729
H14   H     H_    0.428126 0.081222 0.615946 0.157609
H15   H     H_    0.571825 0.085711 0.617669 0.154790
H16   H     H_    0.428182 0.914286 0.382334 0.154796
C45   C     C_3   0.500012 0.877633 0.501974 0.007529
C46   C     C_3   0.499996 0.122366 0.498028 0.007241
C47   C     C_3   0.499984 0.961431 0.631305 -0.130577
C48   C     C_3   0.500024 0.038566 0.368697 -0.131318
H17   H     H_    0.499988 0.925848 0.738275 0.151255
H18   H     H_    0.500020 0.074148 0.261726 0.151214
C49   C     C_3   0.486467 0.390135 0.047307 -0.054434
C50   C     C_3   0.513533 0.609865 0.952693 -0.054979
C51   C     C_3   0.528979 0.415125 0.950578 -0.084755
C52   C     C_3   0.471021 0.584875 0.049422 -0.083724
H19   H     H_    0.553351 0.343803 0.903725 0.140211
H20   H     H_    0.446647 0.656194 0.096275 0.140486
H21   H     H_    0.475037 0.297725 0.092197 0.155493
H22   H     H_    0.524964 0.702274 0.907802 0.155757
N3    N     N_3   0.499960 0.500030 0.863290 -0.089427
N4    N     N_3   0.500040 0.499970 0.136710 -0.089315
C53   C     C_3   0.457444 0.475041 0.950825 -0.037068
C54   C     C_3   0.542556 0.524959 0.049175 -0.037929
H23   H     H_    0.421612 0.453958 0.904548 0.157677
H24   H     H_    0.578388 0.546042 0.095453 0.157559
N5    N     N_R   0.351727 0.384366 0.264121 0.216793
O13   O     O_R   0.382652 0.293341 0.280135 -0.398074
O14   O     O_R   0.336196 0.409047 0.141143 -0.411174
N6    N     N_R   0.648059 0.618536 0.734710 0.216772
O15   O     O_R   0.616812 0.708528 0.717121 -0.398558
O16   O     O_R   0.663776 0.596387 0.858088 -0.410530
O17   O     O_3   0.963958 0.150897 0.491438 -0.634304
C55   C     C_3   0.946938 0.062208 0.391372 -0.343472
H25   H     H_    0.939836 0.106663 0.289903 0.158066
H26   H     H_    0.914297 0.011620 0.428999 0.193537
H27   H     H_    0.974908 0.989324 0.374466 0.245524
O18   O     O_3   0.036075 0.849513 0.510592 -0.634453
C56   C     C_3   0.053070 0.938059 0.610838 -0.343346
H28   H     H_    0.085728 0.988680 0.573372 0.193651
H29   H     H_    0.060135 0.893463 0.712254 0.158057
H30   H     H_    0.025101 0.010940 0.627776 0.245443

loop_
_geom_bond_atom_site_label_1
_geom_bond_atom_site_label_2
_geom_bond_distance
_ccdc_geom_bond_type
C13   C15   1.394810 A    
N1    C17   1.428759 S    
C8    O11   1.350638 S    
C55   H26   1.110197 S    
N5    O13   1.301654 A    
C51   N3    1.480820 S    
C19   C34   1.418877 A    
C5    N1    1.366303 A    
C49   N4    1.481045 S    
C20   C33   1.418861 A    
C19   C25   1.402593 A    
C31   C40   1.415260 A    
O1    C1    1.282013 A    
C32   C39   1.415216 A    
C21   C23   1.390736 A    
C12   H5    1.083524 S    
C10   C12   1.386671 A    
C44   C47   1.543229 S    
C56   H29   1.115102 S    
C46   C48   1.528563 S    
C49   C53   1.534449 S    
O18   C56   1.416401 S    
C5    C21   1.399108 A    
O4    Zn1   1.990931 S    
C41   C43   1.543711 S    
C55   H25   1.115112 S    
C4    C28   1.464088 S    
C39   H11   1.072995 S    
C13   N5    1.436476 S    
C31   C33   1.425211 A    
C32   C34   1.425169 A    
C41   H15   1.110371 S    
C50   N3    1.481046 S    
C20   C22   1.408114 A    
O6    C4    1.300113 A    
C29   C35   1.433952 A    
C14   N6    1.436738 S    
C45   C47   1.528561 S    
C53   H23   1.110201 S    
C15   H1    1.083412 S    
C42   C45   1.526765 S    
C16   H2    1.083445 S    
C41   C46   1.526773 S    
O2    C2    1.282013 A    
C50   H22   1.110334 S    
N6    O16   1.301410 A    
C43   C48   1.543231 S    
N5    O14   1.301451 A    
C29   C32   1.423550 A    
C35   C37   1.399946 A    
C49   H21   1.110331 S    
C36   C38   1.399933 A    
C51   H19   1.110291 S    
C42   C48   1.543039 S    
C44   H14   1.110367 S    
C56   H30   1.107648 S    
C11   C27   1.404258 A    
C43   H13   1.110367 S    
C2    C45   1.416072 S    
C29   C33   1.424571 A    
C9    C17   1.397009 A    
C30   C36   1.434014 A    
O5    C3    1.300187 A    
O7    Zn2   2.016463 S    
C10   C18   1.397173 A    
C52   C53   1.534682 S    
N3    C53   1.481408 S    
C51   C54   1.534682 S    
C13   C27   1.418611 A    
C25   C38   1.388401 A    
C7    C25   1.399559 A    
C30   C34   1.424678 A    
C6    N2    1.366398 A    
C26   C37   1.388436 A    
C8    C26   1.399569 A    
N4    C54   1.481407 S    
C50   C54   1.534450 S    
C54   H24   1.110200 S    
O7    C3    1.296887 A    
Zn2   N4    2.021894 S    
C23   C39   1.383121 A    
O3    Zn2   1.990933 S    
O8    C4    1.296806 A    
C24   C40   1.383156 A    
C48   H18   1.110411 S    
C30   C31   1.423718 A    
C49   C51   1.535014 S    
N2    C8    1.365933 A    
C10   H7    1.083090 S    
C42   H16   1.110372 S    
C20   C26   1.402582 A    
C41   C47   1.543038 S    
O4    C2    1.280541 A    
O1    Zn1   1.983470 S    
C23   H3    1.083785 S    
C43   C45   1.526601 S    
C12   C28   1.404126 A    
C47   H17   1.110412 S    
N2    C18   1.428973 S    
C5    O9    1.350094 S    
C9    H8    1.083056 S    
O6    Zn2   2.014007 S    
C14   C28   1.418668 A    
N1    C7    1.365845 A    
C37   H9    1.081784 S    
C50   C52   1.535021 S    
O3    C1    1.280546 A    
O8    Zn1   2.016466 S    
C36   O18   1.389394 S    
C14   C16   1.394819 A    
C7    O12   1.350636 S    
C15   C17   1.397488 A    
C52   N4    1.480825 S    
C56   H28   1.110203 S    
C6    C22   1.399110 A    
C16   C18   1.397614 A    
C35   O17   1.389435 S    
C38   H10   1.081787 S    
C22   C24   1.390731 A    
N6    O15   1.301674 A    
C19   C21   1.408205 A    
C3    C27   1.464407 S    
C52   H20   1.110291 S    
C11   H6    1.083447 S    
C9    C11   1.386681 A    
O2    Zn2   1.983468 S    
C24   H4    1.083789 S    
O5    Zn1   2.014002 S    
C40   H12   1.072937 S    
C6    O10   1.350097 S    
C44   C46   1.526602 S    
O17   C55   1.416406 S    
C42   C44   1.543707 S    
C1    C46   1.416083 S    
C55   H27   1.107626 S    
Zn1   N3    2.021893 S    
