data_mof_unit_23545.cif
_audit_creation_date              2012-12-10T18:57:49-0500
_audit_creation_method            fapswitch 2.2
_symmetry_space_group_name_H-M    P1
_symmetry_Int_Tables_number       1
_space_group_crystal_system       triclinic
_cell_length_a                    10.649721
_cell_length_b                    9.869423
_cell_length_c                    8.910338
_cell_angle_alpha                 90.148474
_cell_angle_beta                  90.129216
_cell_angle_gamma                 90.010344
_cell_volume                      936.529801924

loop_
_atom_site_label
_atom_site_type_symbol
_atom_type_description
_atom_site_fract_x
_atom_site_fract_y
_atom_site_fract_z
_atom_type_partial_charge
C1    C     C_R   0.260258 0.500008 0.499921 0.950993
C2    C     C_R   0.065327 0.555429 0.624176 0.125205
C3    C     C_R   0.872132 0.499934 0.500073 -0.208843
C4    C     C_R   0.127867 0.500066 0.499926 -0.208843
C5    C     C_R   0.579373 0.072083 0.591649 -0.040477
C6    C     C_R   0.420625 0.927917 0.408352 -0.040474
C7    C     C_R   0.420648 0.071606 0.408332 -0.038348
C8    C     C_R   0.579349 0.928394 0.591669 -0.038350
C9    C     C_R   0.739742 0.499992 0.500079 0.950993
C10   C     C_R   0.499935 0.499924 0.218687 0.957253
C11   C     C_R   0.500065 0.500076 0.781313 0.957253
C12   C     C_1   0.499973 0.499895 0.065380 -0.117476
C13   C     C_1   0.500027 0.500105 0.934620 -0.117475
C14   C     C_R   0.064799 0.444769 0.375687 0.110233
C15   C     C_R   0.935200 0.555231 0.624313 0.110233
C16   C     C_R   0.934673 0.444571 0.375824 0.125205
H1    H     H_    0.642922 0.126522 0.665032 0.149141
H2    H     H_    0.357073 0.873478 0.334970 0.149139
H3    H     H_    0.357154 0.125634 0.334906 0.159387
H4    H     H_    0.642840 0.874366 0.665096 0.159388
I1    I     I_    0.166545 0.367559 0.186065 -0.278013
I2    I     I_    0.833455 0.632438 0.813936 -0.278011
I3    I     I_    0.832130 0.365983 0.186910 -0.245125
I4    I     I_    0.167871 0.634017 0.813089 -0.245126
N1    N     N_R   0.500000 0.857200 0.500000 -0.089730
N2    N     N_R   0.500000 0.142800 0.500000 -0.089730
O1    O     O_R   0.316770 0.614620 0.499990 -0.606834
O2    O     O_R   0.683230 0.385380 0.500010 -0.606834
O3    O     O_R   0.683230 0.614620 0.500010 -0.605957
O4    O     O_R   0.316770 0.385380 0.499990 -0.605957
O5    O     O_R   0.500010 0.614640 0.285340 -0.617470
O6    O     O_R   0.499990 0.385360 0.714660 -0.617471
O7    O     O_R   0.499990 0.614640 0.714660 -0.603186
O8    O     O_R   0.500010 0.385360 0.285340 -0.603186
Zn1   Zn    Zn3+2 0.500000 0.653120 0.500000 0.999245
Zn2   Zn    Zn3+2 0.500000 0.346880 0.500000 0.999245

loop_
_geom_bond_atom_site_label_1
_geom_bond_atom_site_label_2
_ccdc_geom_bond_type
C5    C8    A    
C2    C4    A    
C6    C7    A    
C8    N1    A    
C9    O3    A    
O3    Zn1   S    
O8    Zn2   S    
O4    Zn2   S    
C1    C4    S    
C10   O8    A    
C4    C14   A    
C2    C15   A    
C11   C13   S    
C8    H4    S    
C7    N2    A    
C10   C12   S    
N1    Zn1   S    
C3    C9    S    
O6    Zn2   S    
C14   I1    S    
N2    Zn2   S    
C1    O4    A    
O7    Zn1   S    
C11   O6    A    
C16   I3    S    
C7    H3    S    
C2    I4    S    
C6    H2    S    
C14   C16   A    
C6    N1    A    
C5    H1    S    
C5    N2    A    
C11   O7    A    
C3    C15   A    
C12   C13   T    
O2    Zn2   S    
C1    O1    A    
O5    Zn1   S    
O1    Zn1   S    
C10   O5    A    
C15   I2    S    
C3    C16   A    
C9    O2    A    
