data_mof_unit_42970.cif
_audit_creation_date              2012-12-11T16:58:15-0500
_audit_creation_method            fapswitch 2.2
_symmetry_space_group_name_H-M    P1
_symmetry_Int_Tables_number       1
_space_group_crystal_system       triclinic
_cell_length_a                    16.925728
_cell_length_b                    7.260138
_cell_length_c                    16.826681
_cell_angle_alpha                 90.000035
_cell_angle_beta                  100.147302
_cell_angle_gamma                 90.000011
_cell_volume                      2035.37201506

loop_
_atom_site_label
_atom_site_type_symbol
_atom_type_description
_atom_site_fract_x
_atom_site_fract_y
_atom_site_fract_z
_atom_type_partial_charge
O1    O     O_R   0.413450 0.494370 0.415710 -0.541340
O2    O     O_R   0.586550 0.994370 0.584290 -0.541341
O3    O     O_R   0.578420 0.819350 0.429360 -0.541694
O4    O     O_R   0.421580 0.319350 0.570640 -0.541694
C1    C     C_R   0.604680 0.656921 0.413572 0.700897
C2    C     C_R   0.395320 0.156920 0.586428 0.700897
O5    O     O_R   0.413570 0.823780 0.406240 -0.541591
O6    O     O_R   0.586430 0.323780 0.593760 -0.541592
O7    O     O_R   0.420530 0.998740 0.561000 -0.535771
O8    O     O_R   0.579470 0.498740 0.439000 -0.535771
C3    C     C_R   0.386308 0.655259 0.383715 0.679510
C4    C     C_R   0.613692 0.155259 0.616285 0.679510
O9    O     O_3   0.502480 0.662320 0.550800 -0.377205
O10   O     O_3   0.497520 0.162320 0.449200 -0.377205
V1    V     V_3+5 0.499540 0.935370 0.490580 1.377886
V2    V     V_3+5 0.500460 0.435370 0.509420 1.377886
C5    C     C_R   0.729748 0.989077 0.701581 0.064423
C6    C     C_R   0.270251 0.489077 0.298419 0.064422
C7    C     C_R   0.681922 0.145850 0.684894 -0.126070
C8    C     C_R   0.318078 0.645849 0.315106 -0.126071
C9    C     C_R   0.702624 0.295587 0.738559 -0.180563
C10   C     C_R   0.297376 0.795587 0.261441 -0.180562
H1    H     H_    0.666944 0.419807 0.731641 0.126564
H2    H     H_    0.333056 0.919807 0.268359 0.126564
C11   C     C_R   0.768493 0.284068 0.803740 -0.174437
C12   C     C_R   0.231507 0.784068 0.196260 -0.174438
H3    H     H_    0.780843 0.400042 0.844321 0.134015
H4    H     H_    0.219157 0.900042 0.155679 0.134013
C13   C     C_R   0.816109 0.122520 0.817566 -0.097905
C14   C     C_R   0.183891 0.622520 0.182433 -0.097905
C15   C     C_R   0.792607 0.977956 0.764446 0.054386
C16   C     C_R   0.207393 0.477956 0.235553 0.054387
C17   C     C_3   0.811338 0.783610 0.747375 -0.393796
C18   C     C_3   0.188662 0.283610 0.252625 -0.393795
C19   C     C_3   0.739800 0.794547 0.676410 0.127525
C20   C     C_3   0.260199 0.294547 0.323590 0.127525
H5    H     H_    0.800598 0.690725 0.796603 0.136149
H6    H     H_    0.199401 0.190725 0.203396 0.136148
H7    H     H_    0.871201 0.770097 0.729357 0.186421
H8    H     H_    0.128798 0.270098 0.270642 0.186421
H9    H     H_    0.687098 0.707534 0.681964 0.106432
H10   H     H_    0.312902 0.207534 0.318036 0.106432
C21   C     C_R   0.332626 0.161102 0.638290 -0.066309
C22   C     C_R   0.667375 0.661102 0.361711 -0.066310
C23   C     C_R   0.170439 0.107231 0.865890 -0.100068
C24   C     C_R   0.829561 0.607231 0.134110 -0.100066
C25   C     C_R   0.282328 0.942361 0.823077 -0.248196
C26   C     C_R   0.717672 0.442360 0.176924 -0.248200
C27   C     C_R   0.228189 0.962871 0.876935 0.279394
C28   C     C_R   0.771810 0.462870 0.123065 0.279398
C29   C     C_R   0.170351 0.231383 0.801840 -0.316148
C30   C     C_R   0.829648 0.731382 0.198160 -0.316151
C31   C     C_R   0.224292 0.208660 0.747516 0.155817
C32   C     C_R   0.775708 0.708660 0.252484 0.155816
C33   C     C_R   0.279689 0.060842 0.757235 0.115614
C34   C     C_R   0.720312 0.560841 0.242765 0.115616
C35   C     C_R   0.332634 0.035848 0.701867 -0.223475
C36   C     C_R   0.667367 0.535847 0.298134 -0.223475
C37   C     C_R   0.277850 0.309210 0.630235 -0.162632
C38   C     C_R   0.722149 0.809211 0.369765 -0.162632
C39   C     C_R   0.223697 0.331273 0.683305 -0.171877
C40   C     C_R   0.776302 0.831274 0.316695 -0.171877
H11   H     H_    0.375883 0.924288 0.710222 0.118551
H12   H     H_    0.624118 0.424287 0.289779 0.118551
H13   H     H_    0.277617 0.410900 0.583208 0.122828
H14   H     H_    0.722383 0.910902 0.416792 0.122828
H15   H     H_    0.326233 0.832249 0.832575 0.124851
H16   H     H_    0.673768 0.332248 0.167426 0.124851
H17   H     H_    0.182372 0.446518 0.674946 0.119967
H18   H     H_    0.817628 0.946520 0.325053 0.119967
H19   H     H_    0.126400 0.341451 0.792529 0.132300
H20   H     H_    0.873600 0.841450 0.207471 0.132301
O11   O     O_R   0.920630 0.775410 0.061150 -0.545412
O12   O     O_R   0.079370 0.275410 0.938850 -0.545412
O13   O     O_R   0.086500 0.441450 0.093690 -0.541806
O14   O     O_R   0.913500 0.941450 0.906310 -0.541806
C41   C     C_R   0.114331 0.610153 0.115483 0.692997
C42   C     C_R   0.885669 0.110153 0.884517 0.692998
O15   O     O_R   0.921670 0.445960 0.070740 -0.519349
O16   O     O_R   0.078330 0.945960 0.929260 -0.519345
O17   O     O_R   0.913380 0.271130 0.915780 -0.530829
O18   O     O_R   0.086620 0.771130 0.084220 -0.530829
C43   C     C_R   0.894597 0.612392 0.084697 0.728111
C44   C     C_R   0.105402 0.112392 0.915303 0.728110
O19   O     O_3   0.997500 0.603030 0.949220 -0.380885
O20   O     O_3   0.002500 0.103030 0.050780 -0.380889
V3    V     V_3+5 0.000470 0.329940 0.009420 1.396967
V4    V     V_3+5 0.999530 0.829940 0.990580 1.396972
N1    N     N_2   0.233863 0.841344 0.944110 -0.527334
H21   H     H_    0.288792 0.849072 0.981908 0.239310
C45   C     C_3   0.210989 0.652686 0.923617 -0.462049
H22   H     H_    0.254844 0.586787 0.890572 0.168008
H23   H     H_    0.150244 0.647232 0.885747 0.210717
H24   H     H_    0.209749 0.573309 0.979766 0.178390
N2    N     N_2   0.766136 0.341343 0.055890 -0.527334
H25   H     H_    0.711203 0.349063 0.018096 0.239311
C46   C     C_3   0.789015 0.152689 0.076383 -0.462068
H26   H     H_    0.790242 0.073309 0.020233 0.178388
H27   H     H_    0.745173 0.086787 0.109442 0.168012
H28   H     H_    0.849767 0.147240 0.114238 0.210731
N3    N     N_2   0.764539 0.782914 0.598434 -0.496178
H29   H     H_    0.726955 0.853470 0.553907 0.255805
C47   C     C_3   0.781282 0.597973 0.574064 -0.533758
H30   H     H_    0.805194 0.603206 0.516773 0.197695
H31   H     H_    0.725479 0.514234 0.564431 0.195055
H32   H     H_    0.826917 0.531095 0.620672 0.210093
N4    N     N_2   0.235460 0.282915 0.401565 -0.496178
H33   H     H_    0.273044 0.353472 0.446092 0.255805
C48   C     C_3   0.218717 0.097974 0.425936 -0.533762
H34   H     H_    0.194804 0.103207 0.483226 0.197696
H35   H     H_    0.274520 0.014235 0.435570 0.195055
H36   H     H_    0.173083 0.031095 0.379328 0.210094

loop_
_geom_bond_atom_site_label_1
_geom_bond_atom_site_label_2
_ccdc_geom_bond_type
O15   C43   A    
N3    H29   S    
C20   H10   S    
N2    H25   S    
O1    C3    A    
O16   C44   A    
O2    C4    A    
C2    O7    A    
O15   V3    S    
C46   H26   S    
C25   C27   A    
O5    C3    A    
C17   H7    S    
C18   H8    S    
C7    C9    A    
O14   C42   A    
C48   H35   S    
C28   N2    S    
C23   C29   A    
C24   C30   A    
C40   H18   S    
C38   C40   A    
C17   C19   S    
C14   C41   S    
C31   C39   A    
C13   C42   S    
C22   C36   A    
N4    H33   S    
C15   C17   S    
O12   V3    S    
N1    C45   S    
O14   V4    S    
C18   C20   S    
C21   C37   A    
C26   C28   A    
C38   H14   S    
O6    V2    S    
C20   N4    S    
C11   C13   A    
N4    C48   S    
C29   H19   S    
C25   H15   S    
C46   H27   S    
C30   C32   A    
C35   H11   S    
C31   C33   A    
C36   H12   S    
C32   C34   A    
C3    C8    S    
C37   C39   A    
O4    C2    A    
C48   H36   S    
O12   C44   A    
C45   H22   S    
O20   V3    S    
C32   C40   A    
O3    C1    A    
C17   H5    S    
C29   C31   A    
C16   C18   S    
O4    V2    S    
O11   V4    S    
C30   H20   S    
C45   H23   S    
C23   C27   A    
O6    C4    A    
C47   H31   S    
O1    V2    S    
C26   H16   S    
O2    V1    S    
O13   C41   A    
O17   V3    S    
O13   V3    S    
C1    C22   S    
C8    C10   A    
C12   C14   A    
C2    C21   S    
C33   C35   A    
C5    C15   A    
C10   H2    S    
C23   C44   S    
C6    C16   A    
C46   H28   S    
O3    V1    S    
C25   C33   A    
N3    C47   S    
O19   V4    S    
C39   H17   S    
C26   C34   A    
C9    C11   A    
C18   H6    S    
C27   N1    S    
C19   N3    S    
N2    C46   S    
C11   H3    S    
C24   C28   A    
C12   H4    S    
C9    H1    S    
O7    V1    S    
C1    O8    A    
O16   V4    S    
O8    V2    S    
C48   H34   S    
C37   H13   S    
C45   H24   S    
C14   C16   A    
C42   O17   A    
C41   O18   A    
C22   C38   A    
O18   V4    S    
C4    C7    S    
O5    V1    S    
C5    C7    A    
C34   C36   A    
C47   H32   S    
C6    C8    A    
C19   H9    S    
C21   C35   A    
C24   C43   S    
C13   C15   A    
C10   C12   A    
O9    V2    S    
C47   H30   S    
O10   V1    S    
C5    C19   S    
N1    H21   S    
C6    C20   S    
O11   C43   A    
