data_mof_unit_26742.cif
_audit_creation_date              2013-03-05T15:44:33-0500
_audit_creation_method            fapswitch 2.2
_symmetry_space_group_name_H-M    P1
_symmetry_Int_Tables_number       1
_space_group_crystal_system       triclinic
_cell_length_a                    27.845432
_cell_length_b                    10.922822
_cell_length_c                    9.664406
_cell_angle_alpha                 89.191956
_cell_angle_beta                  89.70948
_cell_angle_gamma                 90.129599
_cell_volume                      2939.09772168

loop_
_atom_site_label
_atom_site_type_symbol
_atom_site_description
_atom_site_fract_x
_atom_site_fract_y
_atom_site_fract_z
_atom_type_partial_charge
O1    O     O_R   0.500010 0.321960 0.617040 -0.576065
O2    O     O_R   0.499990 0.321920 0.382900 -0.575985
C1    C     C_R   0.501313 0.265250 0.501024 0.871276
O3    O     O_R   0.430270 0.500040 0.617060 -0.581306
O4    O     O_R   0.430260 0.500000 0.382910 -0.576987
C2    C     C_R   0.407448 0.499654 0.500401 0.813011
Cu1   Cu    Cu3+1 0.500010 0.500020 0.638630 0.945377
Cu2   Cu    Cu3+1 0.499990 0.499980 0.361370 0.938727
O5    O     O_R   0.500010 0.678080 0.617100 -0.577255
O6    O     O_R   0.499990 0.678040 0.382960 -0.569088
O7    O     O_R   0.569740 0.500000 0.617090 -0.584992
O8    O     O_R   0.569730 0.499960 0.382940 -0.576436
C3    C     C_R   0.500977 0.734949 0.498570 0.857698
C4    C     C_R   0.592694 0.501128 0.499480 0.832168
C5    C     C_R   0.178629 0.383045 0.505173 0.536977
O9    O     O_2   0.204872 0.279577 0.503667 -0.543181
N1    N     N_R   0.202254 0.492819 0.505011 -0.462763
C6    C     C_R   0.178291 0.601339 0.505775 0.530302
C7    C     C_R   0.278717 0.496450 0.379514 -0.147420
C8    C     C_R   0.328740 0.498368 0.377508 -0.217414
C9    C     C_R   0.329391 0.495856 0.628536 -0.203020
C10   C     C_R   0.279089 0.493852 0.631356 0.211402
C11   C     C_R   0.253758 0.494223 0.505558 0.370086
C12   C     C_R   0.102279 0.491416 0.510396 -0.079643
C13   C     C_R   0.127633 0.378743 0.507823 -0.038861
C14   C     C_R   0.101042 0.267488 0.507088 0.165186
C15   C     C_R   0.128091 0.602884 0.508696 -0.008350
C16   C     C_R   0.354529 0.498164 0.501972 -0.080373
H1    H     H_    0.348892 0.495466 0.725274 0.158402
C17   C     C_R   0.645975 0.502141 0.500372 -0.109800
C18   C     C_R   0.974224 0.384173 0.533966 0.052541
C19   C     C_R   0.975433 0.609144 0.508170 0.041477
C20   C     C_R   0.949598 0.497492 0.522498 0.073861
C21   C     C_R   0.946789 0.276585 0.558557 -0.205370
C22   C     C_R   0.896932 0.279394 0.561993 -0.144219
C23   C     C_R   0.872373 0.389565 0.542962 -0.045325
C24   C     C_R   0.898544 0.499099 0.524734 -0.048419
C25   C     C_R   0.873543 0.610126 0.507680 -0.018423
C26   C     C_R   0.823147 0.609410 0.507468 0.506516
N2    N     N_R   0.798455 0.501698 0.524088 -0.448376
C27   C     C_R   0.821980 0.392782 0.541602 0.603922
C28   C     C_R   0.724463 0.532481 0.392975 -0.174934
C29   C     C_R   0.674306 0.533647 0.382154 0.146735
C30   C     C_R   0.669189 0.471488 0.625245 -0.356043
C31   C     C_R   0.719310 0.474900 0.636027 0.513688
C32   C     C_R   0.746937 0.502697 0.517988 0.227698
O10   O     O_2   0.796684 0.287731 0.555556 -0.510001
C33   C     C_R   0.025168 0.382029 0.521635 -0.001835
C34   C     C_R   0.051157 0.493528 0.514667 0.064804
C35   C     C_R   0.026455 0.607525 0.511776 0.055730
C36   C     C_R   0.050867 0.271282 0.513191 -0.193904
H2    H     H_    0.746635 0.554386 0.303501 0.155202
H3    H     H_    0.877675 0.194238 0.579722 0.186950
H4    H     H_    0.962688 0.188379 0.578793 0.135930
H5    H     H_    0.032386 0.184911 0.507006 0.136899
O11   O     O_2   0.203183 0.707596 0.504349 -0.537547
C37   C     C_R   0.103504 0.714055 0.511463 -0.148335
H6    H     H_    0.347171 0.499987 0.278547 0.165283
H7    H     H_    0.259188 0.496745 0.282891 0.143715
H8    H     H_    0.122663 0.800525 0.512535 0.184629
C38   C     C_R   0.949108 0.718865 0.489289 -0.210263
C39   C     C_R   0.899236 0.719083 0.489374 -0.146257
O12   O     O_2   0.798962 0.715534 0.490865 -0.551393
C40   C     C_R   0.053800 0.716594 0.513304 -0.208854
H9    H     H_    0.965875 0.806496 0.470560 0.137027
H10   H     H_    0.648414 0.443304 0.715300 0.178745
H11   H     H_    0.880867 0.805557 0.474172 0.187802
H12   H     H_    0.037975 0.806240 0.519020 0.133353
C41   C     C_2   0.517159 0.936672 0.388642 0.201191
C42   C     C_2   0.499530 0.867630 0.494831 -0.312155
H13   H     H_    0.481454 0.908842 0.582062 0.123578
C43   C     C_2   0.510867 0.070063 0.388449 -0.154424
C44   C     C_2   0.506413 0.133564 0.505129 -0.362134
H14   H     H_    0.511310 0.117425 0.288754 0.173695
H15   H     H_    0.509131 0.090243 0.606414 0.153271
C45   C     C_2   0.471166 0.432163 0.923446 -0.065567
N3    N     N_2   0.499480 0.498660 0.846910 -0.280482
H16   H     H_    0.445180 0.373858 0.873051 0.151242
H17   H     H_    0.525270 0.551253 0.892810 0.192920
C46   C     C_2   0.472244 0.429261 0.079395 -0.065557
N4    N     N_2   0.499460 0.498630 0.153040 -0.283890
H18   H     H_    0.448294 0.365492 0.132383 0.152864
H19   H     H_    0.521178 0.562155 0.104736 0.190080
O13   O     O_3   0.741908 0.438824 0.757354 -0.579520
C47   C     C_3   0.733544 0.524562 0.863321 0.027102
H20   H     H_    0.738526 0.475894 0.963954 0.182711
H21   H     H_    0.696207 0.561075 0.864592 0.123958
C48   C     C_3   0.769877 0.629964 0.853510 -0.355490
H22   H     H_    0.806885 0.592252 0.848207 0.235661
H23   H     H_    0.763196 0.684684 0.757844 0.244020
C49   C     C_3   0.765891 0.713839 0.977981 -0.868050
H24   H     H_    0.729171 0.752918 0.984931 0.256169
H25   H     H_    0.792082 0.790163 0.966611 0.270467
H26   H     H_    0.773951 0.662284 0.074968 0.252241
C50   C     C_3   0.543138 0.883161 0.265738 -0.797971
H27   H     H_    0.559842 0.956141 0.200197 0.214521
H28   H     H_    0.572400 0.821780 0.301589 0.223524
H29   H     H_    0.517635 0.832272 0.199818 0.240054
C51   C     C_3   0.252694 0.491286 0.767649 -0.841467
H30   H     H_    0.277819 0.491117 0.856564 0.221264
H31   H     H_    0.229353 0.573183 0.775450 0.246801
H32   H     H_    0.230116 0.407554 0.775523 0.244888
C52   C     C_3   0.124169 0.142431 0.499179 -0.736386
H33   H     H_    0.097326 0.067060 0.497247 0.186786
H34   H     H_    0.145761 0.135656 0.402713 0.259570
H35   H     H_    0.146927 0.125782 0.591497 0.260765
C53   C     C_3   0.652811 0.569653 0.244498 -0.818598
H36   H     H_    0.680755 0.598075 0.168055 0.210748
H37   H     H_    0.633270 0.490779 0.200236 0.245039
H38   H     H_    0.628127 0.648291 0.257497 0.231875

loop_
_geom_bond_atom_site_label_1
_geom_bond_atom_site_label_2
_geom_bond_distance
_ccdc_geom_bond_type
C22   H3    1.083684 S    
C35   C40   1.412733 A    
C30   H10   1.083249 S    
C50   H27   1.110898 S    
C12   C15   1.412328 A    
C50   H29   1.109911 S    
Cu1   Cu2   2.679562 S    
C31   C32   1.401997 A    
Cu1   O7    1.951738 S    
N1    C11   1.434228 S    
C39   H11   1.083695 S    
C40   H12   1.076687 S    
C23   C24   1.407952 A    
C45   H16   1.084703 S    
C19   C38   1.416369 A    
O4    C2    1.298214 A    
O7    C4    1.301083 A    
C5    C13   1.420777 A    
C3    C42   1.449848 S    
C5    O9    1.347420 S    
Cu1   O5    1.953098 S    
C21   C22   1.388931 A    
C28   C32   1.398080 A    
O5    C3    1.295507 A    
O13   C47   1.416226 S    
C33   C36   1.410028 A    
C2    C16   1.473629 S    
C7    C8    1.393055 A    
C53   H36   1.110966 S    
C18   C20   1.419611 A    
C42   H13   1.083576 S    
C6    O11   1.350371 S    
Cu1   N3    2.012726 S    
N3    H17   1.025218 S    
C9    C10   1.400923 A    
C44   H15   1.084277 S    
C17   C30   1.408487 A    
C23   C27   1.403861 A    
C38   C39   1.388716 A    
C4    C17   1.483732 S    
O3    Cu1   1.954151 S    
N4    H19   1.025280 S    
C47   H21   1.114446 S    
C25   C26   1.403312 A    
Cu2   N4    2.013776 S    
C45   N3    1.293301 D    
C43   H14   1.087139 S    
C15   C37   1.395871 A    
C26   N2    1.368454 A    
C43   C44   1.337571 D    
C37   H8    1.083912 S    
C8    C16   1.404015 A    
C7    H7    1.082953 S    
C13   C14   1.421721 A    
C47   H20   1.111225 S    
C9    H1    1.083511 S    
C20   C24   1.421838 A    
O1    C1    1.288969 A    
C22   C23   1.395841 A    
C41   C43   1.467879 S    
C7    C11   1.399269 A    
C24   C25   1.407773 A    
C14   C52   1.514219 S    
C49   H25   1.110319 S    
C51   H30   1.110834 S    
C48   C49   1.526073 S    
Cu2   O8    1.954145 S    
N1    C6    1.361673 A    
C27   O10   1.349817 S    
C18   C21   1.416792 A    
C52   H34   1.110224 S    
C29   C53   1.509034 S    
C12   C13   1.420674 A    
C19   C35   1.421469 A    
O3    C2    1.297054 A    
N2    C27   1.368226 A    
C51   H31   1.110123 S    
C9    C16   1.406096 A    
C48   H23   1.110549 S    
C21   H4    1.077041 S    
C18   C33   1.423225 A    
C53   H38   1.109437 S    
C17   C29   1.422894 A    
C31   O13   1.386251 S    
C28   C29   1.401161 A    
N2    C32   1.436107 S    
C8    H6    1.083018 S    
C49   H24   1.110992 S    
C30   C31   1.400511 A    
C37   C40   1.384399 A    
C47   C48   1.532539 S    
C12   C34   1.424146 A    
C5    N1    1.366318 A    
C33   C34   1.415880 A    
C10   C51   1.504996 S    
O1    Cu1   1.959002 S    
O2    Cu2   1.953097 S    
C6    C15   1.398105 A    
C45   C46   1.507494 S    
O8    C4    1.298166 A    
C46   N4    1.293475 D    
C41   C50   1.512790 S    
O6    C3    1.286601 A    
O4    Cu2   1.951740 S    
C50   H28   1.110084 S    
C26   O12   1.349943 S    
C19   C20   1.419247 A    
O2    C1    1.291644 A    
C14   C36   1.398806 A    
C49   H26   1.110790 S    
C53   H37   1.109909 S    
C46   H18   1.084686 S    
C52   H35   1.110113 S    
C36   H5    1.076169 S    
C41   C42   1.354355 D    
C1    C44   1.445702 S    
C38   H9    1.076651 S    
C51   H32   1.110168 S    
C48   H22   1.111852 S    
Cu2   O6    1.959002 S    
C34   C35   1.423879 A    
C52   H33   1.111111 S    
C10   C11   1.408601 A    
C28   H2    1.083613 S    
C25   C39   1.395866 A    
