data_mof_unit_38235.cif
_audit_creation_date              2012-12-11T16:21:33-0500
_audit_creation_method            fapswitch 2.2
_symmetry_space_group_name_H-M    P1
_symmetry_Int_Tables_number       1
_space_group_crystal_system       triclinic
_cell_length_a                    7.226515
_cell_length_b                    36.662097
_cell_length_c                    41.497735
_cell_angle_alpha                 89.999858
_cell_angle_beta                  89.998382
_cell_angle_gamma                 89.997771
_cell_volume                      10994.3764469

loop_
_atom_site_label
_atom_site_type_symbol
_atom_type_description
_atom_site_fract_x
_atom_site_fract_y
_atom_site_fract_z
_atom_type_partial_charge
O1    O     O_R   0.564240 0.782760 0.216890 -0.537687
O2    O     O_R   0.435760 0.217240 0.783110 -0.536304
O3    O     O_R   0.435760 0.217240 0.716890 -0.537686
O4    O     O_R   0.564240 0.782760 0.283110 -0.536303
O5    O     O_R   0.064240 0.717240 0.283110 -0.537688
O6    O     O_R   0.935760 0.282760 0.716890 -0.536303
O7    O     O_R   0.935760 0.282760 0.783110 -0.537689
O8    O     O_R   0.064240 0.717240 0.216890 -0.536305
O9    O     O_R   0.234510 0.787070 0.282870 -0.539988
O10   O     O_R   0.765490 0.212930 0.717130 -0.539051
O11   O     O_R   0.765490 0.212930 0.782870 -0.539987
O12   O     O_R   0.234510 0.787070 0.217130 -0.539050
O13   O     O_R   0.734510 0.712930 0.217130 -0.539986
O14   O     O_R   0.265490 0.287070 0.782870 -0.539049
O15   O     O_R   0.265490 0.287070 0.717130 -0.539987
O16   O     O_R   0.734510 0.712930 0.282870 -0.539052
C1    C     C_R   0.403118 0.795848 0.293504 0.702824
C2    C     C_R   0.596980 0.204176 0.706438 0.702042
C3    C     C_R   0.596879 0.204152 0.793504 0.702824
C4    C     C_R   0.403022 0.795823 0.206437 0.702045
C5    C     C_R   0.903126 0.704151 0.206497 0.702825
C6    C     C_R   0.096973 0.295823 0.793562 0.702041
C7    C     C_R   0.096877 0.295849 0.706496 0.702823
C8    C     C_R   0.903024 0.704178 0.293563 0.702040
O17   O     O_3   0.397750 0.727090 0.250000 -0.374852
O18   O     O_3   0.602250 0.272910 0.750000 -0.374852
O19   O     O_3   0.897750 0.772910 0.250000 -0.374851
O20   O     O_3   0.102250 0.227090 0.750000 -0.374851
V1    V     V_3+5 0.122890 0.754250 0.250000 1.411184
V2    V     V_3+5 0.877110 0.245750 0.750000 1.411184
V3    V     V_3+5 0.622890 0.745750 0.250000 1.411181
V4    V     V_3+5 0.377110 0.254250 0.750000 1.411181
C9    C     C_R   0.844372 0.606750 0.425061 0.565926
C10   C     C_R   0.075773 0.386819 0.571365 0.569625
C11   C     C_R   0.155633 0.393256 0.925055 0.565951
C12   C     C_R   0.924323 0.613185 0.071366 0.569609
C13   C     C_R   0.344427 0.893246 0.074934 0.565949
C14   C     C_R   0.575693 0.113193 0.928644 0.569631
C15   C     C_R   0.655652 0.106732 0.574950 0.565944
C16   C     C_R   0.424211 0.886810 0.428640 0.569617
O21   O     O_2   0.752221 0.638579 0.427483 -0.525389
O22   O     O_2   0.102656 0.350765 0.567115 -0.525314
O23   O     O_2   0.247812 0.361429 0.927473 -0.525394
O24   O     O_2   0.897531 0.649243 0.067118 -0.525310
O25   O     O_2   0.252343 0.861412 0.072508 -0.525389
O26   O     O_2   0.602509 0.149250 0.932894 -0.525301
O27   O     O_2   0.747805 0.138560 0.572527 -0.525392
O28   O     O_2   0.397400 0.850753 0.432890 -0.525306
N1    N     N_R   0.936484 0.599366 0.396959 -0.558461
N2    N     N_R   0.054511 0.399664 0.602192 -0.554107
N3    N     N_R   0.063507 0.400639 0.896955 -0.558460
N4    N     N_R   0.945546 0.600337 0.102192 -0.554108
N5    N     N_R   0.436466 0.900636 0.103041 -0.558460
N6    N     N_R   0.554536 0.100347 0.897817 -0.554108
N7    N     N_R   0.563548 0.099350 0.603053 -0.558458
N8    N     N_R   0.445458 0.899656 0.397814 -0.554106
C17   C     C_R   0.034570 0.567843 0.393178 0.606256
C18   C     C_R   0.022135 0.435852 0.607854 0.605371
C19   C     C_R   0.965410 0.432160 0.893176 0.606248
C20   C     C_R   0.977887 0.564148 0.107852 0.605369
C21   C     C_R   0.534474 0.932165 0.106827 0.606266
C22   C     C_R   0.522262 0.064156 0.892154 0.605354
C23   C     C_R   0.465467 0.067828 0.606835 0.606261
C24   C     C_R   0.477813 0.935845 0.392154 0.605359
C25   C     C_R   0.765445 0.629037 0.352183 -0.011922
C26   C     C_R   0.910439 0.368232 0.649325 -0.018597
C27   C     C_R   0.234538 0.370969 0.852176 -0.011917
C28   C     C_R   0.089590 0.631767 0.149328 -0.018588
C29   C     C_R   0.265426 0.870964 0.147817 -0.011930
C30   C     C_R   0.410464 0.131774 0.850682 -0.018592
C31   C     C_R   0.734578 0.129026 0.647826 -0.011919
C32   C     C_R   0.589537 0.868227 0.350679 -0.018590
C33   C     C_R   0.757604 0.654804 0.327237 -0.227296
C34   C     C_R   0.922143 0.342745 0.674468 -0.228710
C35   C     C_R   0.242382 0.345200 0.827231 -0.227296
C36   C     C_R   0.077873 0.657253 0.174471 -0.228713
C37   C     C_R   0.257589 0.845197 0.172763 -0.227283
C38   C     C_R   0.422161 0.157257 0.825537 -0.228700
C39   C     C_R   0.742413 0.154797 0.672769 -0.227295
C40   C     C_R   0.577837 0.842743 0.325534 -0.228707
C41   C     C_R   0.074623 0.672273 0.338245 -0.192512
C42   C     C_R   0.239862 0.329696 0.660052 -0.196308
C43   C     C_R   0.925368 0.327729 0.838245 -0.192511
C44   C     C_R   0.760164 0.670304 0.160051 -0.196295
C45   C     C_R   0.574618 0.827728 0.161754 -0.192509
C46   C     C_R   0.739864 0.170313 0.839954 -0.196306
C47   C     C_R   0.425390 0.172266 0.661759 -0.192510
C48   C     C_R   0.260127 0.829692 0.339951 -0.196298
C49   C     C_R   0.081840 0.646882 0.363398 -0.089488
C50   C     C_R   0.227857 0.354647 0.634639 -0.056690
C51   C     C_R   0.918148 0.353121 0.863397 -0.089499
C52   C     C_R   0.772183 0.645353 0.134639 -0.056708
C53   C     C_R   0.581832 0.853118 0.136601 -0.089482
C54   C     C_R   0.727865 0.145365 0.865369 -0.056705
C55   C     C_R   0.418178 0.146871 0.636609 -0.089496
C56   C     C_R   0.272127 0.854641 0.365365 -0.056702
C57   C     C_R   0.927699 0.625156 0.370641 0.343102
C58   C     C_R   0.064382 0.374387 0.629050 0.331906
C59   C     C_R   0.072287 0.374849 0.870636 0.343100
C60   C     C_R   0.935660 0.625613 0.129051 0.331927
C61   C     C_R   0.427684 0.874845 0.129359 0.343121
C62   C     C_R   0.564401 0.125624 0.870959 0.331936
C63   C     C_R   0.572324 0.125143 0.629369 0.343102
C64   C     C_R   0.435595 0.874381 0.370955 0.331915
C65   C     C_R   0.955715 0.549601 0.447867 -0.067263
C66   C     C_R   0.022230 0.447871 0.550149 -0.067918
C67   C     C_R   0.044283 0.450403 0.947864 -0.067257
C68   C     C_R   0.977791 0.552133 0.050147 -0.067895
C69   C     C_R   0.455682 0.950403 0.052134 -0.067239
C70   C     C_R   0.522218 0.052139 0.949858 -0.067832
C71   C     C_R   0.544303 0.049584 0.552145 -0.067259
C72   C     C_R   0.477726 0.947860 0.449859 -0.067895
C73   C     C_R   0.847540 0.581543 0.451239 -0.092717
C74   C     C_R   0.066764 0.410895 0.544354 -0.079841
C75   C     C_R   0.152468 0.418462 0.951233 -0.092678
C76   C     C_R   0.933280 0.589109 0.044355 -0.079856
C77   C     C_R   0.347593 0.918453 0.048756 -0.092703
C78   C     C_R   0.566644 0.089118 0.955655 -0.079885
C79   C     C_R   0.652475 0.081525 0.548772 -0.092725
C80   C     C_R   0.433181 0.910885 0.455652 -0.079862
C81   C     C_R   0.742349 0.586353 0.479966 -0.048398
C82   C     C_R   0.091546 0.399138 0.511899 -0.051265
C83   C     C_R   0.257678 0.413656 0.979958 -0.048402
C84   C     C_R   0.908447 0.600866 0.011901 -0.051285
C85   C     C_R   0.242456 0.913639 0.020024 -0.048394
C86   C     C_R   0.591294 0.100875 0.988110 -0.051271
C87   C     C_R   0.757644 0.086334 0.520043 -0.048414
C88   C     C_R   0.408344 0.899129 0.488106 -0.051257
C89   C     C_R   0.050211 0.542927 0.418692 -0.033751
C90   C     C_R   0.997027 0.460150 0.582101 -0.033114
C91   C     C_R   0.949762 0.457075 0.918692 -0.033749
C92   C     C_R   0.002986 0.539851 0.082098 -0.033111
C93   C     C_R   0.550092 0.957084 0.081314 -0.033739
C94   C     C_R   0.497160 0.039856 0.917906 -0.033114
C95   C     C_R   0.449819 0.042912 0.581320 -0.033748
C96   C     C_R   0.502921 0.960141 0.417908 -0.033123
C97   C     C_R   0.911967 0.676743 0.319962 -0.055921
C98   C     C_R   0.086773 0.323249 0.680146 -0.055759
C99   C     C_R   0.088024 0.323259 0.819960 -0.055920
C100  C     C_R   0.913241 0.676750 0.180148 -0.055759
C101  C     C_R   0.411959 0.823257 0.180038 -0.055924
C102  C     C_R   0.586781 0.176755 0.819857 -0.055760
C103  C     C_R   0.588046 0.176739 0.680041 -0.055923
C104  C     C_R   0.413214 0.823247 0.319855 -0.055761
H1    H     H_    0.195928 0.688735 0.333428 0.136558
H2    H     H_    0.368048 0.314903 0.663529 0.132944
H3    H     H_    0.804067 0.311265 0.833430 0.136558
H4    H     H_    0.631978 0.685098 0.163527 0.132942
H5    H     H_    0.695928 0.811265 0.166571 0.136555
H6    H     H_    0.868042 0.185107 0.836476 0.132943
H7    H     H_    0.304081 0.188730 0.666574 0.136558
H8    H     H_    0.131946 0.814899 0.336474 0.132941
H9    H     H_    0.207300 0.644246 0.377471 0.140240
H10   H     H_    0.345914 0.358424 0.618962 0.147834
H11   H     H_    0.792690 0.355757 0.877472 0.140239
H12   H     H_    0.654137 0.641578 0.118960 0.147803
H13   H     H_    0.707293 0.855754 0.122527 0.140225
H14   H     H_    0.845917 0.141591 0.881047 0.147812
H15   H     H_    0.292719 0.144233 0.622537 0.140239
H16   H     H_    0.154072 0.858416 0.381044 0.147818
C105  C     C_R   0.934859 0.508585 0.530077 0.047427
C106  C     C_R   0.060872 0.490149 0.468478 0.044274
C107  C     C_R   0.065157 0.491420 0.030072 0.047422
C108  C     C_R   0.939089 0.509852 0.968478 0.044253
C109  C     C_R   0.434968 0.991416 0.969925 0.047390
C110  C     C_R   0.560713 0.009864 0.031531 0.044278
C111  C     C_R   0.565099 0.008572 0.469933 0.047420
C112  C     C_R   0.439125 0.990135 0.531534 0.044269
C113  C     C_R   0.049638 0.462300 0.492520 -0.027016
C114  C     C_R   0.888677 0.531695 0.503572 -0.022434
C115  C     C_R   0.950328 0.537704 0.992519 -0.027015
C116  C     C_R   0.111352 0.468313 0.003566 -0.022440
C117  C     C_R   0.549474 0.037712 0.007487 -0.027034
C118  C     C_R   0.388753 0.968303 0.996426 -0.022482
C119  C     C_R   0.450334 0.962287 0.507489 -0.027018
C120  C     C_R   0.611304 0.031680 0.496438 -0.022444
C121  C     C_R   0.002543 0.472861 0.524185 0.042650
C122  C     C_R   0.968472 0.523883 0.473373 0.053650
C123  C     C_R   0.997466 0.527144 0.024182 0.042668
C124  C     C_R   0.031532 0.476122 0.973370 0.053652
C125  C     C_R   0.502516 0.027147 0.975821 0.042745
C126  C     C_R   0.468431 0.976122 0.026629 0.053661
C127  C     C_R   0.497421 0.972848 0.475824 0.042676
C128  C     C_R   0.531532 0.023867 0.526638 0.053646
C129  C     C_R   0.921488 0.520488 0.562260 -0.172719
C130  C     C_R   0.167349 0.486042 0.440298 -0.175229
C131  C     C_R   0.078506 0.479513 0.062253 -0.172727
C132  C     C_R   0.832560 0.513950 0.940304 -0.175248
C133  C     C_R   0.421753 0.979510 0.937744 -0.172698
C134  C     C_R   0.667089 0.013981 0.059716 -0.175209
C135  C     C_R   0.578435 0.020478 0.437751 -0.172709
C136  C     C_R   0.332658 0.986031 0.559714 -0.175230
C137  C     C_R   0.950703 0.496678 0.587804 -0.156857
C138  C     C_R   0.160019 0.511658 0.415647 -0.131647
C139  C     C_R   0.049287 0.503321 0.087799 -0.156867
C140  C     C_R   0.839910 0.488337 0.915652 -0.131654
C141  C     C_R   0.450973 0.003322 0.912201 -0.156878
C142  C     C_R   0.659788 0.988363 0.084366 -0.131651
C143  C     C_R   0.549225 0.996669 0.412206 -0.156867
C144  C     C_R   0.340008 0.011646 0.584367 -0.131651
O29   O     O_2   0.013875 0.448324 0.638422 -0.515362
O30   O     O_2   0.114168 0.560328 0.364541 -0.503323
O31   O     O_2   0.986125 0.551674 0.138420 -0.515362
O32   O     O_2   0.885812 0.439676 0.864541 -0.503324
O33   O     O_2   0.514093 0.051684 0.861586 -0.515359
O34   O     O_2   0.614015 0.939683 0.135467 -0.503330
O35   O     O_2   0.486058 0.948318 0.361586 -0.515362
O36   O     O_2   0.385879 0.060315 0.635472 -0.503324
C145  C     C_R   0.760359 0.561150 0.505809 -0.051824
C146  C     C_R   0.079184 0.424520 0.486086 -0.056441
C147  C     C_R   0.239675 0.438858 0.005800 -0.051822
C148  C     C_R   0.920722 0.575483 0.986088 -0.056411
C149  C     C_R   0.260507 0.938838 0.994180 -0.051810
C150  C     C_R   0.578895 0.075493 0.013921 -0.056456
C151  C     C_R   0.739609 0.061135 0.494199 -0.051819
C152  C     C_R   0.420740 0.924508 0.513921 -0.056430
H17   H     H_    0.802520 0.338331 0.689751 0.140187
H18   H     H_    0.631354 0.657390 0.313313 0.140115
H19   H     H_    0.197487 0.661667 0.189756 0.140188
H20   H     H_    0.368631 0.342614 0.813305 0.140115
H21   H     H_    0.302542 0.161669 0.810252 0.140187
H22   H     H_    0.131335 0.842610 0.186687 0.140115
H23   H     H_    0.697459 0.838330 0.310250 0.140188
H24   H     H_    0.868663 0.157385 0.686692 0.140113
H25   H     H_    0.937169 0.507135 0.612101 0.172803
H26   H     H_    0.241540 0.506849 0.394154 0.175583
H27   H     H_    0.062804 0.492862 0.112095 0.172807
H28   H     H_    0.758358 0.493142 0.894163 0.175592
H29   H     H_    0.437545 0.992864 0.887904 0.172807
H30   H     H_    0.741235 0.993178 0.105863 0.175582
H31   H     H_    0.562743 0.007128 0.387908 0.172809
H32   H     H_    0.258492 0.006838 0.605860 0.175587
H33   H     H_    0.896205 0.548737 0.568066 0.139786
H34   H     H_    0.262750 0.463687 0.437429 0.135611
H35   H     H_    0.103773 0.451264 0.068057 0.139795
H36   H     H_    0.737099 0.536296 0.937441 0.135658
H37   H     H_    0.396559 0.951259 0.931938 0.139812
H38   H     H_    0.762394 0.036346 0.062591 0.135615
H39   H     H_    0.603691 0.048727 0.431945 0.139800
H40   H     H_    0.237245 0.963679 0.562584 0.135628
C153  C     C_R   0.599722 0.615377 0.482306 0.167111
C154  C     C_R   0.415908 0.607960 0.473483 -0.092306
C155  C     C_R   0.280955 0.635116 0.476217 -0.111331
C156  C     C_R   0.328591 0.669726 0.487658 -0.089360
C157  C     C_R   0.511400 0.677269 0.496441 -0.106889
C158  C     C_R   0.646854 0.650191 0.493831 -0.072317
H41   H     H_    0.377422 0.581187 0.464687 0.112733
H42   H     H_    0.139394 0.629378 0.469545 0.119534
H43   H     H_    0.223782 0.690686 0.489737 0.107073
H44   H     H_    0.548075 0.704078 0.505303 0.101069
H45   H     H_    0.788132 0.656228 0.500737 0.090918
C159  C     C_R   0.124902 0.360169 0.504132 0.172840
C160  C     C_R   0.976348 0.337318 0.495879 -0.068996
C161  C     C_R   0.008395 0.300679 0.488356 -0.107727
C162  C     C_R   0.188480 0.286733 0.488975 -0.087879
C163  C     C_R   0.336918 0.309399 0.497121 -0.105441
C164  C     C_R   0.305526 0.346038 0.504713 -0.090060
H46   H     H_    0.836459 0.347918 0.495282 0.089669
H47   H     H_    0.893680 0.283100 0.482033 0.097051
H48   H     H_    0.213017 0.258375 0.483120 0.095022
H49   H     H_    0.476281 0.298585 0.497544 0.104608
H50   H     H_    0.421305 0.363420 0.510958 0.095724
C165  C     C_R   0.400231 0.384619 0.982303 0.167057
C166  C     C_R   0.584107 0.392018 0.973506 -0.092302
C167  C     C_R   0.718957 0.364839 0.976237 -0.111363
C168  C     C_R   0.671151 0.330227 0.987652 -0.089380
C169  C     C_R   0.488285 0.322705 0.996414 -0.106825
C170  C     C_R   0.352942 0.349805 0.993808 -0.072294
H51   H     H_    0.622720 0.418790 0.964729 0.112731
H52   H     H_    0.860566 0.370561 0.969583 0.119508
H53   H     H_    0.775873 0.309249 0.989727 0.107075
H54   H     H_    0.451477 0.295894 0.005255 0.101065
H55   H     H_    0.211616 0.343783 0.000695 0.090921
C171  C     C_R   0.875089 0.639836 0.004136 0.172860
C172  C     C_R   0.023621 0.662675 0.995838 -0.069077
C173  C     C_R   0.991579 0.699312 0.988312 -0.107767
C174  C     C_R   0.811520 0.713270 0.988975 -0.087878
C175  C     C_R   0.663101 0.690616 0.997165 -0.105430
C176  C     C_R   0.694489 0.653978 0.004757 -0.089990
H56   H     H_    0.163490 0.652066 0.995207 0.089662
H57   H     H_    0.106279 0.716881 0.981954 0.097044
H58   H     H_    0.786991 0.741628 0.983119 0.095014
H59   H     H_    0.523757 0.701438 0.997621 0.104647
H60   H     H_    0.578727 0.636605 0.011036 0.095746
C177  C     C_R   0.099863 0.884611 0.017679 0.167064
C178  C     C_R   0.916021 0.892021 0.026490 -0.092328
C179  C     C_R   0.781125 0.864855 0.023760 -0.111338
C180  C     C_R   0.828850 0.830244 0.012333 -0.089374
C181  C     C_R   0.011685 0.822709 0.003561 -0.106861
C182  C     C_R   0.147076 0.849796 0.006167 -0.072293
H61   H     H_    0.877471 0.918794 0.035276 0.112727
H62   H     H_    0.639544 0.870587 0.030425 0.119534
H63   H     H_    0.724091 0.809275 0.010257 0.107074
H64   H     H_    0.048433 0.795899 0.994711 0.101073
H65   H     H_    0.288377 0.843765 0.999272 0.090919
C183  C     C_R   0.624636 0.139843 0.995878 0.172843
C184  C     C_R   0.476078 0.162701 0.004117 -0.068928
C185  C     C_R   0.508139 0.199338 0.011645 -0.107729
C186  C     C_R   0.688238 0.213274 0.011045 -0.087901
C187  C     C_R   0.836678 0.190600 0.002913 -0.105458
C188  C     C_R   0.805270 0.153964 0.995316 -0.090117
H66   H     H_    0.336180 0.152109 0.004701 0.089673
H67   H     H_    0.393423 0.216923 0.017957 0.097039
H68   H     H_    0.712782 0.241630 0.016905 0.095011
H69   H     H_    0.976055 0.201404 0.002505 0.104591
H70   H     H_    0.921050 0.136575 0.989083 0.095717
C189  C     C_R   0.900266 0.115357 0.517701 0.167119
C190  C     C_R   0.084094 0.107936 0.526516 -0.092315
C191  C     C_R   0.219043 0.135090 0.523778 -0.111332
C192  C     C_R   0.171389 0.169702 0.512340 -0.089375
C193  C     C_R   0.988566 0.177250 0.503566 -0.106890
C194  C     C_R   0.853117 0.150174 0.506180 -0.072284
H71   H     H_    0.122593 0.081162 0.535308 0.112733
H72   H     H_    0.360614 0.129349 0.530443 0.119523
H73   H     H_    0.276194 0.190661 0.510258 0.107079
H74   H     H_    0.951874 0.204060 0.494708 0.101058
H75   H     H_    0.711828 0.156214 0.499281 0.090910
C195  C     C_R   0.374768 0.860166 0.495868 0.172819
C196  C     C_R   0.523166 0.837288 0.504160 -0.068946
C197  C     C_R   0.490894 0.800655 0.511677 -0.107749
C198  C     C_R   0.310743 0.786742 0.511012 -0.087869
C199  C     C_R   0.162461 0.809436 0.502828 -0.105439
C200  C     C_R   0.194077 0.846069 0.495245 -0.090154
H76   H     H_    0.663104 0.847862 0.504792 0.089667
H77   H     H_    0.605487 0.783054 0.518029 0.097035
H78   H     H_    0.286036 0.758387 0.516860 0.095027
H79   H     H_    0.023045 0.798648 0.502369 0.104661
H80   H     H_    0.078418 0.863473 0.488970 0.095782
C201  C     C_1   0.739300 0.387781 0.644642 0.340942
N9    N     N_1   0.603116 0.403844 0.640968 -0.342745
C202  C     C_1   0.607452 0.606165 0.358338 0.330255
N10   N     N_1   0.481496 0.587609 0.363419 -0.300337
C203  C     C_1   0.260730 0.612217 0.144646 0.340943
N11   N     N_1   0.396917 0.596154 0.140972 -0.342739
C204  C     C_1   0.392524 0.393845 0.858326 0.330264
N12   N     N_1   0.518473 0.412403 0.863403 -0.300308
C205  C     C_1   0.239339 0.112223 0.855367 0.340904
N13   N     N_1   0.103165 0.096158 0.859042 -0.342735
C206  C     C_1   0.107425 0.893837 0.141662 0.330229
N14   N     N_1   0.981463 0.912394 0.136582 -0.300359
C207  C     C_1   0.760668 0.887776 0.355362 0.340942
N15   N     N_1   0.896847 0.903838 0.359037 -0.342748
C208  C     C_1   0.892577 0.106151 0.641674 0.330262
N16   N     N_1   0.018537 0.087594 0.636595 -0.300331
C209  C     C_R   0.619691 0.561335 0.532087 0.095104
C210  C     C_R   0.507424 0.530495 0.536702 -0.110454
C211  C     C_R   0.387025 0.528752 0.562886 -0.096693
C212  C     C_R   0.370745 0.558324 0.583910 -0.087851
C213  C     C_R   0.478856 0.589458 0.579155 -0.117874
C214  C     C_R   0.604615 0.590863 0.553581 -0.143803
H81   H     H_    0.517675 0.507323 0.520593 0.112406
H82   H     H_    0.308707 0.504173 0.567020 0.134469
H83   H     H_    0.276045 0.556931 0.604079 0.116159
H84   H     H_    0.468073 0.612192 0.595684 0.111872
H85   H     H_    0.693910 0.614379 0.551162 0.104140
C215  C     C_R   0.060662 0.410064 0.452673 0.100652
C216  C     C_R   0.890510 0.413118 0.436512 -0.114243
C217  C     C_R   0.870145 0.399086 0.405398 -0.116157
C218  C     C_R   0.019221 0.381924 0.390209 -0.086627
C219  C     C_R   0.189005 0.378777 0.406101 -0.111013
C220  C     C_R   0.209984 0.392726 0.437230 -0.147876
H86   H     H_    0.773684 0.426190 0.448103 0.104160
H87   H     H_    0.738642 0.401458 0.393086 0.110701
H88   H     H_    0.003212 0.371088 0.366111 0.107993
H89   H     H_    0.304530 0.365594 0.394273 0.107985
H90   H     H_    0.342878 0.390531 0.449117 0.101368
C221  C     C_R   0.380308 0.438665 0.032082 0.095092
C222  C     C_R   0.492584 0.469500 0.036707 -0.110454
C223  C     C_R   0.612946 0.471232 0.062895 -0.096717
C224  C     C_R   0.629173 0.441655 0.083913 -0.087881
C225  C     C_R   0.521054 0.410526 0.079147 -0.117882
C226  C     C_R   0.395337 0.409132 0.053569 -0.143810
H91   H     H_    0.482370 0.492676 0.020604 0.112419
H92   H     H_    0.691278 0.495805 0.067037 0.134482
H93   H     H_    0.723842 0.443039 0.104084 0.116163
H94   H     H_    0.531798 0.387788 0.095670 0.111880
H95   H     H_    0.306038 0.385619 0.051141 0.104156
C227  C     C_R   0.938939 0.589940 0.952673 0.100624
C228  C     C_R   0.108942 0.586899 0.936464 -0.114259
C229  C     C_R   0.128981 0.600928 0.905345 -0.116141
C230  C     C_R   0.979731 0.618074 0.890199 -0.086652
C231  C     C_R   0.810100 0.621209 0.906139 -0.111064
C232  C     C_R   0.789446 0.607264 0.937273 -0.147878
H96   H     H_    0.225895 0.573838 0.948021 0.104180
H97   H     H_    0.260364 0.598565 0.892996 0.110729
H98   H     H_    0.995486 0.628906 0.866096 0.108010
H99   H     H_    0.694440 0.634380 0.894344 0.107994
H100  H     H_    0.656666 0.609449 0.949198 0.101378
C233  C     C_R   0.119965 0.938636 0.967888 0.095085
C234  C     C_R   0.007730 0.969472 0.963240 -0.110424
C235  C     C_R   0.887462 0.971197 0.937043 -0.096748
C236  C     C_R   0.871269 0.941613 0.916041 -0.087951
C237  C     C_R   0.979334 0.910484 0.920829 -0.117908
C238  C     C_R   0.104978 0.909098 0.946414 -0.143803
H101  H     H_    0.017918 0.992653 0.979332 0.112431
H102  H     H_    0.809171 0.995770 0.932881 0.134483
H103  H     H_    0.776672 0.942992 0.895863 0.116179
H104  H     H_    0.968603 0.887740 0.904318 0.111901
H105  H     H_    0.194245 0.885584 0.948856 0.104159
C239  C     C_R   0.560184 0.089944 0.047323 0.100711
C240  C     C_R   0.389995 0.086876 0.063458 -0.114271
C241  C     C_R   0.369441 0.100906 0.094560 -0.116249
C242  C     C_R   0.518364 0.118080 0.109763 -0.086654
C243  C     C_R   0.688183 0.121240 0.093898 -0.111079
C244  C     C_R   0.709351 0.107293 0.062782 -0.147914
H106  H     H_    0.273286 0.073796 0.051855 0.104193
H107  H     H_    0.237911 0.098524 0.106850 0.110736
H108  H     H_    0.502209 0.128915 0.133852 0.108033
H109  H     H_    0.803589 0.134432 0.105738 0.108037
H110  H     H_    0.842269 0.109499 0.050916 0.101407
C245  C     C_R   0.880216 0.061329 0.467911 0.095104
C246  C     C_R   0.992509 0.030494 0.463283 -0.110443
C247  C     C_R   0.112845 0.028762 0.437090 -0.096714
C248  C     C_R   0.129030 0.058338 0.416071 -0.087879
C249  C     C_R   0.020894 0.089467 0.420840 -0.117878
C250  C     C_R   0.895202 0.090861 0.446423 -0.143815
H111  H     H_    0.982327 0.007319 0.479387 0.112411
H112  H     H_    0.191185 0.004188 0.432945 0.134476
H113  H     H_    0.223677 0.056953 0.395895 0.116167
H114  H     H_    0.031605 0.112204 0.404315 0.111880
H115  H     H_    0.805884 0.114374 0.448853 0.104140
C251  C     C_R   0.439214 0.910046 0.547333 0.100616
C252  C     C_R   0.609355 0.913088 0.563499 -0.114259
C253  C     C_R   0.629675 0.899051 0.594613 -0.116158
C254  C     C_R   0.480566 0.881895 0.609795 -0.086640
C255  C     C_R   0.310794 0.878760 0.593898 -0.111019
C256  C     C_R   0.289860 0.892714 0.562770 -0.147873
H116  H     H_    0.726205 0.926155 0.551913 0.104170
H117  H     H_    0.761168 0.901414 0.606928 0.110701
H118  H     H_    0.496540 0.871056 0.633893 0.107992
H119  H     H_    0.195245 0.865581 0.605722 0.107985
H120  H     H_    0.156977 0.890527 0.550878 0.101396

loop_
_geom_bond_atom_site_label_1
_geom_bond_atom_site_label_2
_ccdc_geom_bond_type
C69   C126  A    
C112  C119  A    
C129  H33   S    
C157  H44   S    
C140  H28   S    
C216  C217  A    
C254  C255  A    
C10   O22   S    
C133  H37   S    
C20   C92   A    
C205  N13   T    
C21   C93   A    
O15   V4    S    
C203  N11   T    
O16   V3    S    
C19   C91   A    
C166  H51   S    
C178  H61   S    
C114  C122  A    
C119  C127  A    
C219  H89   S    
C156  C157  A    
C66   C90   A    
C171  C172  A    
C143  H31   S    
C192  C193  A    
C85   C149  A    
C160  H46   S    
C17   O30   S    
C184  H66   S    
C11   C75   A    
C221  C226  A    
C66   C121  A    
C21   O34   S    
C233  C238  A    
C157  C158  A    
C135  H39   S    
C70   C78   A    
C183  C188  A    
C222  C223  A    
O13   V3    S    
C86   C183  S    
C253  H117  S    
C85   C177  S    
C75   C83   A    
C69   C93   A    
C228  C229  A    
C226  H95   S    
C53   C61   A    
C72   C80   A    
C6    C99   S    
C39   H24   S    
C244  H110  S    
C239  C244  A    
C169  H54   S    
O10   V2    S    
O12   C4    A    
C30   C62   A    
O13   C5    A    
C107  C116  A    
C195  C200  A    
C183  C184  A    
O6    V2    S    
C23   O36   S    
C56   C64   A    
C11   N3    A    
C233  C234  A    
C12   O24   S    
C185  C186  A    
C13   O25   S    
C43   C51   A    
C187  C188  A    
C15   O27   S    
C133  C141  A    
C16   O28   S    
C30   C205  S    
O1    C4    A    
O2    C3    A    
C149  C233  S    
C108  C132  A    
C29   C61   A    
O7    C6    A    
C111  C135  A    
C237  C238  A    
C112  C136  A    
C139  H27   S    
C118  C149  A    
C119  C152  A    
C172  H56   S    
C137  H25   S    
C42   C98   A    
C40   H23   S    
C68   C76   A    
C228  H96   S    
C106  C113  A    
C33   C97   A    
C161  H47   S    
O10   C2    A    
C212  C213  A    
C136  C144  A    
C37   C101  A    
C190  H71   S    
C82   C159  S    
C204  N12   T    
C13   C77   A    
C54   C62   A    
C225  H94   S    
C218  C219  A    
C144  H32   S    
C227  C228  A    
C198  H78   S    
C229  C230  A    
C187  H69   S    
O17   V3    S    
C220  H90   S    
C24   C96   A    
O18   V4    S    
C213  C214  A    
C29   C206  S    
O12   V1    S    
O19   V1    S    
C29   C37   A    
C110  C126  A    
C90   C137  A    
C87   C151  A    
C118  C126  A    
C31   C39   A    
C240  C241  A    
C210  H81   S    
C81   C153  S    
C215  C220  A    
C1    C104  S    
C31   C208  S    
O8    V1    S    
C188  H70   S    
C65   C73   A    
C2    C103  S    
C168  H53   S    
C46   H6    S    
C160  C161  A    
C136  H40   S    
C36   H19   S    
C26   C34   A    
O1    V3    S    
N1    C17   A    
O2    V4    S    
C153  C154  A    
C209  C214  A    
C232  H100  S    
N4    C20   A    
C211  H82   S    
N5    C21   A    
C230  H98   S    
C39   C103  A    
C249  C250  A    
C70   C125  A    
C166  C167  A    
C40   C104  A    
C47   C55   A    
C254  H118  S    
C82   C146  A    
C218  H88   S    
C11   O23   S    
C186  H68   S    
C12   N4    A    
C13   N5    A    
C251  C256  A    
C174  C175  A    
C115  C123  A    
C72   C96   A    
C113  C121  A    
C219  C220  A    
C55   C63   A    
O8    C5    A    
C158  H45   S    
C24   O35   S    
N2    C58   S    
C156  H43   S    
C171  C176  A    
C243  C244  A    
C45   C101  A    
C109  C118  A    
N1    C57   S    
N4    C60   S    
C223  H92   S    
C68   C123  A    
C28   C60   A    
C236  H103  S    
C145  C209  S    
C181  C182  A    
C120  C151  A    
C88   C152  A    
C253  C254  A    
C198  C199  A    
C88   C195  S    
C175  H59   S    
C107  C123  A    
C251  C252  A    
C70   C94   A    
C27   C35   A    
C12   C76   A    
C231  C232  A    
C241  C242  A    
C31   C63   A    
C162  H48   S    
C245  C250  A    
C4    C101  S    
C130  C138  A    
C240  H106  S    
C239  C240  A    
C108  C124  A    
C169  C170  A    
C141  H29   S    
C8    C97   S    
C28   C36   A    
C9    C73   A    
C26   C58   A    
C242  H108  S    
C32   C40   A    
C35   C99   A    
C115  C148  A    
C231  H99   S    
C15   C79   A    
C113  C146  A    
C33   H18   S    
C185  H67   S    
C106  C122  A    
C37   H22   S    
C73   C81   A    
C173  C174  A    
C179  H62   S    
C159  C160  A    
C44   C52   A    
C51   C59   A    
C26   C201  S    
C77   C85   A    
C213  H84   S    
C130  H34   S    
C79   C87   A    
C94   C141  A    
C237  H104  S    
C48   C56   A    
C247  C248  A    
C7    C98   S    
C172  C173  A    
C134  H38   S    
C174  H58   S    
C116  C147  A    
C43   C99   A    
C89   C138  A    
C69   C77   A    
C165  C166  A    
C41   C97   A    
C34   C98   A    
O11   C3    A    
N7    C23   A    
C238  H105  S    
C38   C102  A    
C255  C256  A    
C9    N1    A    
C225  C226  A    
C201  N9    T    
C227  C232  A    
C105  C129  A    
C86   C150  A    
C15   N7    A    
C221  C222  A    
O11   V2    S    
N5    C61   S    
C16   N8    A    
C92   C139  A    
C109  C133  A    
C50   H10   S    
C152  C251  S    
C224  H93   S    
C25   C202  S    
C27   C59   A    
C41   C49   A    
C116  C124  A    
C199  C200  A    
C117  C125  A    
C54   H14   S    
O7    V2    S    
C163  H49   S    
C44   C100  A    
C84   C148  A    
C42   H2    S    
C159  C164  A    
C224  C225  A    
C72   C127  A    
C151  C245  S    
C192  H73   S    
C44   H4    S    
C165  C170  A    
C189  C190  A    
N2    C18   A    
N8    C64   S    
C95   C144  A    
C120  C128  A    
C32   C64   A    
C207  N15   T    
C153  C158  A    
C202  N10   T    
C177  C178  A    
C91   C140  A    
C179  C180  A    
C14   N6    A    
C87   C189  S    
C154  C155  A    
C180  H63   S    
O4    C1    A    
C16   C80   A    
C3    C102  S    
C248  C249  A    
C55   H15   S    
C243  H109  S    
C211  C212  A    
C134  C142  A    
C196  H76   S    
C246  C247  A    
C110  C117  A    
C76   C84   A    
N6    C62   S    
O14   V4    S    
C236  C237  A    
C191  H72   S    
C80   C88   A    
C234  C235  A    
N6    C22   A    
C256  H120  S    
C181  H64   S    
C42   C50   A    
C9    O21   S    
C138  H26   S    
C117  C150  A    
C180  C181  A    
C14   O26   S    
C71   C95   A    
C222  H91   S    
C35   H20   S    
C18   C90   A    
O3    V4    S    
C147  C221  S    
O4    V3    S    
C150  C239  S    
C196  C197  A    
C14   C78   A    
C245  C246  A    
C249  H114  S    
C5    C100  S    
C247  H112  S    
C208  N16   T    
C93   C142  A    
C67   C124  A    
C30   C38   A    
C184  C185  A    
C242  C243  A    
C65   C122  A    
C167  H52   S    
C235  C236  A    
C191  C192  A    
O5    C8    A    
C161  C162  A    
C66   C74   A    
C214  H85   S    
C17   C89   A    
C135  C143  A    
C189  C194  A    
C178  C179  A    
C173  H57   S    
C155  H42   S    
N7    C63   S    
C25   C33   A    
O3    C2    A    
C107  C131  A    
C200  H80   S    
C215  C216  A    
C96   C143  A    
C46   C54   A    
C84   C171  S    
C155  C156  A    
C111  C127  A    
C206  N14   T    
C164  H50   S    
C83   C165  S    
C112  C128  A    
C83   C147  A    
C170  H55   S    
C81   C145  A    
C167  C168  A    
C22   O33   S    
C132  H36   S    
O9    V1    S    
O15   C7    A    
O16   C8    A    
C47   H7    S    
C193  H74   S    
O14   C6    A    
C48   H8    S    
C45   C53   A    
C19   O32   S    
C212  H83   S    
O5    V1    S    
C255  H119  S    
C36   C100  A    
N3    C59   S    
C235  H102  S    
C241  H107  S    
C10   N2    A    
C68   C92   A    
C148  C227  S    
C182  H65   S    
C46   C102  A    
C18   O29   S    
C67   C91   A    
N8    C24   A    
C252  C253  A    
C106  C130  A    
C186  C187  A    
C65   C89   A    
C193  C194  A    
C197  H77   S    
C177  C182  A    
C49   C57   A    
C110  C134  A    
C23   C95   A    
C51   H11   S    
C195  C196  A    
C20   O31   S    
C49   H9    S    
C199  H79   S    
C163  C164  A    
C176  H60   S    
C32   C207  S    
C27   C204  S    
C217  H87   S    
C52   H12   S    
C250  H115  S    
C53   H13   S    
C67   C75   A    
C248  H113  S    
C43   H3    S    
C105  C114  A    
C71   C79   A    
O9    C1    A    
C56   H16   S    
C246  H111  S    
C41   H1    S    
N3    C19   A    
C162  C163  A    
C190  C191  A    
C52   C60   A    
C223  C224  A    
C216  H86   S    
C131  C139  A    
C175  C176  A    
C129  C137  A    
C142  H30   S    
C252  H116  S    
C10   C74   A    
C154  H41   S    
C109  C125  A    
C197  C198  A    
C22   C94   A    
O20   V2    S    
C25   C57   A    
C210  C211  A    
C230  C231  A    
C114  C145  A    
C146  C215  S    
O6    C7    A    
C34   H17   S    
C71   C128  A    
C48   C104  A    
C229  H97   S    
C217  C218  A    
C45   H5    S    
C168  C169  A    
C38   H21   S    
C74   C82   A    
C132  C140  A    
C28   C203  S    
C234  H101  S    
C194  H75   S    
C108  C115  A    
C78   C86   A    
C47   C103  A    
C209  C210  A    
C105  C121  A    
C50   C58   A    
C131  H35   S    
C111  C120  A    
