data_mof_unit_65474.cif
_audit_creation_date              2012-12-10T17:58:19-0500
_audit_creation_method            fapswitch 2.2
_symmetry_space_group_name_H-M    P1
_symmetry_Int_Tables_number       1
_space_group_crystal_system       triclinic
_cell_length_a                    38.54219
_cell_length_b                    21.619364
_cell_length_c                    21.589849
_cell_angle_alpha                 89.993492
_cell_angle_beta                  124.167994
_cell_angle_gamma                 90.059511
_cell_volume                      14884.7380323

loop_
_atom_site_label
_atom_site_type_symbol
_atom_type_description
_atom_site_fract_x
_atom_site_fract_y
_atom_site_fract_z
_atom_type_partial_charge
C1    C     C_R   0.999974 0.999975 0.120185 0.857466
C2    C     C_R   0.000025 0.999981 0.879813 0.857373
C3    C     C_R   0.499974 0.499975 0.120185 0.857462
C4    C     C_R   0.500025 0.499981 0.879813 0.857376
C5    C     C_3   0.274441 0.030514 0.216739 -0.432850
C6    C     C_3   0.725506 0.030534 0.782804 -0.449893
C7    C     C_3   0.774457 0.534168 0.218872 -0.433036
C8    C     C_3   0.225504 0.531085 0.782493 -0.449926
C9    C     C_3   0.225953 0.031563 0.168082 -0.404366
C10   C     C_3   0.774012 0.029482 0.832565 -0.404021
C11   C     C_3   0.725969 0.535235 0.170272 -0.404200
C12   C     C_3   0.274009 0.530051 0.832266 -0.404004
C13   C     C_1   0.336891 0.998651 0.337240 -0.129351
C14   C     C_1   0.663076 0.997275 0.662981 -0.089678
C15   C     C_1   0.836891 0.498605 0.337180 -0.129301
C16   C     C_1   0.163076 0.497272 0.662995 -0.089677
C17   C     C_1   0.163110 0.999496 0.163320 -0.109635
C18   C     C_1   0.836870 0.998902 0.836607 -0.106510
C19   C     C_1   0.663110 0.499481 0.163271 -0.109631
C20   C     C_1   0.336870 0.498901 0.836619 -0.106509
C21   C     C_1   0.125584 0.999954 0.125676 -0.186942
C22   C     C_1   0.874400 0.999657 0.874255 -0.188546
C23   C     C_1   0.625584 0.499951 0.125656 -0.186947
C24   C     C_1   0.374400 0.499657 0.874260 -0.188542
C25   C     C_R   0.971964 0.038198 0.189759 -0.188266
C26   C     C_R   0.028042 0.038293 0.810236 -0.188268
C27   C     C_R   0.471964 0.538198 0.189759 -0.188272
C28   C     C_R   0.528042 0.538294 0.810236 -0.188268
C29   C     C_R   0.971489 0.037389 0.253245 -0.184400
C30   C     C_R   0.028519 0.037480 0.746752 -0.184385
C31   C     C_R   0.471489 0.537389 0.253245 -0.184419
C32   C     C_R   0.528519 0.537481 0.746752 -0.184387
C33   C     C_R   0.999912 0.999744 0.313368 -0.008122
C34   C     C_R   0.000087 0.999751 0.686630 -0.008011
C35   C     C_R   0.499912 0.499744 0.313368 -0.008110
C36   C     C_R   0.500087 0.499751 0.686630 -0.008008
C37   C     C_R   0.028349 0.962178 0.310194 -0.193991
C38   C     C_R   0.971638 0.962107 0.689799 -0.194026
C39   C     C_R   0.528349 0.462178 0.310194 -0.193991
C40   C     C_R   0.471638 0.462106 0.689799 -0.194013
C41   C     C_R   0.027862 0.961442 0.245756 -0.188359
C42   C     C_R   0.972122 0.961378 0.754235 -0.188368
C43   C     C_R   0.527861 0.461442 0.245756 -0.188359
C44   C     C_R   0.472123 0.461377 0.754235 -0.188361
C45   C     C_R   0.081092 0.000021 0.081108 0.906978
C46   C     C_R   0.918903 0.999946 0.918864 0.907030
C47   C     C_R   0.581092 0.500020 0.081110 0.906978
C48   C     C_R   0.418903 0.499946 0.918864 0.907029
C49   C     C_R   0.999933 0.999878 0.186189 -0.000670
C50   C     C_R   0.000061 0.999895 0.813804 -0.000596
C51   C     C_R   0.499933 0.499878 0.186188 -0.000661
C52   C     C_R   0.500061 0.499895 0.813804 -0.000595
C53   C     C_R   0.499960 0.187280 0.499951 -0.139939
C54   C     C_R   0.999960 0.687280 0.499951 -0.139938
C55   C     C_R   0.500052 0.879916 0.500059 0.857657
C56   C     C_R   0.000052 0.379917 0.500059 0.857629
C57   C     C_R   0.418888 0.000195 0.418877 0.912844
C58   C     C_R   0.581108 0.000235 0.581123 0.909690
C59   C     C_R   0.918888 0.500196 0.418877 0.912787
C60   C     C_R   0.081107 0.500236 0.581123 0.909700
C61   C     C_R   0.499993 0.120718 0.499989 0.893246
C62   C     C_R   0.999992 0.620718 0.499989 0.893247
C63   C     C_R   0.999978 0.879896 0.499975 0.853170
C64   C     C_R   0.499978 0.379896 0.499975 0.853173
C65   C     C_R   0.999978 0.999820 0.379559 0.855853
C66   C     C_R   0.000021 0.999822 0.620440 0.855892
C67   C     C_R   0.499978 0.499820 0.379559 0.855846
C68   C     C_R   0.500022 0.499822 0.620440 0.855897
C69   C     C_R   0.000026 0.120417 0.500016 0.868298
C70   C     C_R   0.500026 0.620417 0.500016 0.868298
C71   C     C_R   0.528357 0.782289 0.490509 -0.186406
C72   C     C_R   0.471894 0.782181 0.509902 -0.186015
C73   C     C_R   0.028372 0.282291 0.490550 -0.186429
C74   C     C_R   0.971877 0.282183 0.509857 -0.185974
C75   C     C_R   0.028799 0.218356 0.491685 -0.185560
C76   C     C_R   0.971428 0.218257 0.508688 -0.185840
C77   C     C_R   0.528784 0.718354 0.491644 -0.185537
C78   C     C_R   0.471445 0.718256 0.508733 -0.185929
C79   C     C_3   0.224866 0.930971 0.225678 -0.395174
C80   C     C_3   0.775184 0.929922 0.772708 -0.448828
C81   C     C_3   0.724858 0.431052 0.221181 -0.395223
C82   C     C_3   0.275185 0.429901 0.773391 -0.448818
C83   C     C_R   0.000087 0.186611 0.500128 -0.015325
C84   C     C_R   0.500088 0.686610 0.500129 -0.015326
C85   C     C_R   0.500102 0.813843 0.500147 -0.003276
C86   C     C_R   0.000101 0.313844 0.500146 -0.003183
C87   C     C_R   0.505615 0.218922 0.449836 -0.174578
C88   C     C_R   0.494268 0.218888 0.550022 -0.174515
C89   C     C_R   0.005615 0.718922 0.449836 -0.174573
C90   C     C_R   0.994268 0.718888 0.550022 -0.174509
C91   C     C_R   0.005652 0.783138 0.448860 0.134640
C92   C     C_R   0.994199 0.783104 0.550962 0.134600
C93   C     C_R   0.505652 0.283137 0.448860 0.134639
C94   C     C_R   0.494199 0.283104 0.550962 0.134600
C95   C     C_R   0.999929 0.814201 0.499915 -0.127232
C96   C     C_R   0.499929 0.314201 0.499915 -0.127235
C97   C     C_3   0.225832 0.031920 0.284675 -0.398232
C98   C     C_3   0.774050 0.031864 0.715977 -0.395091
C99   C     C_3   0.725826 0.528025 0.286622 -0.398406
C100  C     C_3   0.274051 0.531295 0.715664 -0.395108
C101  C     C_3   0.274349 0.032596 0.332815 -0.395781
C102  C     C_3   0.725587 0.029758 0.666810 -0.402242
C103  C     C_3   0.774343 0.528721 0.334819 -0.395641
C104  C     C_3   0.225588 0.529187 0.666515 -0.402203
C105  C     C_1   0.374409 0.999544 0.374396 -0.187839
C106  C     C_1   0.625569 0.998994 0.625640 -0.196187
C107  C     C_1   0.874409 0.499526 0.374385 -0.187820
C108  C     C_1   0.125569 0.498993 0.625642 -0.196209
C109  C     C_3   0.208833 0.998559 0.209276 0.318262
C110  C     C_3   0.791135 0.997604 0.790719 0.334618
C111  C     C_3   0.708833 0.498523 0.209177 0.318276
C112  C     C_3   0.291136 0.497601 0.790739 0.334609
C113  C     C_3   0.273814 0.929344 0.274838 0.027419
C114  C     C_3   0.726320 0.927702 0.728392 0.026030
C115  C     C_3   0.773805 0.429408 0.270254 0.027538
C116  C     C_3   0.226321 0.427724 0.729084 0.026066
C117  C     C_3   0.291102 0.997275 0.292215 0.294229
C118  C     C_3   0.708816 0.995576 0.708297 0.317150
C119  C     C_3   0.791102 0.497187 0.292056 0.294237
C120  C     C_3   0.208816 0.495569 0.708329 0.317160
H1    H     H_    0.212977 0.906068 0.172168 0.151795
H2    H     H_    0.789008 0.903042 0.825527 0.157329
H3    H     H_    0.712976 0.408903 0.166141 0.151717
H4    H     H_    0.289006 0.403405 0.826472 0.157315
H5    H     H_    0.284335 0.907307 0.241376 0.148415
H6    H     H_    0.718966 0.908873 0.767866 0.157991
H7    H     H_    0.784334 0.410263 0.235466 0.148495
H8    H     H_    0.218962 0.409346 0.768732 0.157984
H9    H     H_    0.286527 0.078823 0.227019 0.182812
H10   H     H_    0.714439 0.079364 0.771134 0.183844
H11   H     H_    0.786550 0.582490 0.232304 0.182758
H12   H     H_    0.214433 0.579906 0.770347 0.183835
H13   H     H_    0.950247 0.067723 0.143188 0.140050
H14   H     H_    0.049767 0.067881 0.856808 0.140035
H15   H     H_    0.450248 0.567724 0.143189 0.140046
H16   H     H_    0.549766 0.567882 0.856808 0.140034
H17   H     H_    0.949632 0.066702 0.256099 0.143908
H18   H     H_    0.050386 0.066852 0.743898 0.143860
H19   H     H_    0.449632 0.566703 0.256100 0.143888
H20   H     H_    0.550385 0.566854 0.743897 0.143854
H21   H     H_    0.050328 0.933020 0.356911 0.142992
H22   H     H_    0.949652 0.932884 0.643081 0.142833
H23   H     H_    0.550328 0.433019 0.356910 0.142982
H24   H     H_    0.449653 0.432883 0.643082 0.142834
H25   H     H_    0.049597 0.931971 0.242729 0.139121
H26   H     H_    0.950379 0.931843 0.757260 0.138937
H27   H     H_    0.549597 0.431971 0.242729 0.139113
H28   H     H_    0.450380 0.431842 0.757261 0.138937
H29   H     H_    0.550332 0.807111 0.483367 0.140569
H30   H     H_    0.449947 0.806917 0.517115 0.139802
H31   H     H_    0.050359 0.307113 0.483441 0.140541
H32   H     H_    0.949917 0.306918 0.517036 0.139612
H33   H     H_    0.050888 0.193702 0.484786 0.144091
H34   H     H_    0.949340 0.193532 0.515599 0.144523
H35   H     H_    0.550860 0.693699 0.484712 0.144088
H36   H     H_    0.449369 0.693530 0.515677 0.144574
H37   H     H_    0.510152 0.192998 0.412148 0.178658
H38   H     H_    0.489743 0.192937 0.587724 0.178669
H39   H     H_    0.010153 0.692998 0.412148 0.178658
H40   H     H_    0.989743 0.692937 0.587724 0.178671
H41   H     H_    0.211682 0.906753 0.253598 0.176635
H42   H     H_    0.786592 0.908180 0.740572 0.166870
H43   H     H_    0.711661 0.404221 0.247421 0.176774
H44   H     H_    0.286599 0.407734 0.741478 0.166891
H45   H     H_    0.213934 0.080280 0.274359 0.172669
H46   H     H_    0.784806 0.080871 0.727120 0.172003
H47   H     H_    0.713932 0.576181 0.279450 0.172604
H48   H     H_    0.284809 0.580303 0.726328 0.172006
H49   H     H_    0.214530 0.008036 0.315876 0.165596
H50   H     H_    0.786360 0.010162 0.685252 0.166271
H51   H     H_    0.714515 0.501435 0.316167 0.165564
H52   H     H_    0.286361 0.509171 0.685154 0.166273
H53   H     H_    0.286541 0.011754 0.388522 0.162791
H54   H     H_    0.714551 0.007016 0.612600 0.162009
H55   H     H_    0.786526 0.505105 0.389075 0.162752
H56   H     H_    0.214552 0.506033 0.612527 0.162007
H57   H     H_    0.285593 0.081359 0.343032 0.174211
H58   H     H_    0.713260 0.077912 0.653390 0.171334
H59   H     H_    0.785593 0.577447 0.348212 0.174223
H60   H     H_    0.213262 0.577329 0.652632 0.171348
H61   H     H_    0.214043 0.008325 0.113614 0.169009
H62   H     H_    0.784979 0.004280 0.885494 0.170259
H63   H     H_    0.714062 0.514809 0.114384 0.168905
H64   H     H_    0.284977 0.505262 0.885442 0.170235
H65   H     H_    0.214808 0.080328 0.155747 0.176497
H66   H     H_    0.786126 0.077693 0.847829 0.175327
H67   H     H_    0.714832 0.583976 0.161117 0.176603
H68   H     H_    0.286121 0.578292 0.847054 0.175346
H69   H     H_    0.285830 0.006495 0.185774 0.167050
H70   H     H_    0.713177 0.008944 0.813583 0.167819
H71   H     H_    0.785849 0.512940 0.186443 0.167070
H72   H     H_    0.213175 0.509910 0.813479 0.167813
O1    O     O_R   0.999990 0.948250 0.091620 -0.623260
O2    O     O_R   0.000010 0.948250 0.908380 -0.623287
O3    O     O_R   0.499990 0.448250 0.091620 -0.623262
O4    O     O_R   0.500010 0.448250 0.908380 -0.623290
O5    O     O_R   0.965330 0.999890 0.373740 -0.622868
O6    O     O_R   0.034670 0.999890 0.626260 -0.622868
O7    O     O_R   0.465330 0.499890 0.373740 -0.622883
O8    O     O_R   0.534670 0.499890 0.626260 -0.622876
O9    O     O_R   0.034690 0.999930 0.443090 -0.626665
O10   O     O_R   0.965310 0.999930 0.556910 -0.626598
O11   O     O_R   0.534690 0.499930 0.443090 -0.626664
O12   O     O_R   0.465310 0.499930 0.556910 -0.626582
O13   O     O_R   0.965300 0.091560 0.465360 -0.622774
O14   O     O_R   0.034700 0.091560 0.534640 -0.622796
O15   O     O_R   0.465300 0.591560 0.465360 -0.622784
O16   O     O_R   0.534700 0.591560 0.534640 -0.622784
O17   O     O_R   0.999990 0.051750 0.091660 -0.622943
O18   O     O_R   0.000010 0.051750 0.908340 -0.622945
O19   O     O_R   0.499990 0.551750 0.091660 -0.622944
O20   O     O_R   0.500010 0.551750 0.908340 -0.622937
O21   O     O_R   0.061430 0.948250 0.061430 -0.618058
O22   O     O_R   0.938570 0.948250 0.938570 -0.617856
O23   O     O_R   0.561430 0.448250 0.061430 -0.618067
O24   O     O_R   0.438570 0.448250 0.938570 -0.617859
O25   O     O_R   0.061430 0.051750 0.061470 -0.617882
O26   O     O_R   0.938570 0.051750 0.938530 -0.617936
O27   O     O_R   0.561430 0.551750 0.061470 -0.617876
O28   O     O_R   0.438570 0.551750 0.938530 -0.617931
O29   O     O_R   0.500000 0.908530 0.551740 -0.623024
O30   O     O_R   0.500000 0.908530 0.448260 -0.622334
O31   O     O_R   0.000000 0.408530 0.551740 -0.623044
O32   O     O_R   0.000000 0.408530 0.448260 -0.622312
O33   O     O_R   0.438570 0.000200 0.490320 -0.621663
O34   O     O_R   0.561430 0.000200 0.509680 -0.618558
O35   O     O_R   0.938570 0.500200 0.490320 -0.621552
O36   O     O_R   0.061430 0.500200 0.509680 -0.618560
O37   O     O_R   0.438570 0.000170 0.386880 -0.615189
O38   O     O_R   0.561430 0.000170 0.613120 -0.615884
O39   O     O_R   0.938570 0.500170 0.386880 -0.615227
O40   O     O_R   0.061430 0.500170 0.613120 -0.615903
O41   O     O_R   0.500000 0.091870 0.551750 -0.630785
O42   O     O_R   0.500000 0.091870 0.448250 -0.630964
O43   O     O_R   1.000000 0.591870 0.551750 -0.630784
O44   O     O_R   0.000000 0.591870 0.448250 -0.630966
O45   O     O_R   0.965340 0.908230 0.465340 -0.624980
O46   O     O_R   0.034660 0.908230 0.534660 -0.624919
O47   O     O_R   0.465340 0.408230 0.465340 -0.624981
O48   O     O_R   0.534660 0.408230 0.534660 -0.624923
Zn1   Zn    Zn3+2 0.000000 0.930890 0.000000 0.950920
Zn2   Zn    Zn3+2 0.500000 0.430890 0.000000 0.950913
Zn3   Zn    Zn3+2 0.000000 0.069110 0.000000 0.951895
Zn4   Zn    Zn3+2 0.500000 0.569110 0.000000 0.951913
Zn5   Zn    Zn3+2 0.499990 0.000210 0.569090 0.947279
Zn6   Zn    Zn3+2 0.500010 0.000210 0.430910 0.949061
Zn7   Zn    Zn3+2 0.999990 0.500210 0.569090 0.947296
Zn8   Zn    Zn3+2 0.000010 0.500210 0.430910 0.949049
Zn9   Zn    Zn3+2 0.953690 0.999890 0.453720 0.943049
Zn10  Zn    Zn3+2 0.046310 0.999890 0.546280 0.942950
Zn11  Zn    Zn3+2 0.453690 0.499890 0.453720 0.943032
Zn12  Zn    Zn3+2 0.546310 0.499890 0.546280 0.942938
C121  C     C_3   0.290849 0.889233 0.346049 -0.405914
C122  C     C_3   0.282717 0.820266 0.327582 -0.902400
H73   H     H_    0.248600 0.810530 0.290447 0.261062
H74   H     H_    0.298157 0.804516 0.299738 0.259137
H75   H     H_    0.295853 0.793480 0.380103 0.254914
H76   H     H_    0.325265 0.895322 0.385344 0.216790
H77   H     H_    0.276263 0.903404 0.375952 0.213580
C123  C     C_3   0.706976 0.882535 0.660355 -0.400604
C124  C     C_3   0.670516 0.844494 0.649940 -0.897176
H78   H     H_    0.681475 0.815442 0.700142 0.255650
H79   H     H_    0.644681 0.874560 0.640270 0.266640
H80   H     H_    0.657992 0.813507 0.600749 0.252325
H81   H     H_    0.696036 0.907641 0.607646 0.213538
H82   H     H_    0.730773 0.848558 0.668289 0.209890
C125  C     C_3   0.790824 0.385875 0.338739 -0.406136
C126  C     C_3   0.782688 0.317723 0.315812 -0.901809
H83   H     H_    0.748571 0.308204 0.278041 0.260993
H84   H     H_    0.798135 0.304808 0.287046 0.259229
H85   H     H_    0.795816 0.288443 0.366505 0.254902
H86   H     H_    0.825239 0.391634 0.378433 0.216531
H87   H     H_    0.776228 0.397137 0.369452 0.213536
C127  C     C_3   0.206983 0.382090 0.661487 -0.400726
C128  C     C_3   0.170517 0.344308 0.651417 -0.897071
H88   H     H_    0.181466 0.315642 0.701899 0.255661
H89   H     H_    0.144678 0.374532 0.641433 0.266660
H90   H     H_    0.158001 0.312964 0.602534 0.252337
H91   H     H_    0.196053 0.406791 0.608541 0.213519
H92   H     H_    0.230782 0.347957 0.669764 0.209912
C129  C     C_3   0.011540 0.819878 0.394847 -0.393829
C130  C     C_3   0.015907 0.782020 0.339731 -0.901184
H93   H     H_    0.044282 0.752349 0.370232 0.257802
H94   H     H_    0.987516 0.753199 0.303637 0.263877
H95   H     H_    0.019303 0.813880 0.303085 0.257616
H96   H     H_    0.984248 0.851259 0.361472 0.207980
H97   H     H_    0.040088 0.849018 0.428101 0.209304
C131  C     C_3   0.988294 0.819809 0.604955 -0.393745
C132  C     C_3   0.983881 0.781920 0.660015 -0.901524
H98   H     H_    0.955509 0.752148 0.629467 0.257751
H99   H     H_    0.012267 0.753200 0.696154 0.263898
H100  H     H_    0.980452 0.813757 0.696623 0.257546
H101  H     H_    0.015593 0.851265 0.638371 0.207988
H102  H     H_    0.959757 0.848871 0.571684 0.209250
C133  C     C_3   0.511540 0.319878 0.394847 -0.393828
C134  C     C_3   0.515906 0.282020 0.339730 -0.901202
H103  H     H_    0.544282 0.252349 0.370231 0.257794
H104  H     H_    0.487516 0.253199 0.303637 0.263882
H105  H     H_    0.519302 0.313880 0.303084 0.257614
H106  H     H_    0.484247 0.351260 0.361472 0.207981
H107  H     H_    0.540088 0.349018 0.428100 0.209298
C135  C     C_3   0.488294 0.319809 0.604955 -0.393746
C136  C     C_3   0.483881 0.281920 0.660016 -0.901530
H108  H     H_    0.455509 0.252148 0.629467 0.257746
H109  H     H_    0.512267 0.253200 0.696154 0.263900
H110  H     H_    0.480452 0.313757 0.696623 0.257547
H111  H     H_    0.515593 0.351265 0.638371 0.207987
H112  H     H_    0.459757 0.348871 0.571684 0.209250

loop_
_geom_bond_atom_site_label_1
_geom_bond_atom_site_label_2
_ccdc_geom_bond_type
C99   C103  S    
C30   H18   S    
C81   H43   S    
C74   H32   S    
C136  H109  S    
C79   H1    S    
C69   O14   A    
C98   C110  S    
C26   C50   A    
C135  H112  S    
C100  C104  S    
C127  C128  S    
C122  H74   S    
C121  H76   S    
C45   O21   A    
C131  H102  S    
C70   C84   S    
C58   O34   A    
C28   H16   S    
O24   Zn2   S    
C73   C75   A    
C79   H41   S    
C76   C83   A    
C82   H4    S    
C99   H47   S    
C25   C29   A    
C79   C109  S    
C27   C31   A    
C7    C119  S    
C28   C32   A    
C98   C102  S    
C3    O3    A    
C19   C23   T    
C125  H86   S    
C90   C92   A    
C136  H108  S    
O5    Zn9   S    
C130  H93   S    
C94   C96   A    
C134  H103  S    
O3    Zn2   S    
C126  H84   S    
C10   H62   S    
C123  H82   S    
C75   C83   A    
C56   O32   A    
C129  H96   S    
C4    O4    A    
C125  H87   S    
O19   Zn4   S    
C17   C109  S    
C63   O45   A    
C36   C68   S    
C19   C111  S    
C77   C84   A    
C97   H49   S    
C5    H69   S    
O41   Zn5   S    
C82   H44   S    
C8    H72   S    
O14   Zn10  S    
C64   O48   A    
C67   O11   A    
C116  C120  S    
O42   Zn6   S    
C29   C33   A    
C100  H52   S    
C61   O41   A    
O44   Zn8   S    
C101  H53   S    
C6    H10   S    
C59   O39   A    
C34   C66   S    
C72   C85   A    
C104  H56   S    
C71   H29   S    
C74   C76   A    
C81   H3    S    
C58   O38   A    
C32   C36   A    
C54   C90   A    
C16   C120  S    
C124  H78   S    
C114  H6    S    
O16   Zn12  S    
C72   C78   A    
C2    C50   S    
C53   C61   S    
C134  H105  S    
C89   C91   A    
C57   O33   A    
C44   C52   A    
O46   Zn10  S    
C81   C115  S    
C27   C51   A    
C89   H39   S    
C21   C45   S    
C3    O19   A    
C88   C94   A    
C23   C47   S    
C30   C34   A    
C1    O17   A    
C127  H91   S    
C24   C48   S    
C128  H90   S    
O13   Zn9   S    
C64   C96   S    
C122  H75   S    
O31   Zn7   S    
C70   O15   A    
C59   C107  S    
C87   H37   S    
C60   O36   A    
C5    C9    S    
C26   H14   S    
C97   C109  S    
C75   H33   S    
C35   C67   S    
C8    C12   S    
C99   C111  S    
C132  H98   S    
C53   C87   A    
C66   O6    A    
C80   H42   S    
C98   H46   S    
C42   C50   A    
C55   O30   A    
C113  C117  S    
C26   C30   A    
C115  C119  S    
C79   C113  S    
C102  H58   S    
C71   C77   A    
C25   H13   S    
O23   Zn2   S    
C62   O43   A    
C18   C22   T    
O1    Zn1   S    
C39   H23   S    
C123  C124  S    
C56   O31   A    
C125  C126  S    
O36   Zn8   S    
C69   O13   A    
C27   H15   S    
C77   H35   S    
C78   H36   S    
C87   C93   A    
C72   H30   S    
C76   H34   S    
C10   H66   S    
C15   C119  S    
C91   C129  S    
C37   C41   A    
C9    H61   S    
O35   Zn7   S    
C66   O10   A    
C40   C44   A    
O10   Zn9   S    
C130  H95   S    
O15   Zn11  S    
C46   O26   A    
O2    Zn1   S    
C128  H88   S    
C12   C112  S    
O17   Zn3   S    
C80   H2    S    
C37   H21   S    
C94   C135  S    
O18   Zn3   S    
C32   H20   S    
C67   O7    A    
C68   O12   A    
C63   C95   S    
C132  H100  S    
O27   Zn4   S    
C93   C133  S    
C15   C107  T    
C20   C112  S    
O12   Zn11  S    
O32   Zn8   S    
C47   O23   A    
C59   O35   A    
C7    H11   S    
C60   C108  S    
C133  H107  S    
C134  H104  S    
C7    H71   S    
C115  C125  S    
O34   Zn6   S    
C136  H110  S    
C9    C109  S    
C113  C121  S    
C11   C111  S    
C13   C105  T    
C133  C134  S    
C3    C51   S    
C54   C62   S    
C135  H111  S    
C33   C37   A    
O4    Zn2   S    
C2    O2    A    
C82   C112  S    
C55   C85   S    
C35   C39   A    
C122  H73   S    
C124  H80   S    
C57   O37   A    
C121  H77   S    
C103  H55   S    
C131  H101  S    
O38   Zn5   S    
C22   C46   S    
C100  C112  S    
C11   H67   S    
C5    H9    S    
C42   H26   S    
C48   O28   A    
C60   O40   A    
C130  H94   S    
C18   C110  S    
C6    C10   S    
C13   C117  S    
C133  H106  S    
C29   H17   S    
C100  H48   S    
C101  C117  S    
O21   Zn1   S    
C82   C116  S    
O8    Zn12  S    
O30   Zn6   S    
C43   C51   A    
C121  C122  S    
C97   H45   S    
C10   C110  S    
C103  H59   S    
C90   H40   S    
C25   C49   A    
C101  H57   S    
C14   C106  T    
C41   H25   S    
C126  H83   S    
C123  H81   S    
C114  C123  S    
C99   H51   S    
C104  C120  S    
C17   C21   T    
C129  H97   S    
C57   C105  S    
C48   O24   A    
C45   O25   A    
C1    O1    A    
O39   Zn8   S    
C92   C131  S    
C63   O46   A    
C33   C65   S    
C12   H64   S    
C7    C11   S    
O28   Zn4   S    
C4    C52   S    
O22   Zn1   S    
C127  H92   S    
C128  H89   S    
C38   C42   A    
C9    H65   S    
C113  H5    S    
C70   O16   A    
C12   H68   S    
C115  H7    S    
O6    Zn10  S    
C64   O47   A    
C44   H28   S    
C71   C85   A    
C56   C86   S    
C41   C49   A    
C81   C111  S    
C46   O22   A    
C8    H12   S    
C102  C118  S    
C55   O29   A    
C73   H31   S    
C61   O42   A    
C38   H22   S    
O45   Zn9   S    
O43   Zn7   S    
O33   Zn5   S    
C2    O18   A    
C62   O44   A    
O47   Zn11  S    
C20   C24   T    
C36   C40   A    
C11   H63   S    
C54   C89   A    
C124  H79   S    
C39   C43   A    
C14   C118  S    
C129  C130  S    
C47   O27   A    
C92   C95   A    
C5    C117  S    
C58   C106  S    
C98   H50   S    
O25   Zn3   S    
C69   C83   S    
C126  H85   S    
C6    H70   S    
O26   Zn3   S    
C74   C86   A    
C116  C127  S    
C114  C118  S    
C65   O5    A    
O37   Zn6   S    
O7    Zn11  S    
C80   C114  S    
C93   C96   A    
C40   H24   S    
C31   H19   S    
C8    C120  S    
C135  C136  S    
C34   C38   A    
C103  C119  S    
O48   Zn12  S    
C102  H54   S    
C4    O20   A    
C68   O8    A    
O40   Zn7   S    
C131  C132  S    
O20   Zn4   S    
C28   C52   A    
C104  H60   S    
O29   Zn5   S    
C132  H99   S    
C53   C88   A    
C31   C35   A    
C73   C86   A    
C43   H27   S    
C16   C108  T    
C88   H38   S    
O11   Zn12  S    
C78   C84   A    
C65   O9    A    
C91   C95   A    
O9    Zn10  S    
C116  H8    S    
C80   C110  S    
C1    C49   S    
C6    C118  S    
C97   C101  S    
