data_mof_unit_64945.cif
_audit_creation_date              2012-10-26T21:09:02-0400
_audit_creation_method            fapswitch 2.2
_symmetry_space_group_name_H-M    P1
_symmetry_Int_Tables_number       1
_space_group_crystal_system       triclinic
_cell_length_a                    15.450077
_cell_length_b                    15.48387
_cell_length_c                    9.731919
_cell_angle_alpha                 90.000422
_cell_angle_beta                  89.700941
_cell_angle_gamma                 90.002221
_cell_volume                      2328.10591309

loop_
_atom_site_label
_atom_site_type_symbol
_atom_type_description
_atom_site_fract_x
_atom_site_fract_y
_atom_site_fract_z
_atom_type_partial_charge
C1    C     C_R   0.381943 0.883527 0.500232 0.556033
C2    C     C_2   0.714518 0.218904 0.387329 -0.152938
C3    C     C_2   0.218570 0.285123 0.387268 -0.153019
C4    C     C_2   0.214750 0.718646 0.387202 -0.154520
C5    C     C_2   0.679406 0.812927 0.502123 -0.111475
C6    C     C_2   0.687030 0.179504 0.502042 -0.111368
C7    C     C_2   0.179409 0.312924 0.502130 -0.111881
C8    C     C_2   0.187011 0.679519 0.502019 -0.110894
C9    C     C_2   0.282784 0.215410 0.387497 -0.156389
C10   C     C_2   0.284381 0.783000 0.387397 -0.159535
C11   C     C_2   0.782433 0.715056 0.387453 -0.157539
C12   C     C_R   0.383456 0.117979 0.500230 0.557731
C13   C     C_2   0.784223 0.283153 0.387466 -0.157885
C14   C     C_2   0.320413 0.186958 0.502760 -0.108632
C15   C     C_2   0.312841 0.820579 0.502763 -0.110432
C16   C     C_2   0.820321 0.686874 0.502689 -0.108697
C17   C     C_2   0.812814 0.320612 0.502827 -0.110277
C18   C     C_2   0.429057 0.997791 0.921667 0.339902
C19   C     C_2   0.929082 0.502823 0.921673 0.340099
C20   C     C_2   0.432715 0.981943 0.075892 -0.038740
C21   C     C_2   0.932901 0.518720 0.075883 -0.038211
C22   C     C_1   0.558325 0.060062 0.103356 0.359467
C23   C     C_R   0.881944 0.383527 0.500244 0.557824
C24   C     C_1   0.057474 0.439086 0.103436 0.359613
C25   C     C_R   0.883423 0.617948 0.500218 0.556028
C26   C     C_R   0.617986 0.116534 0.499920 0.551852
C27   C     C_R   0.616522 0.882013 0.499932 0.550483
C28   C     C_R   0.117998 0.616519 0.499916 0.550378
C29   C     C_R   0.116534 0.382022 0.499934 0.551763
C30   C     C_2   0.718153 0.784730 0.387141 -0.154572
Cu1   Cu    Cu3+1 0.500020 1.000000 0.638630 1.029409
Cu2   Cu    Cu3+1 0.000020 0.500000 0.638630 1.029402
Cu3   Cu    Cu3+1 0.499980 1.000000 0.361370 0.966048
Cu4   Cu    Cu3+1 0.999980 0.500000 0.361370 0.966141
H1    H     H_    0.701655 0.812450 0.288128 0.154236
H2    H     H_    0.311861 0.800562 0.288279 0.147534
H3    H     H_    0.799747 0.687358 0.288488 0.145711
H4    H     H_    0.811610 0.300773 0.288312 0.160602
H5    H     H_    0.307209 0.214999 0.602482 0.115729
H6    H     H_    0.284762 0.807356 0.602606 0.111567
H7    H     H_    0.807278 0.715066 0.602347 0.108080
H8    H     H_    0.784776 0.307338 0.602692 0.119230
H9    H     H_    0.554830 0.977524 0.890418 0.183535
H10   H     H_    0.055050 0.521883 0.890482 0.183306
H11   H     H_    0.375813 0.954307 0.124603 0.115549
H12   H     H_    0.686226 0.202966 0.288627 0.177640
H13   H     H_    0.876300 0.546993 0.124533 0.114877
H14   H     H_    0.304181 0.004381 0.928764 0.292264
H15   H     H_    0.804162 0.497250 0.928813 0.292248
H16   H     H_    0.202501 0.313208 0.288399 0.177414
H17   H     H_    0.186721 0.702372 0.288381 0.153788
H18   H     H_    0.691710 0.784665 0.601758 0.105425
H19   H     H_    0.715848 0.191374 0.601320 0.112767
H20   H     H_    0.191381 0.284325 0.601633 0.114417
H21   H     H_    0.215578 0.691640 0.601397 0.104317
H22   H     H_    0.300290 0.187938 0.288457 0.159154
N1    N     N_2   0.498660 1.000000 0.846910 -0.290954
N2    N     N_2   0.998660 0.500000 0.846910 -0.290910
N3    N     N_2   0.498630 1.000000 0.153040 -0.288934
N4    N     N_2   0.998630 0.500000 0.153040 -0.289047
N5    N     N_1   0.607922 0.110047 0.062552 -0.338415
N6    N     N_1   0.106346 0.388382 0.062692 -0.338130
O1    O     O_R   0.410990 0.910970 0.617040 -0.455732
O2    O     O_R   0.589050 0.910970 0.617100 -0.513096
O3    O     O_R   0.089050 0.589030 0.617100 -0.513050
O4    O     O_R   0.089050 0.410970 0.617100 -0.493960
O5    O     O_R   0.589010 0.089030 0.382960 -0.496512
O6    O     O_R   0.589010 0.910970 0.382960 -0.496936
O7    O     O_R   0.089010 0.589030 0.382960 -0.497245
O8    O     O_R   0.089010 0.410970 0.382960 -0.496314
O9    O     O_3   0.350196 0.006809 0.857521 -0.647073
O10   O     O_3   0.850144 0.494402 0.857556 -0.647283
O11   O     O_R   0.410990 0.089030 0.617040 -0.437949
O12   O     O_R   0.910990 0.410970 0.617040 -0.438768
O13   O     O_R   0.910990 0.589030 0.617040 -0.454817
O14   O     O_R   0.410950 0.910970 0.382900 -0.514384
O15   O     O_R   0.410950 0.089030 0.382900 -0.508594
O16   O     O_R   0.910950 0.410970 0.382900 -0.508120
O17   O     O_R   0.910950 0.589030 0.382900 -0.514622
O18   O     O_R   0.589050 0.089030 0.617100 -0.493716

loop_
_geom_bond_atom_site_label_1
_geom_bond_atom_site_label_2
_ccdc_geom_bond_type
C7    C29   S    
C28   O7    A    
Cu2   N2    S    
C4    C8    D    
Cu2   O13   S    
Cu1   O18   S    
C2    H12   S    
C17   C23   S    
C30   H1    S    
C26   O5    A    
C19   C21   S    
C5    C30   D    
C3    C7    D    
C10   C15   D    
Cu2   O12   S    
Cu1   O11   S    
C16   C25   S    
C11   H3    S    
C2    C13   S    
C17   H8    S    
C27   O6    A    
C18   N1    D    
C14   H5    S    
C5    C27   S    
C11   C30   S    
H10   N2    S    
H15   O10   S    
Cu1   Cu3   S    
C5    H18   S    
C1    C15   S    
Cu4   O8    S    
C20   H11   S    
Cu3   N3    S    
C12   O11   A    
Cu4   N4    S    
C19   O10   S    
C2    C6    D    
C1    O1    A    
C8    H21   S    
C3    H16   S    
C19   N2    D    
C4    H17   S    
Cu1   O1    S    
C21   N4    D    
C22   N3    S    
C26   O18   A    
C23   O12   A    
C25   O13   A    
Cu2   Cu4   S    
C9    C14   D    
C3    C9    S    
Cu4   O17   S    
C11   C16   D    
Cu3   O14   S    
C24   N4    S    
C12   O15   A    
C9    H22   S    
C20   N3    D    
Cu4   O7    S    
C13   H4    S    
C12   C14   S    
C8    C28   S    
C6    H19   S    
C4    C10   S    
Cu3   O5    S    
Cu2   O4    S    
C29   O8    A    
C18   O9    S    
C24   N6    T    
C25   O17   A    
C1    O14   A    
Cu1   O2    S    
C13   C17   D    
Cu1   N1    S    
C28   O3    A    
Cu4   O16   S    
C22   N5    T    
Cu3   O15   S    
C6    C26   S    
C18   C20   S    
C23   O16   A    
C15   H6    S    
C27   O2    A    
H9    N1    S    
C29   O4    A    
C10   H2    S    
H14   O9    S    
C7    H20   S    
C16   H7    S    
Cu3   O6    S    
Cu2   O3    S    
C21   H13   S    
