data_mof_unit_31718.cif
_audit_creation_date              2012-12-10T19:46:54-0500
_audit_creation_method            fapswitch 2.2
_symmetry_space_group_name_H-M    P1
_symmetry_Int_Tables_number       1
_space_group_crystal_system       triclinic
_cell_length_a                    10.998504
_cell_length_b                    11.020363
_cell_length_c                    13.076668
_cell_angle_alpha                 90.031809
_cell_angle_beta                  89.825395
_cell_angle_gamma                 89.306921
_cell_volume                      1584.86672417

loop_
_atom_site_label
_atom_site_type_symbol
_atom_type_description
_atom_site_fract_x
_atom_site_fract_y
_atom_site_fract_z
_atom_type_partial_charge
C1    C     C_R   0.504159 0.259456 0.499734 0.853286
C2    C     C_R   0.500717 0.740576 0.500072 0.825013
C3    C     C_R   0.873142 0.511140 0.498785 -0.151377
C4    C     C_R   0.126853 0.527895 0.501629 -0.162814
C5    C     C_R   0.939152 0.480318 0.587883 -0.056689
C6    C     C_R   0.062431 0.555059 0.410375 -0.064169
C7    C     C_R   0.294753 0.205630 0.190781 -0.158908
C8    C     C_R   0.776040 0.779972 0.761190 -0.166312
C9    C     C_R   0.321760 0.163386 0.289030 -0.139575
C10   C     C_R   0.725222 0.832619 0.673760 -0.147531
C11   C     C_R   0.441079 0.127021 0.313167 0.171325
C12   C     C_R   0.602459 0.868829 0.673715 0.157706
C13   C     C_R   0.533515 0.138479 0.239599 -0.122642
C14   C     C_R   0.530781 0.850325 0.761259 -0.112527
C15   C     C_R   0.506561 0.184121 0.142473 -0.142107
C16   C     C_R   0.581684 0.796274 0.848070 -0.137914
C17   C     C_R   0.387016 0.216538 0.117769 -0.111258
C18   C     C_R   0.704283 0.761295 0.848114 -0.126275
C19   C     C_R   0.459354 0.937324 0.413547 0.110370
C20   C     C_R   0.552430 0.062954 0.585403 0.104737
C21   C     C_R   0.503366 0.873177 0.499798 -0.155477
C22   C     C_R   0.507942 0.126856 0.498887 -0.161951
C23   C     C_R   0.260103 0.515297 0.500376 0.826736
C24   C     C_R   0.740910 0.499252 0.499600 0.832565
C25   C     C_R   0.551450 0.935622 0.584867 -0.050908
C26   C     C_R   0.467884 0.063786 0.411052 -0.055339
C27   C     C_1   0.500583 0.500304 0.173480 0.152872
C28   C     C_1   0.500128 0.499877 0.826521 0.121171
C29   C     C_1   0.500758 0.500364 0.050682 -0.102973
C30   C     C_1   0.500414 0.500116 0.949309 -0.129610
C31   C     C_R   0.189242 0.729411 0.185767 -0.146518
C32   C     C_R   0.896120 0.198120 0.747355 -0.153669
C33   C     C_R   0.143991 0.703378 0.283305 -0.184525
C34   C     C_R   0.926204 0.274753 0.666172 -0.175821
C35   C     C_R   0.126663 0.582612 0.313363 0.143516
C36   C     C_R   0.889989 0.397477 0.667542 0.110880
C37   C     C_R   0.152249 0.488644 0.243979 -0.104510
C38   C     C_R   0.823257 0.442088 0.751582 -0.111108
C39   C     C_R   0.198145 0.514906 0.146741 -0.138387
C40   C     C_R   0.792712 0.365076 0.832377 -0.151195
C41   C     C_R   0.217365 0.635216 0.117944 -0.118082
C42   C     C_R   0.829335 0.243282 0.830412 -0.125061
C43   C     C_R   0.934293 0.558434 0.411419 0.039492
C44   C     C_R   0.061840 0.510767 0.594213 0.047103
Cu1   Cu    Cu3+1 0.499990 0.499990 0.592680 0.966467
Cu2   Cu    Cu3+1 0.500010 0.500010 0.407320 0.972395
H1    H     H_    0.253029 0.655517 0.042814 0.134140
H2    H     H_    0.805996 0.183914 0.893202 0.125159
H3    H     H_    0.625708 0.109875 0.256989 0.109284
H4    H     H_    0.436276 0.879050 0.762399 0.116421
H5    H     H_    0.577912 0.192439 0.085801 0.123466
H6    H     H_    0.526294 0.782146 0.915484 0.130580
H7    H     H_    0.201299 0.822637 0.162311 0.131840
H8    H     H_    0.924623 0.103773 0.745911 0.134157
H9    H     H_    0.118828 0.777083 0.334261 0.118333
H10   H     H_    0.980139 0.239249 0.603230 0.125142
H11   H     H_    0.133892 0.395803 0.265089 0.111016
H12   H     H_    0.797567 0.536669 0.755495 0.145185
H13   H     H_    0.217700 0.442335 0.093228 0.126032
H14   H     H_    0.742372 0.400236 0.897336 0.133517
H15   H     H_    0.365768 0.249594 0.041896 0.125062
H16   H     H_    0.743693 0.719721 0.915473 0.124461
H17   H     H_    0.201900 0.227766 0.170463 0.113715
H18   H     H_    0.871017 0.753364 0.761605 0.126101
H19   H     H_    0.249266 0.153221 0.344487 0.110191
H20   H     H_    0.781751 0.847581 0.607077 0.107194
N1    N     N_1   0.500030 0.500030 0.268070 -0.134703
N2    N     N_1   0.499970 0.499970 0.731930 -0.132438
O1    O     O_R   0.499980 0.319630 0.578260 -0.576599
O2    O     O_R   0.500020 0.680370 0.421740 -0.577159
O3    O     O_R   0.500000 0.319650 0.421740 -0.572325
O4    O     O_R   0.500000 0.680350 0.578260 -0.578811
O5    O     O_R   0.319630 0.500000 0.578260 -0.587818
O6    O     O_R   0.680370 0.500000 0.421740 -0.590834
O7    O     O_R   0.319650 0.500020 0.421740 -0.562816
O8    O     O_R   0.680350 0.499980 0.578260 -0.573913
C45   C     C_3   0.399367 0.870885 0.325600 -0.813805
H21   H     H_    0.345577 0.929167 0.273641 0.218046
H22   H     H_    0.468552 0.822750 0.278441 0.248175
H23   H     H_    0.333823 0.805980 0.357637 0.232853
C46   C     C_3   0.605542 0.130785 0.676160 -0.795786
H24   H     H_    0.656475 0.073268 0.730900 0.226288
H25   H     H_    0.671498 0.198680 0.648443 0.247335
H26   H     H_    0.531538 0.176261 0.720178 0.238744
C47   C     C_3   0.865263 0.613801 0.320058 -0.371909
C48   C     C_3   0.807904 0.737009 0.348755 -0.316866
C49   C     C_3   0.737762 0.791757 0.259153 -0.847338
H27   H     H_    0.800069 0.808796 0.193830 0.242800
H28   H     H_    0.665114 0.729266 0.234259 0.258776
H29   H     H_    0.695473 0.879347 0.282937 0.240051
H30   H     H_    0.745402 0.727824 0.414871 0.219851
H31   H     H_    0.880808 0.800594 0.371354 0.198356
H32   H     H_    0.923399 0.629551 0.252493 0.197634
H33   H     H_    0.798526 0.550165 0.287796 0.212289
C50   C     C_3   0.117676 0.530582 0.700079 -0.360029
C51   C     C_3   0.157206 0.663170 0.713528 -0.330227
C52   C     C_3   0.198281 0.688102 0.822773 -0.883039
H34   H     H_    0.121961 0.673921 0.877142 0.247524
H35   H     H_    0.275266 0.627087 0.843435 0.260523
H36   H     H_    0.228469 0.783551 0.829378 0.235334
H37   H     H_    0.232696 0.685550 0.660639 0.229453
H38   H     H_    0.079582 0.724930 0.695463 0.200607
H39   H     H_    0.050991 0.513088 0.761754 0.194922
H40   H     H_    0.192759 0.465346 0.715739 0.215454

loop_
_geom_bond_atom_site_label_1
_geom_bond_atom_site_label_2
_ccdc_geom_bond_type
C33   H9    S    
C49   H27   S    
C34   H10   S    
C40   H14   S    
C51   H38   S    
C27   C29   S    
C50   C51   S    
C52   H36   S    
C46   H24   S    
C39   C41   A    
C45   H21   S    
C3    C43   A    
C1    O3    A    
C10   H20   S    
Cu1   O8    S    
C35   C37   A    
C23   O5    A    
C48   H30   S    
C47   C48   S    
C20   C25   A    
C5    C36   S    
C6    C35   S    
Cu1   O5    S    
C19   C45   S    
C19   C26   A    
C20   C46   S    
C17   H15   S    
C38   H12   S    
C47   H32   S    
C7    C17   A    
C31   C33   A    
C15   H5    S    
C40   C42   A    
C1    C22   S    
C51   H37   S    
C1    O1    A    
Cu1   O4    S    
C3    C24   S    
C2    C21   S    
C2    O4    A    
C32   H8    S    
Cu2   O7    S    
C52   H35   S    
C50   H39   S    
C52   H34   S    
C45   H22   S    
Cu1   O1    S    
C43   C47   S    
C4    C6    A    
C23   O7    A    
C4    C23   S    
C48   C49   S    
C24   O8    A    
C4    C44   A    
C11   C26   S    
Cu1   Cu2   S    
C8    C18   A    
C32   C34   A    
C29   C30   T    
C47   H33   S    
C39   H13   S    
C51   C52   S    
Cu1   N2    S    
C41   H1    S    
C42   H2    S    
C31   H7    S    
C9    C11   A    
C7    H17   S    
Cu2   O3    S    
C10   C12   A    
C8    H18   S    
C13   H3    S    
C16   C18   A    
C5    C44   A    
C20   C22   A    
C6    C43   A    
C13   C15   A    
C14   C16   A    
Cu2   O6    S    
C46   H26   S    
C50   H40   S    
C45   H23   S    
C15   C17   A    
C21   C25   A    
C31   C41   A    
C28   N2    T    
C18   H16   S    
C16   H6    S    
C12   C14   A    
C3    C5    A    
C46   H25   S    
C12   C25   S    
C28   C30   S    
Cu2   N1    S    
C37   C39   A    
C44   C50   S    
C48   H31   S    
C38   C40   A    
C11   C13   A    
C24   O6    A    
C14   H4    S    
C36   C38   A    
C33   C35   A    
C34   C36   A    
C9    H19   S    
Cu2   O2    S    
C27   N1    T    
C7    C9    A    
C8    C10   A    
C22   C26   A    
C49   H29   S    
C49   H28   S    
C32   C42   A    
C2    O2    A    
C37   H11   S    
C19   C21   A    
