data_mof_unit_55022.cif
_audit_creation_date              2012-10-26T21:33:01-0400
_audit_creation_method            fapswitch 2.2
_symmetry_space_group_name_H-M    P1
_symmetry_Int_Tables_number       1
_space_group_crystal_system       triclinic
_cell_length_a                    28.286599
_cell_length_b                    18.473079
_cell_length_c                    17.069347
_cell_angle_alpha                 89.994584
_cell_angle_beta                  60.729911
_cell_angle_gamma                 89.988174
_cell_volume                      7780.63524005

loop_
_atom_site_label
_atom_site_type_symbol
_atom_type_description
_atom_site_fract_x
_atom_site_fract_y
_atom_site_fract_z
_atom_type_partial_charge
C1    C     C_R   0.701875 0.268797 0.675808 0.910103
C2    C     C_R   0.968356 0.631834 0.442457 -0.225145
C3    C     C_R   0.073992 0.900365 0.933958 0.910226
C4    C     C_R   0.573976 0.599654 0.933965 0.910551
C5    C     C_R   0.425983 0.400398 0.066066 0.910237
C6    C     C_R   0.426028 0.599659 0.066027 0.910076
C7    C     C_R   0.573950 0.400313 0.933990 0.910573
C8    C     C_R   0.547194 0.998680 0.508508 0.016035
C9    C     C_R   0.452810 0.001322 0.491478 0.016053
C10   C     C_R   0.058289 0.501946 0.473167 0.019685
C11   C     C_R   0.969487 0.501190 0.440808 0.019977
C12   C     C_R   0.537183 0.058491 0.466159 0.050497
C13   C     C_R   0.977686 0.371962 0.415160 -0.217792
C14   C     C_R   0.462821 0.941511 0.533827 0.050480
C15   C     C_R   0.489069 0.060648 0.459445 0.047841
C16   C     C_R   0.510935 0.939354 0.540540 0.047823
C17   C     C_R   0.028967 0.566201 0.483120 0.047801
C18   C     C_R   0.998052 0.436288 0.431943 0.048900
C19   C     C_R   0.988704 0.567075 0.456839 0.049807
C20   C     C_R   0.045660 0.438297 0.440543 0.050057
C21   C     C_R   0.608425 0.936388 0.551082 0.078097
C22   C     C_R   0.391578 0.063613 0.448906 0.077837
C23   C     C_R   0.371498 0.941251 0.506733 0.062496
C24   C     C_R   0.038922 0.626603 0.523208 -0.223052
C25   C     C_R   0.628505 0.058751 0.493256 0.062539
C26   C     C_R   0.132308 0.438928 0.480482 0.062655
C27   C     C_R   0.895837 0.566603 0.434830 0.068471
C28   C     C_R   0.897366 0.434618 0.430306 0.071738
C29   C     C_R   0.113465 0.564441 0.528242 0.078004
C30   C     C_R   0.658903 0.935686 0.550718 -0.135243
C31   C     C_R   0.341099 0.064315 0.449272 -0.135385
C32   C     C_R   0.330541 0.938425 0.481514 -0.120448
C33   C     C_R   0.669461 0.061576 0.518477 -0.120389
C34   C     C_R   0.170536 0.437501 0.512312 -0.114671
C35   C     C_R   0.524734 0.879274 0.576939 -0.212858
C36   C     C_R   0.843020 0.565246 0.443333 -0.127334
C37   C     C_R   0.843598 0.435096 0.441908 -0.129070
C38   C     C_R   0.160189 0.564099 0.540316 -0.130819
C39   C     C_R   0.684588 0.999871 0.545696 -0.295978
C40   C     C_R   0.315415 0.000129 0.454295 -0.296136
C41   C     C_R   0.184008 0.499754 0.540983 -0.304723
C42   C     C_R   0.818896 0.500094 0.444146 -0.300027
C43   C     C_R   0.594280 0.998113 0.518395 0.076418
C44   C     C_R   0.405723 0.001888 0.481592 0.076386
C45   C     C_R   0.100991 0.501610 0.494683 0.071830
C46   C     C_R   0.475270 0.120727 0.423045 -0.213004
C47   C     C_R   0.921011 0.500713 0.434763 0.074873
C48   C     C_R   0.125076 0.381010 0.433346 -0.179401
C49   C     C_R   0.924984 0.631058 0.425931 -0.178765
C50   C     C_R   0.928760 0.371292 0.413761 -0.185698
C51   C     C_R   0.079276 0.625000 0.547469 -0.174580
C52   C     C_R   0.572417 0.877863 0.581770 -0.182149
C53   C     C_R   0.427586 0.122139 0.418217 -0.181904
C54   C     C_R   0.378412 0.886963 0.557834 -0.179485
C55   C     C_R   0.621592 0.113040 0.442157 -0.179405
C56   C     C_R   0.423039 0.886918 0.570906 -0.214936
C57   C     C_R   0.576964 0.113085 0.429083 -0.214951
C58   C     C_R   0.720521 0.265750 0.954079 0.116361
C59   C     C_R   0.279301 0.733978 0.046103 0.116532
C60   C     C_R   0.278800 0.266836 0.046597 0.115960
C61   C     C_R   0.298104 0.731163 0.324206 0.908930
C62   C     C_R   0.720778 0.733828 0.953829 0.116628
C63   C     C_R   0.221009 0.766520 0.953591 0.115679
C64   C     C_R   0.778842 0.233252 0.046561 0.115710
C65   C     C_R   0.779169 0.766264 0.046223 0.116484
C66   C     C_R   0.220503 0.234253 0.954100 0.116541
C67   C     C_R   0.744305 0.197332 0.945791 -0.180320
C68   C     C_R   0.255546 0.802410 0.054364 -0.181047
C69   C     C_R   0.255017 0.198427 0.054940 -0.182651
C70   C     C_R   0.744568 0.802228 0.945534 -0.180759
C71   C     C_R   0.244773 0.698095 0.945317 -0.182764
C72   C     C_R   0.298049 0.268950 0.324238 0.865271
C73   C     C_R   0.755034 0.301653 0.054882 -0.182369
C74   C     C_R   0.755378 0.697865 0.054520 -0.180112
C75   C     C_R   0.244259 0.302682 0.945794 -0.179817
C76   C     C_R   0.772915 0.181262 0.991489 -0.177574
C77   C     C_R   0.226951 0.818501 0.008652 -0.178487
C78   C     C_R   0.226428 0.182315 0.009238 -0.178034
C79   C     C_R   0.773208 0.818266 0.991183 -0.176304
C80   C     C_R   0.273363 0.682002 0.991032 -0.178074
C81   C     C_R   0.726432 0.317723 0.009185 -0.177803
C82   C     C_R   0.726738 0.681827 0.008871 -0.175374
C83   C     C_R   0.701896 0.731158 0.675797 0.886670
C84   C     C_R   0.272858 0.318792 0.991496 -0.177023
C85   C     C_R   0.643274 0.326685 0.946187 -0.205768
C86   C     C_R   0.356593 0.673104 0.053924 -0.205896
C87   C     C_R   0.356247 0.327464 0.054208 -0.202914
C88   C     C_R   0.643449 0.673018 0.946043 -0.203533
C89   C     C_R   0.143608 0.827215 0.945912 -0.204119
C90   C     C_R   0.856302 0.172645 0.054167 -0.202917
C91   C     C_R   0.856513 0.827045 0.053989 -0.205241
C92   C     C_R   0.143290 0.173265 0.946174 -0.205511
C93   C     C_R   0.616402 0.347160 0.898382 -0.064904
C94   C     C_R   0.201931 0.768911 0.675776 0.871019
C95   C     C_R   0.383525 0.652735 0.101670 -0.064999
C96   C     C_R   0.383354 0.347517 0.101791 -0.066116
C97   C     C_R   0.616481 0.652722 0.898326 -0.064575
C98   C     C_R   0.116570 0.847401 0.898266 -0.066129
C99   C     C_R   0.883397 0.152557 0.101757 -0.066129
C100  C     C_R   0.883498 0.847310 0.101690 -0.064501
C101  C     C_R   0.116427 0.152790 0.898358 -0.065013
C102  C     C_R   0.633189 0.322099 0.813199 -0.260816
C103  C     C_R   0.366760 0.677829 0.186829 -0.261092
C104  C     C_R   0.366655 0.322297 0.186873 -0.265148
C105  C     C_R   0.798067 0.231086 0.324226 0.869198
C106  C     C_R   0.633217 0.677881 0.813198 -0.265413
C107  C     C_R   0.133301 0.822241 0.813149 -0.264432
C108  C     C_R   0.866701 0.177777 0.186839 -0.264605
C109  C     C_R   0.866769 0.822141 0.186811 -0.264617
C110  C     C_R   0.133225 0.177837 0.813166 -0.260960
C111  C     C_R   0.679498 0.281431 0.771011 -0.057822
C112  C     C_R   0.320432 0.718451 0.229040 -0.057161
C113  C     C_R   0.320249 0.281868 0.229170 -0.043602
C114  C     C_R   0.679555 0.718465 0.770975 -0.051207
C115  C     C_R   0.179687 0.781748 0.770877 -0.045797
C116  C     C_R   0.798100 0.768849 0.324207 0.891773
C117  C     C_R   0.820292 0.218222 0.229138 -0.044582
C118  C     C_R   0.820426 0.781568 0.229040 -0.052340
C119  C     C_R   0.179519 0.218515 0.770993 -0.058072
C120  C     C_R   0.707545 0.260144 0.817230 -0.196937
C121  C     C_R   0.292326 0.739635 0.182886 -0.197370
C122  C     C_R   0.291962 0.261029 0.183211 -0.206616
C123  C     C_R   0.707676 0.739598 0.817114 -0.197547
C124  C     C_R   0.207913 0.760779 0.816903 -0.206898
C125  C     C_R   0.792016 0.239101 0.183165 -0.206566
C126  C     C_R   0.792288 0.760467 0.182918 -0.196706
C127  C     C_R   0.201887 0.231179 0.675798 0.911119
C128  C     C_R   0.207552 0.239803 0.817223 -0.197025
C129  C     C_R   0.689611 0.283055 0.905853 0.073157
C130  C     C_R   0.310233 0.716688 0.094290 0.073051
C131  C     C_R   0.309808 0.284049 0.094672 0.073356
C132  C     C_R   0.689804 0.716599 0.905685 0.072146
C133  C     C_R   0.190031 0.783753 0.905473 0.073604
C134  C     C_R   0.809863 0.216075 0.094627 0.073205
C135  C     C_R   0.810151 0.783480 0.094356 0.072244
C136  C     C_R   0.189615 0.216903 0.905852 0.073127
C137  C     C_R   0.696593 0.127741 0.518072 0.906798
C138  C     C_R   0.081672 0.379595 0.416615 -0.219469
C139  C     C_R   0.303409 0.872259 0.481923 0.906671
C140  C     C_R   0.308837 0.129617 0.464117 0.899086
C141  C     C_R   0.691164 0.870384 0.535878 0.897366
C142  C     C_R   0.191693 0.629031 0.532554 0.899220
C143  C     C_R   0.808836 0.370618 0.464656 0.899339
C144  C     C_R   0.808485 0.629351 0.465587 0.902138
C145  C     C_R   0.196873 0.372029 0.516784 0.907749
C146  C     C_R   0.073962 0.099668 0.933976 0.910670
C147  C     C_R   0.926018 0.900354 0.066040 0.910303
C148  C     C_R   0.925998 0.099625 0.066050 0.910806
H1    H     H_    0.719306 0.000628 0.556539 0.196374
H2    H     H_    0.420293 0.168686 0.387127 0.163742
H3    H     H_    0.348525 0.845106 0.591439 0.172283
H4    H     H_    0.651478 0.154897 0.408555 0.172329
H5    H     H_    0.078306 0.332781 0.381852 0.138966
H6    H     H_    0.987165 0.683413 0.439851 0.141910
H7    H     H_    0.997762 0.320519 0.406116 0.139360
H8    H     H_    0.014052 0.674708 0.540134 0.143334
H9    H     H_    0.500118 0.831321 0.600843 0.138155
H10   H     H_    0.499887 0.168680 0.399137 0.138202
H11   H     H_    0.424595 0.843553 0.611725 0.138250
H12   H     H_    0.280696 0.999372 0.443453 0.196489
H13   H     H_    0.575408 0.156452 0.388267 0.138259
H14   H     H_    0.709681 0.371520 0.015938 0.130071
H15   H     H_    0.290093 0.628196 0.984305 0.129898
H16   H     H_    0.289618 0.372577 0.984702 0.129585
H17   H     H_    0.709984 0.628043 0.015628 0.129747
H18   H     H_    0.210203 0.872298 0.015393 0.129568
H19   H     H_    0.789695 0.127480 0.984715 0.129591
H20   H     H_    0.789965 0.872050 0.984425 0.129613
H21   H     H_    0.209700 0.128512 0.016009 0.129657
H22   H     H_    0.740022 0.155665 0.905086 0.129159
H23   H     H_    0.216013 0.499053 0.558647 0.193784
H24   H     H_    0.259851 0.844077 0.095043 0.129132
H25   H     H_    0.259325 0.156767 0.095638 0.129372
H26   H     H_    0.740252 0.843920 0.904880 0.128740
H27   H     H_    0.240462 0.656423 0.904649 0.129625
H28   H     H_    0.759329 0.343334 0.095559 0.129771
H29   H     H_    0.759694 0.656172 0.095171 0.128987
H30   H     H_    0.239965 0.344326 0.905067 0.129220
H31   H     H_    0.628756 0.345997 0.014059 0.146314
H32   H     H_    0.371088 0.653763 0.986070 0.146387
H33   H     H_    0.370688 0.346885 0.986401 0.147941
H34   H     H_    0.778238 0.499961 0.453038 0.199021
H35   H     H_    0.628983 0.653623 0.013868 0.147803
H36   H     H_    0.129139 0.846592 0.013744 0.147090
H37   H     H_    0.870744 0.153223 0.986360 0.147910
H38   H     H_    0.870974 0.846449 0.986169 0.146976
H39   H     H_    0.128769 0.153960 0.014051 0.146293
H40   H     H_    0.744659 0.229086 0.783008 0.151465
H41   H     H_    0.255195 0.770657 0.217132 0.151118
H42   H     H_    0.254761 0.230176 0.217554 0.148115
H43   H     H_    0.744805 0.770606 0.782861 0.151001
H44   H     H_    0.245100 0.729876 0.782590 0.148508
H45   H     H_    0.153256 0.336490 0.406484 0.177238
H46   H     H_    0.754816 0.269973 0.217501 0.148536
H47   H     H_    0.755155 0.729469 0.217177 0.151708
H48   H     H_    0.244655 0.270867 0.783010 0.151613
H49   H     H_    0.612203 0.338618 0.777286 0.177346
H50   H     H_    0.387790 0.661390 0.222698 0.177400
H51   H     H_    0.387823 0.338464 0.222609 0.175764
H52   H     H_    0.612163 0.661502 0.777350 0.175400
H53   H     H_    0.112182 0.838516 0.777364 0.175962
H54   H     H_    0.887863 0.161582 0.222582 0.175514
H55   H     H_    0.887834 0.838496 0.222647 0.175344
H56   H     H_    0.915684 0.681882 0.405543 0.177030
H57   H     H_    0.112249 0.161316 0.777244 0.177320
H58   H     H_    0.917265 0.320458 0.396857 0.174932
H59   H     H_    0.081944 0.671171 0.583952 0.170218
H60   H     H_    0.579709 0.831316 0.612861 0.163229
O1    O     O_R   0.746490 0.236330 0.638080 -0.632796
O2    O     O_R   0.325830 0.813840 0.483730 -0.637434
O3    O     O_R   0.325830 0.186160 0.483730 -0.631758
O4    O     O_R   0.674170 0.813840 0.516270 -0.631431
O5    O     O_R   0.174170 0.686160 0.516270 -0.638512
O6    O     O_R   0.825830 0.313840 0.483730 -0.637437
O7    O     O_R   0.825830 0.686160 0.483730 -0.640477
O8    O     O_R   0.174170 0.313840 0.516270 -0.640785
O9    O     O_R   0.739960 0.127620 0.525000 -0.631203
O10   O     O_R   0.260040 0.872380 0.475000 -0.631259
O11   O     O_R   0.260040 0.127620 0.475000 -0.624399
O12   O     O_R   0.253510 0.763670 0.361920 -0.633710
O13   O     O_R   0.739960 0.872380 0.525000 -0.624725
O14   O     O_R   0.239960 0.627620 0.525000 -0.622109
O15   O     O_R   0.760040 0.372380 0.475000 -0.625465
O16   O     O_R   0.760040 0.627620 0.475000 -0.627190
O17   O     O_R   0.239960 0.372380 0.525000 -0.629932
O18   O     O_R   0.680700 0.294870 0.629350 -0.622182
O19   O     O_R   0.319300 0.705130 0.370650 -0.622348
O20   O     O_R   0.319300 0.294870 0.370650 -0.637433
O21   O     O_R   0.680700 0.705130 0.629350 -0.633950
O22   O     O_R   0.180700 0.794870 0.629350 -0.635784
O23   O     O_R   0.253510 0.236330 0.361920 -0.652909
O24   O     O_R   0.819300 0.205130 0.370650 -0.638004
O25   O     O_R   0.819300 0.794870 0.370650 -0.633840
O26   O     O_R   0.180700 0.205130 0.629350 -0.621901
O27   O     O_R   0.062020 0.072840 0.007170 -0.630422
O28   O     O_R   0.937980 0.927160 0.992830 -0.630041
O29   O     O_R   0.937980 0.072840 0.992830 -0.629233
O30   O     O_R   0.062020 0.927160 0.007170 -0.630036
O31   O     O_R   0.562020 0.572840 0.007170 -0.629293
O32   O     O_R   0.437980 0.427160 0.992830 -0.629298
O33   O     O_R   0.437980 0.572840 0.992830 -0.630517
O34   O     O_R   0.746490 0.763670 0.638080 -0.636269
O35   O     O_R   0.562020 0.427160 0.007170 -0.630375
O36   O     O_R   0.947860 0.073950 0.109290 -0.623788
O37   O     O_R   0.052140 0.926050 0.890710 -0.623412
O38   O     O_R   0.052140 0.073950 0.890710 -0.622330
O39   O     O_R   0.947860 0.926050 0.109290 -0.623414
O40   O     O_R   0.447860 0.573950 0.109290 -0.622366
O41   O     O_R   0.552140 0.426050 0.890710 -0.622224
O42   O     O_R   0.552140 0.573950 0.890710 -0.623583
O43   O     O_R   0.447860 0.426050 0.109290 -0.623751
O44   O     O_R   0.246490 0.736330 0.638080 -0.649926
O45   O     O_R   0.753510 0.263670 0.361920 -0.649841
O46   O     O_R   0.753510 0.736330 0.361920 -0.634387
O47   O     O_R   0.246490 0.263670 0.638080 -0.632363
O48   O     O_R   0.674170 0.186160 0.516270 -0.637423
Zn1   Zn    Zn3+2 0.792340 0.208750 0.507670 0.939900
Zn2   Zn    Zn3+2 0.494040 0.500000 0.919480 0.932372
Zn3   Zn    Zn3+2 0.005960 1.000000 0.080520 0.928837
Zn4   Zn    Zn3+2 0.994040 0.000000 0.919480 0.932375
Zn5   Zn    Zn3+2 0.207660 0.791250 0.492330 0.940125
Zn6   Zn    Zn3+2 0.207660 0.208750 0.492330 0.937995
Zn7   Zn    Zn3+2 0.792340 0.791250 0.507670 0.938271
Zn8   Zn    Zn3+2 0.292340 0.708750 0.507670 0.942487
Zn9   Zn    Zn3+2 0.707660 0.291250 0.492330 0.941684
Zn10  Zn    Zn3+2 0.707660 0.708750 0.492330 0.945607
Zn11  Zn    Zn3+2 0.292340 0.291250 0.507670 0.944587
Zn12  Zn    Zn3+2 0.505960 0.500000 0.080520 0.932304

loop_
_geom_bond_atom_site_label_1
_geom_bond_atom_site_label_2
_ccdc_geom_bond_type
C125  C134  A    
C1    O18   A    
C14   C56   A    
O48   Zn9   S    
C59   C130  S    
C65   C79   A    
C5    O32   A    
C137  O9    A    
C123  C132  A    
C60   C84   A    
C81   H14   S    
C5    O43   A    
C11   C47   A    
O12   Zn5   S    
C139  O10   A    
C8    C43   A    
C105  O45   A    
O41   Zn2   S    
C99   C148  S    
O42   Zn2   S    
C25   C43   A    
C35   H9    S    
C69   C78   A    
C92   H39   S    
C55   H4    S    
C28   C47   A    
C116  O46   A    
C42   H34   S    
C99   C108  A    
O36   Zn3   S    
C83   O34   A    
C11   C19   A    
C142  O14   A    
C33   C39   A    
C30   C141  S    
C124  C133  A    
C106  C114  A    
C35   C52   A    
C127  O47   A    
C63   C133  S    
C6    O40   A    
C5    C96   S    
C72   O23   A    
C29   C51   A    
C107  H53   S    
C56   H11   S    
C128  C136  A    
C16   C35   A    
C143  O15   A    
C90   C134  A    
C34   C145  S    
C51   H59   S    
C75   C84   A    
C11   C18   A    
C10   C17   A    
C87   C131  A    
C46   H10   S    
O9    Zn1   S    
C31   C40   A    
C62   C70   A    
C76   H19   S    
C20   C138  A    
C37   C42   A    
C75   H30   S    
O37   Zn4   S    
C13   H7    S    
C108  H54   S    
C26   C45   A    
C85   C129  A    
C3    O37   A    
C21   C43   A    
C85   C93   A    
C126  H47   S    
C26   C34   A    
C22   C44   A    
C113  C122  A    
C10   C20   A    
C9    C44   A    
C141  O13   A    
C29   C38   A    
C30   C39   A    
C64   C73   A    
C61   O12   A    
O6    Zn1   S    
C125  H46   S    
C79   H20   S    
C121  C130  A    
C88   C97   A    
C84   H16   S    
C85   H31   S    
O25   Zn7   S    
C119  C128  A    
C24   C51   A    
C71   H27   S    
C62   C82   A    
O22   Zn5   S    
C147  O39   A    
C100  C109  A    
C8    C16   A    
C4    C97   S    
C38   C142  S    
C83   C114  S    
C105  C117  S    
C102  C111  A    
C92   C136  A    
C34   C41   A    
C69   H25   S    
C74   C82   A    
C7    C93   S    
C120  H40   S    
C60   C131  S    
C73   C81   A    
C71   C80   A    
C95   C103  A    
O19   Zn8   S    
C122  H42   S    
C22   C53   A    
C64   C134  S    
C36   C42   A    
C139  O2    A    
O2    Zn8   S    
C66   C78   A    
C8    C12   A    
C54   C56   A    
C101  C146  S    
O28   Zn4   S    
C17   C24   A    
C89   C133  A    
C22   C31   A    
C1    O1    A    
C148  O29   A    
C105  O24   A    
C62   C132  S    
C109  H55   S    
O35   Zn12  S    
C38   C41   A    
C7    O35   A    
O33   Zn2   S    
C58   C81   A    
C33   C137  S    
C28   C50   A    
C86   C130  A    
C88   H35   S    
C83   O21   A    
O45   Zn9   S    
C77   H18   S    
C145  O17   A    
C72   C113  S    
C78   H21   S    
C65   C74   A    
C120  C129  A    
O5    Zn5   S    
C111  C120  A    
C103  H50   S    
O3    Zn11  S    
C110  C119  A    
C9    C14   A    
C89   H36   S    
C80   H15   S    
C2    C49   A    
O7    Zn7   S    
C59   C68   A    
C145  O8    A    
C41   H23   S    
C140  O11   A    
O1    Zn1   S    
C12   C15   A    
O34   Zn7   S    
C87   C96   A    
C101  C110  A    
O29   Zn4   S    
C86   H32   S    
C67   H22   S    
C64   C76   A    
C57   H13   S    
O30   Zn3   S    
C6    O33   A    
C61   O19   A    
C70   H26   S    
C141  O4    A    
C107  C115  A    
C65   C135  S    
C92   C101  A    
C32   C139  S    
C143  O6    A    
C66   C136  S    
C114  C123  A    
C13   C18   A    
C138  H5    S    
O27   Zn3   S    
O23   Zn6   S    
C7    O41   A    
C126  C135  A    
C119  C127  S    
O24   Zn1   S    
C96   C104  A    
C53   H2    S    
C91   C100  A    
C144  O16   A    
C14   C16   A    
C102  H49   S    
C12   C57   A    
C123  H43   S    
O4    Zn10  S    
C50   H58   S    
C122  C131  A    
C124  H44   S    
O20   Zn11  S    
C94   O22   A    
C23   C54   A    
C106  H52   S    
C63   C77   A    
C27   C47   A    
C68   C77   A    
C90   C99   A    
C39   H1    S    
C146  O27   A    
O46   Zn10  S    
C127  O26   A    
C115  C124  A    
C37   C143  S    
C2    C19   A    
C52   H60   S    
C108  C117  A    
C40   H12   S    
O11   Zn6   S    
C128  H48   S    
C142  O5    A    
C63   C71   A    
O13   Zn7   S    
C48   H45   S    
C94   O44   A    
C93   C102  A    
C87   H33   S    
C144  O7    A    
O39   Zn3   S    
O21   Zn10  S    
C59   C80   A    
C54   H3    S    
O40   Zn12  S    
C90   H37   S    
C26   C48   A    
C27   C36   A    
C118  C126  A    
C21   C30   A    
C146  O38   A    
C91   H38   S    
C48   C138  A    
C89   C98   A    
O44   Zn8   S    
C23   C32   A    
C73   H28   S    
C55   C57   A    
C9    C15   A    
C28   C37   A    
C4    O42   A    
C112  C121  A    
C94   C115  S    
C25   C55   A    
C1    C111  S    
C121  H41   S    
C68   H24   S    
C3    C98   S    
C70   C79   A    
C74   H29   S    
O47   Zn11  S    
C60   C69   A    
C3    O30   A    
C66   C75   A    
C46   C53   A    
C104  C113  A    
C104  H51   S    
C4    O31   A    
C116  C118  S    
O31   Zn12  S    
C110  H57   S    
C18   C20   A    
O15   Zn9   S    
C32   C40   A    
C36   C144  S    
C147  O28   A    
C116  O25   A    
C49   H56   S    
C137  O48   A    
O38   Zn4   S    
C86   C95   A    
C98   C107  A    
O18   Zn9   S    
O8    Zn6   S    
C13   C50   A    
C17   C19   A    
C27   C49   A    
C58   C67   A    
O26   Zn6   S    
C91   C135  A    
C109  C118  A    
C2    H6    S    
C6    C95   S    
C72   O20   A    
C10   C45   A    
C29   C45   A    
C100  C147  S    
C148  O36   A    
O10   Zn5   S    
C88   C132  A    
C103  C112  A    
O16   Zn10  S    
C67   C76   A    
C58   C129  S    
C15   C46   A    
O32   Zn2   S    
C31   C140  S    
C61   C112  S    
C117  C125  A    
O43   Zn12  S    
O17   Zn11  S    
C21   C52   A    
C24   H8    S    
C140  O3    A    
C25   C33   A    
O14   Zn8   S    
C23   C44   A    
C82   H17   S    
C97   C106  A    
