data_mof_unit_53419.cif
_audit_creation_date              2012-10-26T18:52:43-0400
_audit_creation_method            fapswitch 2.2
_symmetry_space_group_name_H-M    P1
_symmetry_Int_Tables_number       1
_space_group_crystal_system       triclinic
_cell_length_a                    10.743152
_cell_length_b                    14.731168
_cell_length_c                    14.771888
_cell_angle_alpha                 63.882923
_cell_angle_beta                  104.458012
_cell_angle_gamma                 103.506264
_cell_volume                      2011.95591533

loop_
_atom_site_label
_atom_site_type_symbol
_atom_type_description
_atom_site_fract_x
_atom_site_fract_y
_atom_site_fract_z
_atom_type_partial_charge
C1    C     C_R   0.485143 0.119909 0.312459 0.570793
C2    C     C_R   0.455100 0.349278 0.060168 0.048329
C3    C     C_R   0.523998 0.325419 0.005020 0.014153
C4    C     C_R   0.259494 0.001835 0.496878 0.622791
C5    C     C_R   0.412561 0.446776 0.016274 0.080789
C6    C     C_R   0.465930 0.525050 0.930702 -0.002371
C7    C     C_R   0.521496 0.495684 0.872345 -0.132132
C8    C     C_R   0.548758 0.396840 0.908634 -0.136134
C9    C     C_R   0.316236 0.468192 0.051738 0.226039
C10   C     C_R   0.293380 0.569267 0.014988 -0.113846
C11   C     C_R   0.363932 0.649125 0.944376 -0.059010
C12   C     C_3   0.877352 0.002105 0.497175 -0.007420
C13   C     C_R   0.453904 0.628777 0.902538 0.003343
C14   C     C_R   0.341222 0.749200 0.912847 -0.048334
C15   C     C_R   0.401497 0.830257 0.836450 0.211622
C16   C     C_R   0.513694 0.879944 0.687536 0.605233
C17   C     C_R   0.526120 0.713439 0.832944 0.189235
C18   C     C_R   0.726857 0.284660 0.666973 0.192795
C19   C     C_R   0.689688 0.204045 0.634933 -0.002703
C20   C     C_R   0.514299 0.283618 0.513583 0.364647
C21   C     C_R   0.556492 0.373799 0.533813 -0.038569
C22   C     C_R   0.658948 0.369594 0.616641 0.053148
C23   C     C_3   0.948075 0.949067 0.607985 -0.233938
C24   C     C_R   0.499968 0.466462 0.476498 -0.015600
C25   C     C_R   0.529049 0.545603 0.512877 0.016649
C26   C     C_R   0.625070 0.534298 0.600449 -0.153098
C27   C     C_R   0.691293 0.449875 0.648882 -0.098168
C28   C     C_R   0.739676 0.001202 0.498323 0.549258
C29   C     C_R   0.421747 0.484953 0.380431 -0.157345
C30   C     C_R   0.347873 0.565112 0.332066 0.271424
C31   C     C_R   0.362427 0.636893 0.374362 0.091079
C32   C     C_R   0.460861 0.632869 0.460059 -0.092571
C33   C     C_R   0.280708 0.713106 0.331840 0.240894
C34   C     C_3   0.946288 0.113431 0.448140 -0.249785
C35   C     C_R   0.312644 0.795124 0.362570 0.239176
C36   C     C_R   0.485682 0.716400 0.489092 -0.011559
C37   C     C_3   0.028954 0.950540 0.426332 0.098035
C38   C     C_3   0.886555 0.943728 0.434208 -0.209647
C39   C     C_3   0.091428 0.946502 0.607310 0.065967
C40   C     C_3   0.091472 0.113780 0.453017 -0.235578
C41   C     C_3   0.120884 0.002355 0.495715 0.089630
C42   C     C_3   0.582248 0.993839 0.175272 -0.285046
C43   C     C_3   0.222126 0.933680 0.207565 -0.266270
C44   C     C_R   0.492958 0.186771 0.204898 0.001213
C45   C     C_R   0.489248 0.811026 0.791659 0.047324
C46   C     C_R   0.573592 0.232643 0.048759 -0.115303
C47   C     C_R   0.561033 0.163843 0.149138 0.115408
C48   C     C_R   0.442886 0.279149 0.161109 -0.119551
Cu1   Cu    Cu3+1 0.465900 0.918260 0.475680 1.010248
Cu2   Cu    Cu3+1 0.534100 0.081740 0.524320 0.999459
H1    H     H_    0.049891 0.871544 0.452358 0.119150
H2    H     H_    0.272217 0.764421 0.945172 0.166247
H3    H     H_    0.766906 0.446867 0.713886 0.175993
H4    H     H_    0.563209 0.721748 0.549562 0.150734
H5    H     H_    0.741881 0.138907 0.671300 0.118109
H6    H     H_    0.827505 0.975419 0.356719 0.157607
H7    H     H_    0.652984 0.590339 0.632815 0.107558
H8    H     H_    0.418357 0.438127 0.340359 0.156181
H9    H     H_    0.845432 0.861836 0.471388 0.094621
H10   H     H_    0.896819 0.870485 0.645379 0.155237
H11   H     H_    0.150142 0.152014 0.503410 0.118955
H12   H     H_    0.937580 0.159192 0.488825 0.139100
H13   H     H_    0.118283 0.159520 0.375666 0.197693
H14   H     H_    0.899448 0.150858 0.367042 0.147387
H15   H     H_    0.683953 0.655904 0.867802 0.327698
H16   H     H_    0.440942 0.977563 0.781974 0.338001
H17   H     H_    0.732074 0.105408 0.189999 0.248114
H18   H     H_    0.571166 0.015171 0.091831 0.139886
H19   H     H_    0.487287 0.960507 0.200711 0.179833
H20   H     H_    0.647933 0.934727 0.216875 0.131724
H21   H     H_    0.995822 0.967368 0.284555 0.310304
H22   H     H_    0.169010 0.417049 0.125070 0.323939
H23   H     H_    0.154284 0.988596 0.652895 0.200385
H24   H     H_    0.149021 0.852919 0.343876 0.230853
H25   H     H_    0.261599 0.015027 0.190450 0.186164
H26   H     H_    0.117810 0.929695 0.172334 0.120966
H27   H     H_    0.272805 0.904574 0.170956 0.148111
H28   H     H_    0.258743 0.515618 0.226729 0.309290
H29   H     H_    0.865354 0.217510 0.772409 0.320676
H30   H     H_    0.332842 0.295712 0.469916 0.295102
H31   H     H_    0.104535 0.741302 0.263783 0.311810
H32   H     H_    0.056331 0.803504 0.624497 0.319395
H33   H     H_    0.945317 0.991543 0.653724 0.115410
H34   H     H_    0.595890 0.377993 0.863488 0.124929
H35   H     H_    0.218857 0.585731 0.041036 0.134895
H36   H     H_    0.629660 0.216328 0.007329 0.124638
H37   H     H_    0.403737 0.298033 0.210226 0.198718
H38   H     H_    0.542357 0.547965 0.797199 0.169180
N1    N     N_R   0.585360 0.204570 0.560800 -0.224439
N2    N     N_R   0.414550 0.795430 0.439160 -0.243723
N3    N     N_2   0.635971 0.081815 0.199008 -0.516272
N4    N     N_2   0.236048 0.875760 0.317684 -0.445228
O1    O     O_R   0.455060 0.022100 0.338110 -0.460832
O2    O     O_3   0.365830 0.925086 0.804366 -0.697243
O3    O     O_3   0.048202 0.007119 0.324193 -0.711951
O4    O     O_3   0.235873 0.389188 0.112966 -0.722116
O5    O     O_3   0.264780 0.576394 0.240886 -0.640792
O6    O     O_3   0.829102 0.282266 0.745947 -0.714853
O7    O     O_3   0.397377 0.268876 0.454023 -0.677650
O8    O     O_3   0.170032 0.704855 0.262364 -0.641599
O9    O     O_3   0.121995 0.846085 0.655325 -0.684555
O10   O     O_R   0.512640 0.160150 0.379180 -0.467551
O11   O     O_R   0.288900 0.930980 0.479450 -0.464793
O12   O     O_R   0.346480 0.069030 0.520520 -0.468576
O13   O     O_R   0.487360 0.839850 0.620820 -0.467867
O14   O     O_R   0.544940 0.977900 0.661890 -0.537238
O15   O     O_R   0.653520 0.930970 0.479480 -0.509828
O16   O     O_R   0.711100 0.069020 0.520550 -0.519580
O17   O     O_3   0.636201 0.705651 0.806252 -0.732610

loop_
_geom_bond_atom_site_label_1
_geom_bond_atom_site_label_2
_ccdc_geom_bond_type
Cu2   O16   S    
C10   H35   S    
Cu2   O12   S    
H29   O6    S    
C42   H20   S    
Cu1   N2    S    
C15   O2    S    
C7    C8    A    
C39   C41   S    
C30   O5    S    
C26   C27   A    
C29   C30   A    
C40   H13   S    
C23   H33   S    
C12   C28   S    
C34   C40   S    
C32   C36   A    
C17   C45   A    
C18   C19   A    
C30   C31   A    
C37   H1    S    
C11   C14   A    
H21   O3    S    
C4    C41   S    
C28   O15   A    
C19   H5    S    
C4    O11   A    
C34   H12   S    
C37   O3    S    
C42   N3    S    
H24   N4    S    
C24   C29   A    
C1    C44   S    
C14   H2    S    
C7    H38   S    
C31   C33   A    
C9    C10   A    
C44   C47   A    
C16   O14   A    
H16   O2    S    
C35   N4    S    
C25   C32   A    
C8    H34   S    
C21   C22   A    
C42   H18   S    
H17   N3    S    
C39   O9    S    
C43   H25   S    
C23   H10   S    
C24   C25   A    
Cu1   O15   S    
C3    C8    A    
Cu1   O13   S    
C2    C48   A    
C25   C26   A    
C42   H19   S    
C40   H11   S    
C5    C9    A    
C37   C38   S    
C19   N1    A    
Cu2   N1    S    
C31   C32   A    
C12   C23   S    
H28   O5    S    
C34   H14   S    
C48   H37   S    
C20   C21   A    
C9    O4    S    
H15   O17   S    
C16   O13   A    
C40   C41   S    
Cu2   O10   S    
C22   C27   A    
H30   O7    S    
C2    C5    A    
C15   C45   A    
C12   C34   S    
C12   C38   S    
C36   N2    A    
C43   H26   S    
C46   C47   A    
C18   C22   A    
C47   N3    S    
C17   O17   S    
C16   C45   S    
Cu1   O11   S    
C27   H3    S    
C6    C7    A    
H31   O8    S    
C43   H27   S    
C20   N1    A    
C3    C46   A    
C43   N4    S    
C13   C17   A    
C33   O8    S    
C2    C3    A    
C6    C13   A    
C11   C13   A    
C5    C6    A    
C20   O7    S    
C28   O16   A    
C23   C39   S    
C4    O12   A    
C33   C35   A    
H32   O9    S    
C39   H23   S    
C37   C41   S    
C26   H7    S    
C36   H4    S    
C10   C11   A    
C38   H9    S    
H22   O4    S    
C35   N2    A    
C38   H6    S    
C29   H8    S    
C1    O1    A    
Cu1   Cu2   S    
C21   C24   A    
Cu2   O14   S    
C14   C15   A    
C18   O6    S    
Cu1   O1    S    
C1    O10   A    
C44   C48   A    
C46   H36   S    
