data_mof_unit_9117.cif
_audit_creation_date              2012-12-10T18:53:55-0500
_audit_creation_method            fapswitch 2.2
_symmetry_space_group_name_H-M    P1
_symmetry_Int_Tables_number       1
_space_group_crystal_system       triclinic
_cell_length_a                    19.396327
_cell_length_b                    18.257842
_cell_length_c                    10.882463
_cell_angle_alpha                 89.98727
_cell_angle_beta                  92.737287
_cell_angle_gamma                 89.81179
_cell_volume                      3849.44356353

loop_
_atom_site_label
_atom_site_type_symbol
_atom_type_description
_atom_site_fract_x
_atom_site_fract_y
_atom_site_fract_z
_atom_type_partial_charge
C1    C     C_R   0.367800 0.500312 0.499652 0.808350
C2    C     C_R   0.034287 0.525664 0.397638 -0.233087
C3    C     C_3   0.843537 0.756452 0.450087 -0.840637
C4    C     C_3   0.151454 0.674769 0.597314 0.072837
C5    C     C_3   0.104424 0.724287 0.668545 -0.820766
C6    C     C_R   0.072697 0.517754 0.509520 0.133912
C7    C     C_R   0.928309 0.519614 0.505613 0.115689
C8    C     C_R   0.038525 0.512536 0.619732 -0.109519
C9    C     C_R   0.966716 0.513543 0.617794 -0.241345
C10   C     C_R   0.440290 0.723283 0.472332 0.553459
C11   C     C_R   0.559855 0.722693 0.527554 0.551739
C12   C     C_R   0.439666 0.800451 0.478020 -0.361821
C13   C     C_R   0.561020 0.799722 0.520437 -0.358670
C14   C     C_R   0.500471 0.840083 0.499122 -0.025136
C15   C     C_R   0.632411 0.500158 0.501075 0.806324
C16   C     C_R   0.535518 0.963202 0.595795 0.004303
C17   C     C_R   0.466004 0.963642 0.402565 0.004780
C18   C     C_R   0.503863 0.499467 0.262966 0.804922
C19   C     C_R   0.495306 0.499525 0.736756 0.797958
C20   C     C_R   0.534917 0.040360 0.594676 -0.236889
C21   C     C_R   0.466327 0.040813 0.404566 -0.236609
C22   C     C_R   0.500457 0.080148 0.499915 0.079192
C23   C     C_R   0.500712 0.922996 0.499116 0.062553
C24   C     C_R   0.442634 0.202532 0.453217 -0.303841
C25   C     C_R   0.557525 0.202356 0.547696 -0.297475
C26   C     C_R   0.810466 0.568627 0.443122 0.449138
C27   C     C_R   0.443899 0.279328 0.452817 0.120255
C28   C     C_R   0.556008 0.279128 0.547678 0.119832
C29   C     C_R   0.500193 0.162500 0.500348 0.124069
C30   C     C_R   0.501049 0.560017 0.061487 0.029444
C31   C     C_R   0.492499 0.560150 0.937965 0.033601
C32   C     C_R   0.505912 0.496360 0.129816 -0.162159
C33   C     C_R   0.490200 0.496522 0.869393 -0.167104
C34   C     C_R   0.505542 0.428421 0.064152 -0.068381
C35   C     C_R   0.489701 0.428541 0.934743 -0.077274
C36   C     C_3   0.492961 0.641817 0.928971 -0.217761
C37   C     C_R   0.190633 0.557921 0.585745 0.445034
C38   C     C_3   0.505579 0.641522 0.070620 -0.220357
C39   C     C_R   0.750440 0.451088 0.567138 -0.006349
C40   C     C_R   0.250118 0.458440 0.423370 -0.010436
C41   C     C_R   0.822164 0.457009 0.563891 -0.269985
C42   C     C_R   0.178459 0.462973 0.430227 -0.277334
C43   C     C_R   0.852601 0.515255 0.503182 -0.040579
C44   C     C_R   0.148380 0.512392 0.510148 -0.027744
C45   C     C_R   0.532567 0.360341 0.125297 0.151217
C46   C     C_R   0.490944 0.298397 0.139547 -0.127073
C47   C     C_R   0.518889 0.234293 0.191784 -0.138230
C48   C     C_R   0.738995 0.559988 0.438574 -0.225563
C49   C     C_R   0.587870 0.232308 0.234757 -0.107981
C50   C     C_R   0.629181 0.294317 0.224694 -0.143713
C51   C     C_R   0.601847 0.357948 0.169758 -0.136836
C52   C     C_R   0.462398 0.360889 0.872563 0.152606
C53   C     C_R   0.502277 0.296832 0.864270 -0.130112
C54   C     C_R   0.474331 0.233970 0.808485 -0.133138
C55   C     C_R   0.406998 0.234993 0.757073 -0.109197
C56   C     C_R   0.367495 0.298923 0.761370 -0.150025
C57   C     C_R   0.394856 0.361474 0.819118 -0.128171
C58   C     C_3   0.362258 0.688161 0.320827 0.070052
C59   C     C_R   0.262302 0.551356 0.583441 -0.257691
C60   C     C_3   0.285039 0.677519 0.297192 -0.836983
C61   C     C_3   0.634266 0.686275 0.684305 0.078637
C62   C     C_3   0.711529 0.682173 0.714133 -0.835331
C63   C     C_R   0.572642 0.926919 0.701359 0.117981
C64   C     C_R   0.537108 0.883352 0.783545 -0.142125
C65   C     C_R   0.573170 0.848012 0.881110 -0.167610
C66   C     C_R   0.644470 0.856831 0.898394 -0.111763
C67   C     C_R   0.679972 0.901142 0.818208 -0.138108
C68   C     C_R   0.644253 0.936322 0.720256 -0.176550
C69   C     C_R   0.429227 0.927817 0.296341 0.118705
C70   C     C_R   0.708181 0.502226 0.501177 -0.161714
C71   C     C_R   0.464363 0.881191 0.217788 -0.141525
C72   C     C_R   0.428457 0.846189 0.120026 -0.170681
C73   C     C_R   0.357849 0.858686 0.098418 -0.114362
C74   C     C_R   0.322814 0.906025 0.174774 -0.140422
C75   C     C_R   0.358279 0.940599 0.273294 -0.176257
C76   C     C_R   0.423694 0.673470 0.885256 0.159876
C77   C     C_R   0.421337 0.727412 0.793322 -0.133528
C78   C     C_R   0.358664 0.760205 0.755496 -0.125519
C79   C     C_R   0.297587 0.738487 0.807388 -0.127233
C80   C     C_R   0.298857 0.683560 0.896730 -0.142312
C81   C     C_R   0.292490 0.502170 0.502519 -0.143091
C82   C     C_R   0.361488 0.651173 0.935896 -0.171257
C83   C     C_R   0.576839 0.667679 0.113853 0.162984
C84   C     C_R   0.583144 0.720633 0.207113 -0.134254
C85   C     C_R   0.648044 0.747633 0.245392 -0.133227
C86   C     C_R   0.707292 0.721347 0.191940 -0.108813
C87   C     C_R   0.701924 0.667585 0.100930 -0.157296
C88   C     C_R   0.637195 0.640747 0.061855 -0.169168
C89   C     C_R   0.723073 0.397250 0.653539 0.137130
C90   C     C_R   0.686469 0.421647 0.754110 -0.122811
C91   C     C_R   0.669499 0.372587 0.846174 -0.142753
C92   C     C_R   0.962466 0.526516 0.395673 -0.134575
C93   C     C_R   0.688271 0.298782 0.838132 -0.131854
C94   C     C_R   0.723629 0.273836 0.737340 -0.166817
C95   C     C_R   0.741515 0.322936 0.645675 -0.180355
C96   C     C_R   0.277315 0.414954 0.321780 0.136763
C97   C     C_R   0.312113 0.450133 0.228153 -0.135284
C98   C     C_R   0.326960 0.412118 0.121220 -0.135851
C99   C     C_R   0.307673 0.338764 0.107415 -0.133344
C100  C     C_R   0.275323 0.302690 0.201936 -0.158362
C101  C     C_R   0.259652 0.340716 0.308482 -0.175383
C102  C     C_3   0.864951 0.678266 0.481757 0.090127
Cu1   Cu    Cu3+1 0.500000 0.573360 0.500000 0.977597
Cu2   Cu    Cu3+1 0.500000 0.426640 0.500000 0.963248
H1    H     H_    0.390914 0.829051 0.464521 0.172656
H2    H     H_    0.462933 0.665656 0.121928 0.123444
H3    H     H_    0.854753 0.417426 0.613414 0.159706
H4    H     H_    0.145646 0.429611 0.369420 0.159832
H5    H     H_    0.707293 0.600523 0.389664 0.209968
H6    H     H_    0.294443 0.585882 0.643406 0.190596
H7    H     H_    0.933545 0.530869 0.308329 0.154940
H8    H     H_    0.059971 0.530421 0.311778 0.139041
H9    H     H_    0.067353 0.505910 0.706753 0.157478
H10   H     H_    0.941015 0.508688 0.703621 0.138686
H11   H     H_    0.437742 0.298775 0.106681 0.134229
H12   H     H_    0.609949 0.827615 0.533897 0.174395
H13   H     H_    0.486911 0.186207 0.199449 0.129270
H14   H     H_    0.609182 0.182830 0.276360 0.128892
H15   H     H_    0.682522 0.292949 0.258707 0.125354
H16   H     H_    0.634718 0.405363 0.161295 0.111259
H17   H     H_    0.554115 0.294643 0.904046 0.127927
H18   H     H_    0.505038 0.184489 0.804714 0.129181
H19   H     H_    0.385625 0.186390 0.713168 0.128691
H20   H     H_    0.315517 0.299936 0.720539 0.126182
H21   H     H_    0.363333 0.410454 0.822396 0.109220
H22   H     H_    0.389388 0.641460 0.279108 0.160294
H23   H     H_    0.560347 0.069417 0.670802 0.133506
H24   H     H_    0.376692 0.739756 0.274144 0.142388
H25   H     H_    0.272514 0.676204 0.196568 0.200955
H26   H     H_    0.268502 0.625152 0.338065 0.253093
H27   H     H_    0.256374 0.723404 0.338454 0.242135
H28   H     H_    0.610344 0.636456 0.721672 0.164003
H29   H     H_    0.614125 0.735254 0.732051 0.136724
H30   H     H_    0.721597 0.681849 0.815426 0.200754
H31   H     H_    0.733142 0.631267 0.675473 0.249157
H32   H     H_    0.737431 0.730408 0.674918 0.252200
H33   H     H_    0.481777 0.876632 0.771468 0.128119
H34   H     H_    0.440928 0.070276 0.328653 0.132747
H35   H     H_    0.546314 0.812741 0.942214 0.130937
H36   H     H_    0.672208 0.829025 0.973505 0.139311
H37   H     H_    0.735232 0.907918 0.831535 0.122821
H38   H     H_    0.672456 0.970015 0.658058 0.121000
H39   H     H_    0.519232 0.871747 0.232959 0.127721
H40   H     H_    0.454870 0.808471 0.062041 0.130955
H41   H     H_    0.330221 0.831405 0.022973 0.142950
H42   H     H_    0.268070 0.915585 0.158098 0.122758
H43   H     H_    0.330334 0.976564 0.332631 0.120372
H44   H     H_    0.468167 0.744445 0.751603 0.108530
H45   H     H_    0.396652 0.174974 0.417351 0.122097
H46   H     H_    0.357390 0.802900 0.686569 0.131571
H47   H     H_    0.249397 0.764664 0.778856 0.129039
H48   H     H_    0.251389 0.666600 0.936563 0.145171
H49   H     H_    0.361373 0.609261 0.006293 0.122579
H50   H     H_    0.537741 0.741140 0.249867 0.108886
H51   H     H_    0.652468 0.789159 0.316168 0.133942
H52   H     H_    0.757395 0.742658 0.220751 0.153831
H53   H     H_    0.747933 0.647002 0.060043 0.138331
H54   H     H_    0.634308 0.599375 0.990554 0.123468
H55   H     H_    0.673308 0.479039 0.763511 0.099107
H56   H     H_    0.603600 0.174700 0.583713 0.125049
H57   H     H_    0.642571 0.392141 0.924478 0.129001
H58   H     H_    0.675614 0.260939 0.910173 0.126992
H59   H     H_    0.738021 0.216682 0.731104 0.127215
H60   H     H_    0.770544 0.303381 0.569605 0.126471
H61   H     H_    0.325009 0.507695 0.235487 0.103203
H62   H     H_    0.352129 0.440067 0.048183 0.129943
H63   H     H_    0.318207 0.309591 0.023850 0.133291
H64   H     H_    0.261048 0.245696 0.191512 0.126037
H65   H     H_    0.232271 0.312932 0.379254 0.123430
H66   H     H_    0.922210 0.674941 0.484449 0.165668
H67   H     H_    0.399770 0.309143 0.414446 0.134451
H68   H     H_    0.847744 0.666363 0.576255 0.127655
H69   H     H_    0.786411 0.761499 0.448503 0.252796
H70   H     H_    0.866180 0.794557 0.520436 0.201025
H71   H     H_    0.862195 0.771802 0.358717 0.244599
H72   H     H_    0.126119 0.665908 0.504276 0.138977
H73   H     H_    0.201638 0.702886 0.586675 0.158930
H74   H     H_    0.126741 0.733533 0.763087 0.244381
H75   H     H_    0.098161 0.777856 0.620917 0.195755
H76   H     H_    0.052901 0.698444 0.674364 0.248988
H77   H     H_    0.599793 0.308915 0.585948 0.146372
H78   H     H_    0.537069 0.662614 0.878081 0.123289
N1    N     N_R   0.500000 0.683620 0.500000 -0.256019
N2    N     N_R   0.500000 0.316380 0.500000 -0.168455
O1    O     O_R   0.400190 0.561980 0.499980 -0.524699
O2    O     O_3   0.621943 0.688282 0.555279 -0.558176
O3    O     O_3   0.837645 0.630226 0.389435 -0.597558
O4    O     O_3   0.162081 0.608581 0.662834 -0.592627
O5    O     O_R   0.599810 0.561980 0.500020 -0.528315
O6    O     O_R   0.400190 0.438070 0.500040 -0.594097
O7    O     O_R   0.599810 0.438070 0.499960 -0.592194
O8    O     O_R   0.500000 0.561960 0.319660 -0.596079
O9    O     O_R   0.500000 0.561960 0.680340 -0.596843
O10   O     O_R   0.500000 0.438060 0.319720 -0.567115
O11   O     O_R   0.500000 0.438060 0.680280 -0.568072
O12   O     O_3   0.377733 0.689323 0.448997 -0.554482

loop_
_geom_bond_atom_site_label_1
_geom_bond_atom_site_label_2
_ccdc_geom_bond_type
C102  H66   S    
C77   C78   A    
C55   C56   A    
C17   C69   S    
C93   C94   A    
C22   C29   S    
C83   C88   A    
C38   C83   S    
C18   O10   A    
C11   O2    S    
C73   C74   A    
C54   C55   A    
Cu1   O1    S    
C24   C27   A    
C4    H73   S    
C87   C88   A    
C19   O9    A    
C97   C98   A    
C61   H29   S    
C47   C49   A    
C85   C86   A    
C25   C28   A    
C19   O11   A    
C2    H8    S    
C17   C23   A    
C18   C32   S    
C46   H11   S    
Cu1   N1    S    
C9    H10   S    
C56   H20   S    
C71   H39   S    
C95   H60   S    
C57   H21   S    
C12   H1    S    
C37   O4    S    
C45   C51   A    
C1    C81   S    
C59   H6    S    
C56   C57   A    
C30   C38   S    
C72   H40   S    
C34   C35   A    
C85   H51   S    
C62   H32   S    
C90   H55   S    
C69   C71   A    
C86   H52   S    
C27   N2    A    
C5    H75   S    
C36   C76   S    
C61   H28   S    
C24   C29   A    
C82   H49   S    
C84   H50   S    
C3    H69   S    
C49   H14   S    
C8    C9    A    
C31   C33   A    
C48   C70   A    
C101  H65   S    
Cu1   O5    S    
C16   C63   S    
C7    C43   S    
C61   C62   S    
C26   C48   A    
C1    O6    A    
C40   C42   A    
C66   C67   A    
C15   O5    A    
Cu2   O6    S    
C6    C44   S    
C21   C22   A    
C96   C97   A    
C25   C29   A    
C10   N1    A    
C41   C43   A    
C2    C6    A    
C42   C44   A    
C21   H34   S    
C40   C96   S    
C60   H27   S    
C14   C23   S    
C26   C43   A    
C51   H16   S    
C58   C60   S    
C99   H63   S    
C64   H33   S    
C102  H68   S    
C55   H19   S    
C74   C75   A    
C63   C64   A    
C67   C68   A    
C80   H48   S    
C11   N1    A    
C84   C85   A    
C20   H23   S    
C80   C82   A    
C19   C33   S    
C60   H26   S    
C78   C79   A    
C72   C73   A    
C6    C8    A    
C75   H43   S    
C53   C54   A    
Cu2   O7    S    
C17   C21   A    
C50   H15   S    
C73   H41   S    
C32   C34   A    
C62   H31   S    
C89   C95   A    
C2    C92   A    
C28   H77   S    
C5    H76   S    
C10   O12   S    
C91   C93   A    
C26   O3    S    
C3    H70   S    
C83   C84   A    
C16   C20   A    
C18   O8    A    
C38   H2    S    
C25   H56   S    
C50   C51   A    
C34   C45   S    
C37   C59   A    
C76   C77   A    
C68   H38   S    
C77   H44   S    
C98   H62   S    
C10   C12   A    
C8    H9    S    
C3    C102  S    
C3    H71   S    
Cu2   N2    S    
C12   C14   A    
C98   C99   A    
C16   C23   A    
C88   H54   S    
C13   C14   A    
C45   C46   A    
C36   H78   S    
C69   C75   A    
C76   C82   A    
C67   H37   S    
C27   H67   S    
C35   C52   S    
C52   C53   A    
C78   H46   S    
C79   H47   S    
C7    C9    A    
C15   C70   S    
C15   O7    A    
C46   C47   A    
C41   H3    S    
C86   C87   A    
C40   C81   A    
C74   H42   S    
C59   C81   A    
C20   C22   A    
C4    C5    S    
C60   H25   S    
C92   H7    S    
C58   H22   S    
C1    O1    A    
C63   C68   A    
C102  O3    S    
C99   C100  A    
Cu2   O11   S    
C100  H64   S    
C64   C65   A    
C62   H30   S    
C37   C44   A    
C36   C38   S    
C28   N2    A    
C71   C72   A    
C53   H17   S    
C58   H24   S    
C30   C32   A    
C11   C13   A    
C4    O4    S    
C90   C91   A    
C30   C31   A    
C93   H58   S    
C97   H61   S    
C7    C92   A    
C58   O12   S    
C61   O2    S    
C33   C35   A    
C39   C70   A    
C48   H5    S    
C24   H45   S    
C65   C66   A    
C54   H18   S    
C94   C95   A    
C5    H74   S    
C13   H12   S    
C52   C57   A    
C79   C80   A    
C65   H35   S    
C87   H53   S    
C47   H13   S    
C66   H36   S    
C39   C41   A    
C49   C50   A    
C4    H72   S    
Cu1   Cu2   S    
Cu2   O10   S    
C31   C36   S    
C91   H57   S    
C100  C101  A    
Cu1   O8    S    
Cu1   O9    S    
C89   C90   A    
C96   C101  A    
C42   H4    S    
C94   H59   S    
C39   C89   S    
