data_mof_unit_6972.cif
_audit_creation_date              2012-12-11T17:18:34-0500
_audit_creation_method            fapswitch 2.2
_symmetry_space_group_name_H-M    P1
_symmetry_Int_Tables_number       1
_space_group_crystal_system       triclinic
_cell_length_a                    27.6991
_cell_length_b                    22.570799
_cell_length_c                    20.996261
_cell_angle_alpha                 90.043122
_cell_angle_beta                  51.319316
_cell_angle_gamma                 90.111456
_cell_volume                      10247.1972576

loop_
_atom_site_label
_atom_site_type_symbol
_atom_type_description
_atom_site_fract_x
_atom_site_fract_y
_atom_site_fract_z
_atom_type_partial_charge
C1    C     C_R   0.895316 0.563220 0.735735 -0.177845
C2    C     C_1   0.880503 0.281901 0.840192 0.067150
C3    C     C_R   0.286655 0.324330 0.044322 -0.043092
C4    C     C_R   0.790296 0.171463 0.044299 -0.040914
C5    C     C_R   0.213058 0.816939 0.949530 -0.069531
C6    C     C_R   0.357651 0.257197 0.903326 -0.053340
C7    C     C_R   0.639674 0.744419 0.092473 -0.075959
C8    C     C_R   0.152019 0.810104 0.095505 -0.413762
C9    C     C_R   0.830458 0.188445 0.905388 -0.426794
C10   C     C_R   0.688008 0.732422 0.949778 -0.387787
C11   C     C_R   0.313833 0.272031 0.043689 -0.423371
C12   C     C_R   0.823694 0.220056 0.039794 -0.433992
C13   C     C_1   0.758398 0.650041 0.875882 0.061945
C14   C     C_R   0.197231 0.758882 0.946148 -0.389340
C15   C     C_R   0.336154 0.312570 0.901385 -0.429540
C16   C     C_R   0.655836 0.686524 0.095707 -0.419617
C17   C     C_3   0.796853 0.496703 0.508675 0.370628
C18   C     C_3   0.766145 0.529878 0.479210 -0.877995
C19   C     C_3   0.026874 0.548900 0.712262 0.337729
C20   C     C_3   0.024400 0.533797 0.784808 -0.912930
C21   C     C_3   0.200171 0.494067 0.506329 0.360731
C22   C     C_3   0.226475 0.524253 0.543760 -0.868392
C23   C     C_3   0.962034 0.543991 0.290520 0.332622
C24   C     C_1   0.234766 0.346992 0.120497 0.062604
C25   C     C_3   0.951911 0.514194 0.234730 -0.897275
C26   C     C_3   0.300272 0.993059 0.496786 0.356810
C27   C     C_3   0.272558 0.026269 0.463217 -0.866981
C28   C     C_3   0.537997 0.046322 0.710132 0.326144
C29   C     C_3   0.547642 0.018606 0.767396 -0.889414
C30   C     C_3   0.703177 0.996047 0.496546 0.378016
C31   C     C_3   0.732850 0.025204 0.530149 -0.869467
C32   C     C_3   0.473321 0.049590 0.287539 0.339837
C33   C     C_3   0.476169 0.035306 0.214478 -0.926074
C34   C     C_3   0.883150 0.748708 0.537837 0.257188
C35   C     C_1   0.741839 0.147185 0.122093 0.054427
C36   C     C_3   0.890791 0.795451 0.583237 -0.873668
C37   C     C_3   0.054203 0.276100 0.502929 0.254171
C38   C     C_3   0.059916 0.211220 0.479631 -0.886688
C39   C     C_3   0.132389 0.737750 0.432914 0.267593
C40   C     C_3   0.117018 0.796553 0.413968 -0.842300
C41   C     C_3   0.901972 0.263655 0.514569 0.269618
C42   C     C_3   0.886156 0.205400 0.560109 -0.882396
C43   C     C_3   0.365538 0.242725 0.553552 0.286421
C44   C     C_3   0.357499 0.284470 0.616520 -0.947967
C45   C     C_3   0.567058 0.773130 0.497219 0.261495
C46   C     C_1   0.265551 0.842654 0.876437 0.093116
C47   C     C_3   0.578050 0.709237 0.468078 -0.893888
C48   C     C_3   0.617349 0.248151 0.459466 0.265940
C49   C     C_3   0.608453 0.294449 0.414941 -0.888117
C50   C     C_3   0.419711 0.764892 0.473130 0.291963
C51   C     C_3   0.421519 0.701562 0.496129 -0.899338
C52   C     C_3   0.709430 0.124489 0.991288 0.260207
C53   C     C_3   0.668239 0.071259 0.011508 -0.864472
C54   C     C_3   0.153987 0.939435 0.064289 0.248377
C55   C     C_3   0.175656 0.002898 0.056543 -0.849646
C56   C     C_3   0.421191 0.189918 0.974874 0.266742
C57   C     C_1   0.375414 0.215557 0.841435 0.083390
C58   C     C_3   0.450312 0.129730 0.963158 -0.897092
C59   C     C_3   0.578524 0.830018 0.047454 0.260717
C60   C     C_3   0.562798 0.895184 0.051720 -0.866972
C61   C     C_3   0.093231 0.654820 0.038400 0.260281
C62   C     C_3   0.084436 0.588588 0.035729 -0.890851
C63   C     C_3   0.846252 0.350139 0.015018 0.264591
C64   C     C_3   0.881084 0.407681 0.998253 -0.878191
C65   C     C_3   0.762480 0.603177 0.026025 0.282459
C66   C     C_3   0.794100 0.543521 0.007949 -0.910387
C67   C     C_3   0.224761 0.388994 0.973144 0.257853
C68   C     C_1   0.620140 0.784054 0.157441 0.061652
C69   C     C_3   0.189675 0.446533 0.991421 -0.855550
C70   C     C_3   0.164758 0.896627 0.546642 0.277399
C71   C     C_3   0.120322 0.920360 0.533402 -0.890229
C72   C     C_3   0.662010 0.193049 0.721850 0.288318
C73   C     C_3   0.684902 0.181903 0.770400 -0.893677
C74   C     C_3   0.842704 0.896659 0.436327 0.265393
C75   C     C_3   0.891404 0.920182 0.441940 -0.902997
C76   C     C_3   0.327912 0.192178 0.288475 0.290230
C77   C     C_3   0.301900 0.182404 0.243434 -0.866474
C78   C     C_3   0.661797 0.397800 0.554665 0.265273
C79   C     C_1   0.893500 0.318254 0.790296 -0.057315
C80   C     C_3   0.616500 0.421139 0.542722 -0.896502
C81   C     C_3   0.163979 0.696688 0.719024 0.285004
C82   C     C_3   0.187489 0.688002 0.767277 -0.875432
C83   C     C_3   0.335028 0.394419 0.455266 0.259686
C84   C     C_3   0.381142 0.416891 0.466346 -0.890622
C85   C     C_3   0.816474 0.682148 0.303231 0.296279
C86   C     C_3   0.784025 0.666909 0.267813 -0.875853
C87   C     C_1   0.115017 0.677867 0.205825 -0.045209
C88   C     C_1   0.188057 0.363877 0.183066 -0.043212
C89   C     C_R   0.099803 0.433232 0.263207 -0.120119
C90   C     C_1   0.803972 0.630583 0.813798 -0.053740
C91   C     C_1   0.312305 0.861645 0.815652 -0.034463
C92   C     C_1   0.696710 0.129106 0.185852 -0.053342
C93   C     C_1   0.607475 0.819072 0.208573 -0.054010
C94   C     C_1   0.386213 0.179379 0.792646 -0.048754
C95   C     C_1   0.123510 0.685863 0.585129 0.092667
C96   C     C_1   0.789761 0.359461 0.548066 0.073670
C97   C     C_1   0.876326 0.685418 0.413557 0.043110
C98   C     C_1   0.206514 0.358009 0.461337 0.102483
C99   C     C_1   0.621384 0.186912 0.588387 0.049780
C100  C     C_R   0.084580 0.578402 0.266720 -0.172619
C101  C     C_1   0.295691 0.855232 0.534204 0.068446
C102  C     C_1   0.373646 0.184476 0.417017 0.054593
C103  C     C_1   0.710122 0.860173 0.451310 0.105439
C104  C     C_2   0.170311 0.761605 0.628038 0.387743
C105  C     C_2   0.683195 0.314514 0.598757 0.375082
C106  C     C_2   0.825160 0.756779 0.372379 0.396788
C107  C     C_2   0.313058 0.312712 0.408826 0.373044
C108  C     C_2   0.668212 0.260845 0.633777 0.395985
C109  C     C_2   0.187321 0.813480 0.588437 0.372109
C110  C     C_2   0.326500 0.259274 0.373650 0.401025
C111  C     C_R   0.923131 0.419247 0.729970 -0.140340
C112  C     C_2   0.815291 0.812297 0.400776 0.374298
C113  C     C_1   0.740496 0.339934 0.573538 -0.094002
C114  C     C_1   0.140921 0.720713 0.609536 -0.109910
C115  C     C_1   0.255601 0.338574 0.436072 -0.098647
C116  C     C_1   0.856413 0.718206 0.390463 -0.117933
C117  C     C_1   0.245971 0.836975 0.560188 -0.093476
C118  C     C_1   0.639233 0.220941 0.613227 -0.114665
C119  C     C_1   0.758805 0.839798 0.426500 -0.099545
C120  C     C_1   0.355588 0.218596 0.392775 -0.114758
C121  C     C_R   0.876813 0.434065 0.468810 0.435176
C122  C     C_R   0.416131 0.078895 0.732998 -0.179712
C123  C     C_R   0.090695 0.586090 0.581407 0.490396
C124  C     C_R   0.121567 0.434047 0.534768 0.420008
C125  C     C_R   0.910374 0.586642 0.417429 0.495800
C126  C     C_R   0.379668 0.932214 0.462574 0.435426
C127  C     C_R   0.589847 0.086927 0.582268 0.490939
C128  C     C_R   0.623640 0.934936 0.529914 0.424849
C129  C     C_R   0.409178 0.085862 0.418725 0.498885
C130  C     C_R   0.912994 0.652231 0.492549 0.434911
C131  C     C_R   0.110570 0.360360 0.475982 0.467175
C132  C     C_R   0.090881 0.651003 0.503085 0.445289
C133  C     C_R   0.577078 0.919378 0.269939 -0.137237
C134  C     C_R   0.887098 0.362640 0.530426 0.479494
C135  C     C_R   0.408409 0.150616 0.497851 0.471135
C136  C     C_R   0.613256 0.863176 0.468297 0.483529
C137  C     C_R   0.586903 0.152383 0.507497 0.432499
C138  C     C_R   0.391283 0.858964 0.521250 0.472903
C139  C     C_R   0.920279 0.349001 0.658359 -0.066121
C140  C     C_R   0.084542 0.649594 0.340267 -0.101452
C141  C     C_R   0.103353 0.361361 0.333047 -0.167690
C142  C     C_R   0.891023 0.633377 0.664214 -0.091428
C143  C     C_R   0.397253 0.860640 0.666178 -0.151852
C144  C     C_R   0.605027 0.062698 0.264539 -0.173813
C145  C     C_R   0.609475 0.133018 0.335895 -0.109296
C146  C     C_R   0.580300 0.849220 0.341261 -0.088567
C147  C     C_R   0.416307 0.149849 0.659217 -0.073289
C148  C     C_R   0.860631 0.609800 0.741254 0.074757
C149  C     C_R   0.131801 0.383976 0.256095 0.084611
C150  C     C_R   0.102707 0.635755 0.264191 0.075250
C151  C     C_R   0.906428 0.361430 0.732306 0.070589
C152  C     C_R   0.398604 0.136413 0.735038 0.056269
C153  C     C_R   0.594248 0.861782 0.267238 0.076541
C154  C     C_R   0.640088 0.108935 0.259008 0.078997
C155  C     C_R   0.399835 0.932935 0.736749 -0.117478
C156  C     C_R   0.368342 0.883080 0.743315 0.071657
C157  C     C_R   0.848213 0.383925 0.516722 -0.259906
C158  C     C_R   0.108120 0.642393 0.551685 -0.269752
C159  C     C_R   0.149220 0.382900 0.489684 -0.210230
C160  C     C_R   0.895040 0.643556 0.444633 -0.259800
C161  C     C_R   0.353382 0.879821 0.505033 -0.262977
C162  C     C_R   0.604823 0.144071 0.555408 -0.257350
C163  C     C_R   0.652536 0.885313 0.480877 -0.241518
C164  C     C_R   0.390944 0.141936 0.449151 -0.285472
C165  C     C_R   0.794470 0.154578 0.976651 0.576582
C166  C     C_1   0.125275 0.711945 0.155301 0.070206
C167  C     C_R   0.187030 0.844482 0.024524 0.565667
C168  C     C_R   0.350610 0.238412 0.972352 0.562758
C169  C     C_R   0.652819 0.766660 0.020553 0.562546
C170  C     C_R   0.160466 0.725274 0.017137 0.560451
C171  C     C_R   0.857631 0.255444 0.969551 0.575642
C172  C     C_R   0.691543 0.652461 0.024549 0.575190
C173  C     C_R   0.299645 0.346331 0.972595 0.576940
C174  C     C_R   0.141852 0.750188 0.090755 -0.076878
C175  C     C_R   0.859529 0.239908 0.903295 -0.044347
C176  C     C_R   0.708684 0.676359 0.951265 -0.061505
H1    H     H_    0.884136 0.534773 0.784678 0.111340
H2    H     H_    0.762385 0.464209 0.554100 0.041680
H3    H     H_    0.703093 0.751455 0.892551 0.175729
H4    H     H_    0.218009 0.737876 0.887808 0.181087
H5    H     H_    0.820128 0.232668 0.092407 0.166337
H6    H     H_    0.645097 0.669560 0.151571 0.168292
H7    H     H_    0.343285 0.327223 0.846897 0.170205
H8    H     H_    0.722834 0.145007 0.934053 0.097587
H9    H     H_    0.681917 0.156897 0.042348 0.077709
H10   H     H_    0.653582 0.050181 0.068942 0.247360
H11   H     H_    0.626424 0.085667 0.019520 0.202857
H12   H     H_    0.693686 0.038305 0.961296 0.266454
H13   H     H_    0.765114 0.501773 0.436653 0.252648
H14   H     H_    0.119185 0.928787 0.130349 0.094479
H15   H     H_    0.131833 0.936638 0.034662 0.082362
H16   H     H_    0.210067 0.015138 0.991139 0.255393
H17   H     H_    0.135645 0.033524 0.086319 0.202591
H18   H     H_    0.197224 0.007510 0.086525 0.259959
H19   H     H_    0.405032 0.208295 0.034514 0.096456
H20   H     H_    0.457564 0.219486 0.924513 0.080512
H21   H     H_    0.467029 0.110428 0.903875 0.256482
H22   H     H_    0.490079 0.134640 0.963441 0.207015
H23   H     H_    0.415768 0.099331 0.013279 0.262167
H24   H     H_    0.717909 0.541445 0.532183 0.190545
H25   H     H_    0.546281 0.811446 0.110371 0.080975
H26   H     H_    0.571219 0.806697 0.007311 0.093985
H27   H     H_    0.593190 0.915146 0.989791 0.259221
H28   H     H_    0.513850 0.899771 0.076888 0.209073
H29   H     H_    0.569396 0.919272 0.091948 0.251389
H30   H     H_    0.085742 0.677627 0.998159 0.087954
H31   H     H_    0.057823 0.670050 0.102516 0.080146
H32   H     H_    0.091338 0.564806 0.075791 0.253491
H33   H     H_    0.036920 0.579614 0.057261 0.208924
H34   H     H_    0.118304 0.571930 0.972308 0.261630
H35   H     H_    0.791017 0.571633 0.448030 0.272363
H36   H     H_    0.819979 0.338758 0.080580 0.092619
H37   H     H_    0.813239 0.357719 0.002234 0.082921
H38   H     H_    0.905414 0.421843 0.934135 0.251696
H39   H     H_    0.848092 0.442804 0.039909 0.209304
H40   H     H_    0.915465 0.401481 0.008622 0.261925
H41   H     H_    0.746121 0.618398 0.087034 0.096140
H42   H     H_    0.797604 0.635102 0.978541 0.081055
H43   H     H_    0.811117 0.527344 0.947126 0.255129
H44   H     H_    0.834036 0.548140 0.007917 0.208294
H45   H     H_    0.761076 0.510695 0.055171 0.259844
H46   H     H_    0.013292 0.508677 0.696691 0.110971
H47   H     H_    0.191740 0.356006 0.020702 0.079367
H48   H     H_    0.241789 0.372770 0.912231 0.097502
H49   H     H_    0.220783 0.480330 0.944437 0.268737
H50   H     H_    0.150185 0.438684 0.991209 0.203863
H51   H     H_    0.171599 0.463504 0.052368 0.248026
H52   H     H_    0.212612 0.907229 0.491494 0.115144
H53   H     H_    0.154547 0.919614 0.600907 0.084050
H54   H     H_    0.072392 0.905576 0.583500 0.267159
H55   H     H_    0.121790 0.969549 0.532196 0.212837
H56   H     H_    0.134118 0.904540 0.474127 0.249284
H57   H     H_    0.994090 0.585976 0.730726 0.078281
H58   H     H_    0.668716 0.151761 0.688140 0.122020
H59   H     H_    0.611732 0.203757 0.765948 0.083630
H60   H     H_    0.679668 0.222639 0.803915 0.259956
H61   H     H_    0.657508 0.145663 0.815065 0.206749
H62   H     H_    0.734326 0.168765 0.728852 0.255756
H63   H     H_    0.796354 0.905293 0.495490 0.117208
H64   H     H_    0.847747 0.920900 0.386224 0.089407
H65   H     H_    0.938376 0.911946 0.383757 0.258095
H66   H     H_    0.885087 0.968601 0.453892 0.213305
H67   H     H_    0.886995 0.897884 0.492434 0.258154
H68   H     H_    0.037998 0.573004 0.802426 0.247069
H69   H     H_    0.321347 0.150699 0.321732 0.121491
H70   H     H_    0.378266 0.202051 0.242301 0.079019
H71   H     H_    0.307853 0.223194 0.209630 0.246944
H72   H     H_    0.326736 0.145395 0.199318 0.208784
H73   H     H_    0.251909 0.171297 0.287490 0.266325
H74   H     H_    0.709526 0.406280 0.497765 0.118239
H75   H     H_    0.653781 0.422410 0.606581 0.093107
H76   H     H_    0.568264 0.412514 0.598179 0.264169
H77   H     H_    0.623117 0.469623 0.531276 0.214377
H78   H     H_    0.624463 0.399068 0.489674 0.254700
H79   H     H_    0.976654 0.520371 0.837420 0.203535
H80   H     H_    0.170244 0.654387 0.687371 0.119906
H81   H     H_    0.113816 0.707819 0.762949 0.083424
H82   H     H_    0.181372 0.729477 0.800097 0.250704
H83   H     H_    0.161134 0.651857 0.812558 0.209853
H84   H     H_    0.237312 0.676115 0.725464 0.263420
H85   H     H_    0.287648 0.400479 0.513885 0.117613
H86   H     H_    0.340911 0.421288 0.406306 0.092379
H87   H     H_    0.429055 0.411350 0.408762 0.262061
H88   H     H_    0.372734 0.464599 0.482854 0.213154
H89   H     H_    0.375984 0.391848 0.515751 0.257373
H90   H     H_    0.056431 0.496649 0.768923 0.279187
H91   H     H_    0.809488 0.644605 0.342552 0.118382
H92   H     H_    0.866762 0.687835 0.251725 0.079303
H93   H     H_    0.790358 0.703403 0.227723 0.258462
H94   H     H_    0.803803 0.625576 0.231344 0.201443
H95   H     H_    0.733813 0.660163 0.317777 0.261116
H96   H     H_    0.195868 0.527272 0.471059 0.055029
H97   H     H_    0.109511 0.460780 0.214451 0.099881
H98   H     H_    0.235039 0.461336 0.462378 0.032970
H99   H     H_    0.225728 0.493201 0.585359 0.250057
H100  H     H_    0.275055 0.537922 0.494644 0.188572
H101  H     H_    0.199649 0.564402 0.578276 0.277499
H102  H     H_    0.983548 0.510849 0.304811 0.098747
H103  H     H_    0.992447 0.583029 0.257572 0.073701
H104  H     H_    0.931756 0.546252 0.217042 0.244343
H105  H     H_    0.996723 0.497958 0.178832 0.202194
H106  H     H_    0.919948 0.475939 0.266432 0.282206
H107  H     H_    0.305969 0.024289 0.532666 0.056379
H108  H     H_    0.085447 0.557015 0.220026 0.090652
H109  H     H_    0.265634 0.959620 0.539677 0.040464
H110  H     H_    0.273249 0.997904 0.419430 0.252479
H111  H     H_    0.223898 0.038375 0.514085 0.190335
H112  H     H_    0.298453 0.067652 0.432066 0.275214
H113  H     H_    0.515748 0.012485 0.697623 0.102281
H114  H     H_    0.508497 0.086138 0.740952 0.078009
H115  H     H_    0.569969 0.051044 0.781555 0.244552
H116  H     H_    0.502339 0.005167 0.825099 0.206141
H117  H     H_    0.577570 0.978848 0.738546 0.281951
H118  H     H_    0.695865 0.030131 0.465151 0.058624
H119  H     H_    0.927829 0.439844 0.772379 0.098182
H120  H     H_    0.737547 0.964312 0.449624 0.029501
H121  H     H_    0.733098 0.993947 0.570747 0.250272
H122  H     H_    0.781315 0.037814 0.478961 0.186065
H123  H     H_    0.707747 0.065949 0.564779 0.278179
H124  H     H_    0.487332 0.009298 0.302278 0.106847
H125  H     H_    0.505696 0.087025 0.270019 0.076826
H126  H     H_    0.461720 0.074475 0.198090 0.251104
H127  H     H_    0.524213 0.023244 0.161488 0.207333
H128  H     H_    0.445034 0.997476 0.229060 0.276030
H129  H     H_    0.835802 0.729351 0.581207 0.070384
H130  H     H_    0.415161 0.057551 0.779766 0.100554
H131  H     H_    0.888137 0.771367 0.487211 0.179079
H132  H     H_    0.936657 0.817307 0.540870 0.265745
H133  H     H_    0.854018 0.829434 0.608832 0.209863
H134  H     H_    0.887187 0.774910 0.634078 0.253191
H135  H     H_    0.022867 0.297999 0.494132 0.093979
H136  H     H_    0.034117 0.278390 0.568300 0.098217
H137  H     H_    0.092048 0.188238 0.486137 0.270138
H138  H     H_    0.013999 0.189379 0.520080 0.210014
H139  H     H_    0.077862 0.207467 0.415430 0.248090
H140  H     H_    0.164942 0.713000 0.374716 0.061824
H141  H     H_    0.572310 0.939867 0.227580 0.098488
H142  H     H_    0.155781 0.747866 0.459430 0.139964
H143  H     H_    0.082324 0.820722 0.471580 0.271695
H144  H     H_    0.159571 0.823877 0.374621 0.204354
H145  H     H_    0.097684 0.789386 0.381591 0.236836
H146  H     H_    0.953147 0.267069 0.467758 0.076066
H147  H     H_    0.880866 0.262794 0.483503 0.103334
H148  H     H_    0.907300 0.168013 0.516110 0.208661
H149  H     H_    0.903858 0.205324 0.595132 0.241751
H150  H     H_    0.835231 0.199276 0.603052 0.274898
H151  H     H_    0.320789 0.218899 0.583239 0.080786
H152  H     H_    0.616185 0.034124 0.215722 0.115961
H153  H     H_    0.376223 0.270176 0.502484 0.186151
H154  H     H_    0.401921 0.307070 0.590880 0.273016
H155  H     H_    0.322142 0.318413 0.634080 0.225214
H156  H     H_    0.341541 0.259522 0.672153 0.243331
H157  H     H_    0.524063 0.789255 0.509234 0.102282
H158  H     H_    0.560557 0.773680 0.555307 0.095731
H159  H     H_    0.621299 0.692464 0.454468 0.272002
H160  H     H_    0.538844 0.681085 0.516325 0.209636
H161  H     H_    0.582077 0.706220 0.412131 0.246125
H162  H     H_    0.664144 0.228140 0.414774 0.064376
H163  H     H_    0.389658 0.960563 0.785753 0.111062
H164  H     H_    0.614784 0.271327 0.508000 0.181395
H165  H     H_    0.563813 0.317831 0.458823 0.266774
H166  H     H_    0.646739 0.327247 0.385216 0.207052
H167  H     H_    0.608388 0.273244 0.367290 0.251747
H168  H     H_    0.467945 0.779346 0.423150 0.070563
H169  H     H_    0.392365 0.765240 0.450714 0.105522
H170  H     H_    0.444411 0.672534 0.441668 0.210122
H171  H     H_    0.447759 0.699649 0.519861 0.252728
H172  H     H_    0.373728 0.685187 0.543909 0.268175
H173  H     H_    0.924454 0.304894 0.635636 0.135723
H174  H     H_    0.805844 0.528225 0.540943 0.057884
H175  H     H_    0.080920 0.693480 0.362815 0.159919
H176  H     H_    0.115740 0.320559 0.345241 0.180460
H177  H     H_    0.874883 0.669008 0.647971 0.132850
H178  H     H_    0.386057 0.819326 0.653093 0.187375
H179  H     H_    0.625629 0.168788 0.351981 0.132919
H180  H     H_    0.576920 0.805193 0.363421 0.141955
H181  H     H_    0.420300 0.193757 0.636329 0.180717
H182  H     H_    0.832118 0.176867 0.853929 0.171640
H183  H     H_    0.138179 0.828529 0.152418 0.169272
H184  H     H_    0.302153 0.254697 0.099905 0.171072
N1    N     N_R   0.945330 0.558420 0.657110 -0.070926
N2    N     N_R   0.067050 0.559540 0.548760 -0.146026
N3    N     N_R   0.067050 0.440460 0.548760 -0.122682
N4    N     N_R   0.932950 0.559540 0.451240 -0.141990
N5    N     N_R   0.432950 0.940460 0.451240 -0.126656
N6    N     N_R   0.567050 0.059540 0.548760 -0.141148
N7    N     N_R   0.567050 0.940460 0.548760 -0.122416
N8    N     N_R   0.432950 0.059540 0.451240 -0.148596
N9    N     N_R   0.935620 0.600470 0.495720 -0.111911
N10   N     N_R   0.064380 0.399530 0.504280 -0.144917
N11   N     N_R   0.064380 0.600470 0.504280 -0.112246
N12   N     N_R   0.054670 0.441580 0.342890 -0.050266
N13   N     N_R   0.935620 0.399530 0.495720 -0.131515
N14   N     N_R   0.435620 0.100470 0.495720 -0.112057
N15   N     N_R   0.564380 0.899530 0.504280 -0.142515
N16   N     N_R   0.564380 0.100470 0.504280 -0.111757
N17   N     N_R   0.435620 0.899530 0.495720 -0.125970
N18   N     N_R   0.942650 0.398400 0.612630 -0.051531
N19   N     N_R   0.057350 0.601600 0.387370 -0.038418
N20   N     N_R   0.057350 0.398400 0.387370 -0.054915
N21   N     N_R   0.942650 0.601600 0.612630 -0.029046
N22   N     N_R   0.442650 0.898400 0.612630 -0.051625
N23   N     N_R   0.054670 0.558420 0.342890 -0.063063
N24   N     N_R   0.557350 0.101600 0.387370 -0.031267
N25   N     N_R   0.557350 0.898400 0.387370 -0.051566
N26   N     N_R   0.442650 0.101600 0.612630 -0.038126
N27   N     N_R   0.945330 0.441580 0.657110 -0.052356
N28   N     N_R   0.445330 0.058420 0.657110 -0.063742
N29   N     N_R   0.554670 0.941580 0.342890 -0.053650
N30   N     N_R   0.554670 0.058420 0.342890 -0.072561
N31   N     N_R   0.445330 0.941580 0.657110 -0.052284
N32   N     N_R   0.932950 0.440460 0.451240 -0.124740
Ni1   Ni    Ni4+2 0.004930 0.500000 0.602010 0.193337
Ni2   Ni    Ni4+2 0.995070 0.500000 0.397990 0.190725
Ni3   Ni    Ni4+2 0.504930 0.000000 0.602010 0.193533
Ni4   Ni    Ni4+2 0.495070 1.000000 0.397990 0.188765
Ni5   Ni    Ni4+2 0.998800 0.599610 0.500000 0.275747
Ni6   Ni    Ni4+2 0.001200 0.400390 0.500000 0.178341
Ni7   Ni    Ni4+2 0.498800 0.099610 0.500000 0.273645
Ni8   Ni    Ni4+2 0.501200 0.900390 0.500000 0.188918
O1    O     O_3   0.852905 0.470183 0.441443 -0.592658
O2    O     O_3   0.113412 0.302210 0.452940 -0.619424
O3    O     O_3   0.077166 0.705406 0.487813 -0.599857
O4    O     O_3   0.878898 0.310861 0.570644 -0.626018
O5    O     O_3   0.415645 0.204068 0.523755 -0.624240
O6    O     O_3   0.618464 0.807883 0.436492 -0.612390
O7    O     O_3   0.569410 0.205765 0.494702 -0.613080
O8    O     O_3   0.392436 0.801429 0.542321 -0.641135
O9    O     O_3   0.762428 0.105454 0.981152 -0.616594
O10   O     O_3   0.205369 0.901165 0.026116 -0.622497
O11   O     O_3   0.371157 0.182943 0.973576 -0.623400
O12   O     O_3   0.087401 0.565973 0.646442 -0.601965
O13   O     O_3   0.640855 0.825110 0.015230 -0.618997
O14   O     O_3   0.153758 0.665335 0.010948 -0.615756
O15   O     O_3   0.889161 0.305096 0.964817 -0.620355
O16   O     O_3   0.712003 0.596804 0.025425 -0.623295
O17   O     O_3   0.274881 0.399845 0.973423 -0.619304
O18   O     O_3   0.157395 0.834582 0.558640 -0.646773
O19   O     O_3   0.696114 0.240224 0.666532 -0.636603
O20   O     O_3   0.851300 0.835137 0.420783 -0.664334
O21   O     O_3   0.296023 0.239568 0.344017 -0.628932
O22   O     O_3   0.652334 0.336307 0.570613 -0.665193
O23   O     O_3   0.141713 0.468417 0.568725 -0.590640
O24   O     O_3   0.198215 0.742571 0.661444 -0.635549
O25   O     O_3   0.346176 0.333773 0.434120 -0.666839
O26   O     O_3   0.790658 0.734670 0.349680 -0.630640
O27   O     O_3   0.904891 0.563241 0.361177 -0.597518
O28   O     O_3   0.358009 0.967851 0.431727 -0.591755
O29   O     O_3   0.595482 0.063627 0.638303 -0.599758
O30   O     O_3   0.646047 0.969183 0.561001 -0.590672
O31   O     O_3   0.412530 0.065553 0.353683 -0.596780
O32   O     O_3   0.930053 0.705749 0.505986 -0.612095

loop_
_geom_bond_atom_site_label_1
_geom_bond_atom_site_label_2
_ccdc_geom_bond_type
C17   O1    S    
C95   C158  S    
C67   O17   S    
C50   H169  S    
C19   C20   S    
C63   H36   S    
C14   C170  A    
C21   H98   S    
C147  N26   A    
C22   H101  S    
C76   O21   S    
C170  O14   S    
C80   H78   S    
N5    Ni4   S    
N10   Ni6   S    
N6    Ni3   S    
C70   H52   S    
N30   Ni4   S    
C51   H172  S    
C16   H6    S    
C60   H29   S    
C94   C152  S    
C69   H51   S    
C20   H68   S    
C85   H91   S    
C19   H57   S    
C31   H121  S    
C7    C68   S    
C49   H166  S    
C41   H146  S    
N23   Ni2   S    
C4    C12   A    
C132  N11   A    
C85   O26   S    
C61   H30   S    
C59   C60   S    
C121  N32   A    
C21   C22   S    
C89   H97   S    
N15   Ni8   S    
C59   O13   S    
N20   Ni6   S    
N16   Ni7   S    
C62   H32   S    
C23   H102  S    
N12   Ni2   S    
C45   C47   S    
C172  O16   S    
C8    H183  S    
C166  C174  S    
C15   C173  A    
N7    Ni3   S    
C37   H135  S    
C50   O8    S    
C34   O32   S    
N32   Ni2   S    
C74   C75   S    
C33   H128  S    
C46   C91   T    
C100  C150  A    
C129  C164  A    
C77   H71   S    
C127  O29   S    
N26   N28   A    
C43   C44   S    
C140  H175  S    
C71   H54   S    
C37   C38   S    
N27   Ni1   S    
C142  C148  A    
C99   C162  S    
C12   H5    S    
C100  H108  S    
C67   H47   S    
C40   H143  S    
N22   N31   A    
C78   H74   S    
C107  C110  D    
N18   Ni6   S    
C141  H176  S    
C29   H117  S    
C22   H99   S    
C20   H79   S    
C170  C174  A    
C8    C174  A    
C146  N25   A    
C38   H138  S    
C52   H8    S    
C72   C73   S    
C37   O2    S    
C5    C46   S    
C43   O5    S    
C50   H168  S    
C93   C153  S    
C101  C117  T    
C55   H16   S    
C27   H110  S    
C65   H41   S    
C144  C154  A    
C108  O19   S    
C139  N18   A    
C3    C11   A    
C133  H141  S    
N29   Ni4   S    
C155  C156  A    
C71   H55   S    
C84   H88   S    
C130  O32   S    
C124  N3    A    
C42   H149  S    
C14   H4    S    
C21   H96   S    
C131  N10   A    
C44   H155  S    
N8    N14   A    
N11   Ni5   S    
C168  O11   S    
C82   H82   S    
C124  O23   S    
C88   C149  S    
C69   H50   S    
C125  C160  A    
C125  N4    A    
C85   C86   S    
C10   C169  A    
N31   Ni3   S    
C140  N19   A    
C10   H3    S    
C105  C113  S    
C86   H95   S    
C78   C80   S    
C39   H142  S    
C16   C172  A    
C73   H60   S    
C126  N5    A    
C60   H28   S    
C43   H151  S    
C21   O23   S    
C96   C157  S    
C27   H112  S    
C74   H64   S    
C3    C24   S    
C19   H46   S    
C169  O13   S    
N24   Ni7   S    
C81   O24   S    
C48   H162  S    
C129  N8    A    
C6    C168  A    
C58   H23   S    
C111  H119  S    
C42   H148  S    
C26   H109  S    
N6    N16   A    
C39   C40   S    
C23   H103  S    
C17   H174  S    
C122  C152  A    
N4    N9    A    
C53   H10   S    
C2    C175  S    
C100  N23   A    
C83   C84   S    
C47   H159  S    
N19   Ni5   S    
C17   C18   S    
C62   H34   S    
C131  C159  A    
N26   Ni7   S    
C29   H116  S    
C31   H123  S    
N25   N29   A    
C145  C154  A    
C127  C162  A    
C57   C94   T    
C18   H24   S    
C28   O29   S    
C83   H85   S    
C52   C53   S    
C131  O2    S    
C54   C55   S    
C36   H133  S    
C54   H14   S    
C86   H93   S    
C40   H144  S    
C45   H158  S    
N1    N21   A    
N2    N11   A    
C18   H35   S    
C25   H106  S    
C89   N12   A    
C26   O28   S    
C73   H62   S    
C128  N7    A    
C133  N29   A    
N13   N32   A    
C59   H26   S    
C98   C115  T    
C56   O11   S    
C70   O18   S    
C139  C151  A    
C56   C58   S    
C9    C175  A    
C34   C36   S    
C61   C62   S    
C27   H111  S    
C63   C64   S    
C49   H165  S    
C55   H18   S    
C102  C164  S    
C80   H76   S    
C122  H130  S    
C173  O17   S    
C135  O5    S    
C172  C176  A    
C58   H21   S    
C13   C90   T    
C104  O24   S    
C41   C42   S    
N8    Ni4   S    
C64   H39   S    
C76   H69   S    
N17   Ni8   S    
C155  H163  S    
C32   H124  S    
C109  C117  S    
C18   H13   S    
N25   Ni8   S    
C44   H154  S    
C41   O4    S    
C26   C27   S    
C127  N6    A    
C28   C29   S    
C53   H12   S    
C28   H113  S    
C66   H45   S    
C30   C31   S    
C33   H127  S    
C121  O1    S    
C95   C114  T    
C4    C165  A    
C130  C160  A    
C137  N16   A    
C66   H44   S    
C2    C79   T    
C56   H20   S    
C58   H22   S    
C136  N15   A    
C87   C150  S    
C15   H7    S    
C136  O6    S    
C70   C71   S    
C126  C161  A    
C134  O4    S    
C144  H152  S    
C138  N17   A    
C35   C92   T    
C89   C149  A    
C4    C35   S    
C61   O14   S    
C78   H75   S    
C6    C57   S    
C25   H104  S    
C22   H100  S    
C12   C171  A    
C125  O27   S    
C130  N9    A    
C103  C119  T    
C126  O28   S    
C80   H77   S    
C38   H139  S    
C97   C160  S    
C39   O3    S    
C137  O7    S    
N2    Ni1   S    
C82   H84   S    
C132  C158  A    
C1    N1    A    
C43   H153  S    
C31   H122  S    
C32   H125  S    
C49   H167  S    
C134  N13   A    
N19   N23   A    
C50   C51   S    
C41   H147  S    
C97   C116  T    
C24   C88   T    
C34   H131  S    
C61   H31   S    
C48   C49   S    
C7    C169  A    
C51   H170  S    
C11   C168  A    
C133  C153  A    
C96   C113  T    
C77   H73   S    
N18   N27   A    
C42   H150  S    
C102  C120  T    
C30   H118  S    
C111  N27   A    
C44   H156  S    
C82   H83   S    
C37   H136  S    
C103  C163  S    
C69   H49   S    
C112  C119  S    
C36   H132  S    
C72   H59   S    
C77   H72   S    
C144  N30   A    
C32   C33   S    
C9    C165  A    
N13   Ni6   S    
C75   H66   S    
C145  H179  S    
N5    N17   A    
C137  C162  A    
C146  C153  A    
N9    Ni5   S    
C30   H120  S    
C138  C161  A    
C171  O15   S    
C123  O12   S    
C67   H48   S    
C112  O20   S    
C70   H53   S    
C143  H178  S    
N1    Ni1   S    
C91   C156  S    
C106  C116  S    
C92   C154  S    
C52   O9    S    
C136  C163  A    
C17   H2    S    
C13   C176  S    
C145  N24   A    
C19   O12   S    
C38   H137  S    
C135  C164  A    
C81   C82   S    
C141  C149  A    
C106  C112  D    
N28   Ni3   S    
C147  H181  S    
C66   H43   S    
C75   H65   S    
C64   H38   S    
C8    C167  A    
C40   H145  S    
C65   H42   S    
C87   C166  T    
C167  O10   S    
C56   H19   S    
C124  C159  A    
C165  O9    S    
N7    N15   A    
C107  O25   S    
C122  N28   A    
C74   H63   S    
C34   H129  S    
C90   C148  S    
C6    C15   A    
C132  O3    S    
C1    H1    S    
C3    C173  A    
N21   Ni5   S    
C54   O10   S    
C71   H56   S    
C84   H87   S    
C123  N2    A    
C29   H115  S    
C128  O30   S    
C5    C167  A    
C121  C157  A    
C74   O20   S    
C142  N21   A    
C39   H140  S    
C83   O25   S    
C72   O19   S    
C47   H161  S    
C10   C176  A    
C105  C108  D    
C36   H134  S    
C54   H15   S    
C108  C118  S    
C23   O27   S    
C76   C77   S    
C86   H94   S    
N14   Ni7   S    
C48   O7    S    
C110  C120  S    
C129  O31   S    
C45   H157  S    
C171  C175  A    
C30   O30   S    
C128  C163  A    
C67   C69   S    
C143  N22   A    
N3    Ni1   S    
N3    N10   A    
C73   H61   S    
N24   N30   A    
C59   H25   S    
C60   H27   S    
C63   O15   S    
C155  N31   A    
C139  H173  S    
C5    C14   A    
C63   H37   S    
C135  N14   A    
C107  C115  S    
C26   H107  S    
C146  H180  S    
C104  C114  S    
C55   H17   S    
C109  O18   S    
C110  O21   S    
C52   H9    S    
C140  C150  A    
C105  O22   S    
C79   C151  S    
C45   O6    S    
C141  N20   A    
C7    C16   A    
N12   N20   A    
C51   H171  S    
C64   H40   S    
C76   H70   S    
C9    H182  S    
C83   H86   S    
C111  C151  A    
C11   H184  S    
C123  C158  A    
C85   H92   S    
C81   H81   S    
C68   C93   T    
C101  C161  S    
C147  C152  A    
C53   H11   S    
C28   H114  S    
C99   C118  T    
N4    Ni2   S    
C33   H126  S    
C106  O26   S    
C143  C156  A    
C47   H160  S    
C65   O16   S    
C20   H90   S    
N22   Ni8   S    
C62   H33   S    
C72   H58   S    
C84   H89   S    
C23   C25   S    
C81   H80   S    
C32   O31   S    
C78   O22   S    
C75   H67   S    
C48   H164  S    
C134  C157  A    
C98   C159  S    
C142  H177  S    
C65   C66   S    
C104  C109  D    
C1    C148  A    
C138  O8    S    
C25   H105  S    
