data_mof_unit_17834.cif
_audit_creation_date              2012-12-10T19:41:58-0500
_audit_creation_method            fapswitch 2.2
_symmetry_space_group_name_H-M    P1
_symmetry_Int_Tables_number       1
_space_group_crystal_system       triclinic
_cell_length_a                    18.453771
_cell_length_b                    18.376226
_cell_length_c                    18.368444
_cell_angle_alpha                 119.810898
_cell_angle_beta                  90.107504
_cell_angle_gamma                 120.365408
_cell_volume                      4388.47343498

loop_
_atom_site_label
_atom_site_type_symbol
_atom_type_description
_atom_site_fract_x
_atom_site_fract_y
_atom_site_fract_z
_atom_type_partial_charge
C1    C     C_R   0.140001 0.779709 0.141070 0.840895
C2    C     C_R   0.793088 0.108894 0.804124 -0.169857
C3    C     C_R   0.734707 0.054510 0.836255 0.450589
C4    C     C_R   0.858264 0.220129 0.860196 0.886413
C5    C     C_R   0.682510 0.945402 0.782806 -0.022449
C6    C     C_R   0.685961 0.891796 0.696246 -0.117211
C7    C     C_R   0.733048 0.947717 0.662314 -0.094217
C8    C     C_3   0.798918 0.944608 0.615119 0.147985
C9    C     C_3   0.856084 0.063858 0.672148 0.591441
C10   C     C_R   0.791168 0.573077 0.237578 -0.177665
C11   C     C_R   0.805399 0.497173 0.196302 -0.222232
C12   C     C_R   0.717551 0.650689 0.845642 0.601035
C13   C     C_R   0.762580 0.417128 0.209825 0.399725
C14   C     C_R   0.701332 0.412508 0.256977 0.415514
C15   C     C_R   0.693488 0.496096 0.302302 -0.252524
C16   C     C_R   0.139835 0.500608 0.859951 0.883037
C17   C     C_R   0.741804 0.575612 0.291821 -0.166213
C18   C     C_3   0.775335 0.685286 0.328771 0.955580
C19   C     C_3   0.830070 0.679837 0.263334 0.476287
C20   C     C_R   0.163520 0.945837 0.203763 -0.105224
C21   C     C_R   0.195294 0.891200 0.203334 -0.086135
C22   C     C_R   0.278048 0.945562 0.267432 0.038658
C23   C     C_R   0.725019 0.567757 0.792609 -0.166616
C24   C     C_R   0.332438 0.055025 0.322209 0.039303
C25   C     C_R   0.303354 0.108289 0.311541 -0.135115
C26   C     C_R   0.216641 0.052069 0.255826 0.000316
C27   C     C_3   0.179791 0.057957 0.187059 0.583366
C28   C     C_R   0.860941 0.500030 0.140640 0.882960
C29   C     C_3   0.118298 0.938085 0.129324 0.088197
C30   C     C_R   0.286226 0.554468 0.215155 -0.044145
C31   C     C_R   0.193692 0.488931 0.186399 -0.137108
C32   C     C_R   0.154945 0.409858 0.200399 -0.034414
C33   C     C_R   0.209011 0.412779 0.257886 0.462417
C34   C     C_R   0.748967 0.533812 0.835534 -0.117860
C35   C     C_R   0.302862 0.488963 0.294440 -0.222776
C36   C     C_R   0.339691 0.551447 0.263809 -0.143931
C37   C     C_3   0.417643 0.662833 0.304617 0.571498
C38   C     C_3   0.353697 0.666325 0.252693 0.138044
C39   C     C_R   0.283696 0.544121 0.835478 -0.077568
C40   C     C_R   0.139686 0.498519 0.138854 0.870341
C41   C     C_R   0.194522 0.503211 0.803337 -0.250446
C42   C     C_R   0.159425 0.464920 0.713390 0.380833
C43   C     C_R   0.215958 0.471549 0.660998 0.411416
C44   C     C_R   0.304067 0.505179 0.694693 -0.250564
C45   C     C_R   0.800160 0.495347 0.802158 -0.186572
C46   C     C_R   0.335396 0.543714 0.783164 -0.065665
C47   C     C_3   0.416711 0.593265 0.855112 0.222997
C48   C     C_3   0.356995 0.592820 0.915884 0.163085
C49   C     C_R   0.639311 0.499328 0.359499 0.875921
C50   C     C_R   0.360073 0.501439 0.639752 0.863574
C51   C     C_R   0.638504 0.780049 0.640167 0.857802
C52   C     C_R   0.857865 0.497627 0.859597 0.806623
C53   C     C_R   0.359875 0.220048 0.360797 0.857718
C54   C     C_R   0.359719 0.498422 0.358525 0.843337
C55   C     C_R   0.644922 0.505536 0.640730 0.853233
C56   C     C_R   0.806335 0.468980 0.716840 0.474939
C57   C     C_R   0.722233 0.542966 0.910673 0.173028
C58   C     C_R   0.698572 0.611426 0.955241 0.013260
C59   C     C_R   0.703842 0.671723 0.926709 -0.020183
C60   C     C_3   0.945250 0.526021 0.708116 -0.268328
C61   C     C_3   0.008028 0.132685 0.697020 -0.345735
C62   C     C_3   0.851035 0.373559 0.234276 -0.240365
C63   C     C_3   0.678272 0.312119 0.307002 -0.177882
C64   C     C_3   0.731426 0.780825 0.318555 -0.332457
C65   C     C_3   0.870545 0.735111 0.458326 -0.350018
C66   C     C_3   0.961995 0.846175 0.332938 -0.265658
C67   C     C_R   0.753692 0.469363 0.662354 -0.016300
C68   C     C_3   0.095872 0.106128 0.154419 -0.199038
C69   C     C_3   0.128661 0.360800 0.338514 -0.242201
C70   C     C_3   0.491775 0.592636 0.220502 -0.234653
C71   C     C_3   0.019872 0.324954 0.613154 -0.207230
C72   C     C_3   0.204420 0.540168 0.591956 -0.321035
C73   C     C_3   0.820101 0.777908 0.832579 -0.316969
C74   C     C_3   0.677608 0.136983 0.922288 -0.248193
C75   C     C_R   0.710727 0.517403 0.699560 -0.137299
C76   C     C_R   0.785360 0.054024 0.714919 -0.117422
H1    H     H_    0.983163 0.572253 0.780006 0.159100
H2    H     H_    0.897976 0.189179 0.669141 0.220949
H3    H     H_    0.844764 0.395521 0.300883 0.094329
H4    H     H_    0.913756 0.440628 0.243807 0.166677
H5    H     H_    0.858189 0.309393 0.207389 0.187907
H6    H     H_    0.625284 0.271743 0.328840 0.190036
H7    H     H_    0.733041 0.387838 0.368531 0.113175
H8    H     H_    0.701567 0.263032 0.271797 0.167172
H9    H     H_    0.799197 0.847814 0.368036 0.182274
H10   H     H_    0.684063 0.799711 0.341878 0.226761
H11   H     H_    0.728361 0.771482 0.253968 0.166840
H12   H     H_    0.941694 0.575965 0.692882 0.108258
H13   H     H_    0.900341 0.699192 0.414182 0.188369
H14   H     H_    0.822912 0.683748 0.475868 0.158878
H15   H     H_    0.926484 0.806498 0.520395 0.179998
H16   H     H_    0.839747 0.675276 0.149097 0.230875
H17   H     H_    0.734214 0.611926 0.148189 0.192511
H18   H     H_    0.939401 0.882893 0.386680 0.177328
H19   H     H_    0.948531 0.851660 0.277539 0.157529
H20   H     H_    0.035494 0.891400 0.361598 0.182790
H21   H     H_    0.316284 0.909767 0.341176 0.172350
H22   H     H_    0.367002 0.910907 0.264199 0.185515
H23   H     H_    0.983161 0.500270 0.669101 0.228970
H24   H     H_    0.753285 0.513423 0.994511 0.218294
H25   H     H_    0.705440 0.411481 0.885119 0.157797
H26   H     H_    0.457158 0.092336 0.355268 0.181740
H27   H     H_    0.406407 0.091415 0.432265 0.168607
H28   H     H_    0.058745 0.030221 0.088300 0.137305
H29   H     H_    0.147068 0.167117 0.147633 0.195181
H30   H     H_    0.047316 0.123788 0.175673 0.189367
H31   H     H_    0.217596 0.078394 0.089050 0.169942
H32   H     H_    0.292422 0.085149 0.148760 0.147320
H33   H     H_    0.988125 0.813924 0.086099 0.213813
H34   H     H_    0.717653 0.909387 0.507708 0.164114
H35   H     H_    0.014100 0.923894 0.178440 0.203387
H36   H     H_    0.197728 0.907000 0.057335 0.159861
H37   H     H_    0.089793 0.808116 0.011375 0.187115
H38   H     H_    0.053640 0.256841 0.124291 0.197838
H39   H     H_    0.030365 0.332956 0.205163 0.181964
H40   H     H_    0.056197 0.297621 0.308003 0.147645
H41   H     H_    0.155899 0.362776 0.393841 0.250064
H42   H     H_    0.137339 0.435565 0.367511 0.097633
H43   H     H_    0.481059 0.805928 0.424020 0.164882
H44   H     H_    0.389259 0.711680 0.423305 0.118647
H45   H     H_    0.723065 0.813965 0.488467 0.290996
H46   H     H_    0.550424 0.614724 0.198192 0.203791
H47   H     H_    0.432026 0.533586 0.159079 0.124053
H48   H     H_    0.495637 0.559777 0.255987 0.221873
H49   H     H_    0.380331 0.807785 0.347817 0.160034
H50   H     H_    0.293397 0.708990 0.346367 0.150055
H51   H     H_    0.709845 0.695759 0.084593 0.180796
H52   H     H_    0.603834 0.596991 0.013533 0.175158
H53   H     H_    0.440505 0.755126 0.214718 0.192925
H54   H     H_    0.390378 0.627526 0.139244 0.199617
H55   H     H_    0.030604 0.281481 0.632281 0.124221
H56   H     H_    0.041130 0.209600 0.709304 0.178149
H57   H     H_    0.031222 0.308216 0.549033 0.191234
H58   H     H_    0.948811 0.296083 0.602147 0.189864
H59   H     H_    0.277662 0.600584 0.618528 0.140192
H60   H     H_    0.171623 0.570365 0.636826 0.173176
H61   H     H_    0.177564 0.522562 0.527027 0.164671
H62   H     H_    0.486692 0.551881 0.892457 0.162028
H63   H     H_    0.391938 0.449951 0.803697 0.157938
H64   H     H_    0.464729 0.734099 0.875585 0.171417
H65   H     H_    0.529805 0.739698 0.945206 0.184343
H66   H     H_    0.396116 0.549052 0.982540 0.164796
H67   H     H_    0.984559 0.072398 0.624300 0.167206
H68   H     H_    0.305011 0.448327 0.889493 0.166789
H69   H     H_    0.374815 0.732387 0.966643 0.170140
H70   H     H_    0.345228 0.688252 0.030008 0.249835
H71   H     H_    0.747921 0.809552 0.040036 0.174733
H72   H     H_    0.635685 0.725924 0.992131 0.171562
H73   H     H_    0.838416 0.730601 0.781572 0.143204
H74   H     H_    0.865132 0.820140 0.900835 0.154487
H75   H     H_    0.830517 0.836416 0.821949 0.191480
H76   H     H_    0.811220 0.465311 0.567291 0.180433
H77   H     H_    0.724311 0.348482 0.539713 0.206935
H78   H     H_    0.058806 0.133938 0.731008 0.180646
H79   H     H_    0.704447 0.194442 0.905946 0.127585
H80   H     H_    0.673867 0.174471 0.990214 0.234159
H81   H     H_    0.608524 0.069588 0.875490 0.119905
H82   H     H_    0.582067 0.907179 0.832848 0.178487
H83   H     H_    0.669286 0.915511 0.876087 0.237098
H84   H     H_    0.895376 0.919402 0.613417 0.213055
H85   H     H_    0.861009 0.935184 0.701389 0.197692
H86   H     H_    0.797610 0.085178 0.594073 0.149048
N1    N     N_3   0.761823 0.893679 0.519525 -0.425171
N2    N     N_3   0.061428 0.327224 0.157090 -0.397890
N3    N     N_3   0.444646 0.728788 0.402165 -0.419574
N4    N     N_3   0.324535 0.730936 0.306415 -0.436411
N5    N     N_3   0.669164 0.618814 0.029185 -0.460041
N6    N     N_3   0.380019 0.682173 0.183744 -0.385113
N7    N     N_3   0.446324 0.526588 0.833477 -0.415876
N8    N     N_3   0.489712 0.695530 0.879107 -0.373414
N9    N     N_3   0.336419 0.524773 0.944445 -0.443505
N10   N     N_3   0.385238 0.696032 0.990456 -0.467065
N11   N     N_3   0.695442 0.754633 0.979157 -0.408339
N12   N     N_3   0.861093 0.109135 0.623178 -0.486667
N13   N     N_3   0.747668 0.425451 0.570550 -0.424684
N14   N     N_3   0.628197 0.889881 0.817293 -0.398620
N15   N     N_3   0.839174 0.901112 0.632944 -0.434198
N16   N     N_3   0.799216 0.678320 0.188444 -0.505141
N17   N     N_3   0.306495 0.889728 0.276089 -0.415932
N18   N     N_3   0.704824 0.473059 0.934081 -0.439020
N19   N     N_3   0.416942 0.111995 0.387514 -0.430574
N20   N     N_3   0.248501 0.106067 0.153546 -0.469290
N21   N     N_3   0.023099 0.893285 0.116557 -0.438067
N22   N     N_3   0.133223 0.888229 0.044886 -0.483227
O1    O     O_3   1.000000 0.500000 0.000000 -0.506576
O2    O     O_R   0.323450 0.268330 0.384170 -0.610356
O3    O     O_R   0.444860 0.560620 0.384150 -0.640726
O4    O     O_R   0.055050 0.731580 0.115780 -0.652898
O5    O     O_R   0.615780 0.439200 0.555040 -0.633751
O6    O     O_R   0.323420 0.439190 0.384160 -0.589092
O7    O     O_R   0.615760 0.560630 0.676470 -0.590726
O8    O     O_R   0.615740 0.731500 0.676460 -0.601146
O9    O     O_R   0.444900 0.268330 0.384170 -0.624911
O10   O     O_R   0.615750 0.560630 0.384150 -0.617565
O11   O     O_R   0.323430 0.439200 0.555040 -0.611129
O12   O     O_R   0.055090 0.439280 0.823480 -0.601624
O13   O     O_R   0.884220 0.268410 0.823490 -0.663145
O14   O     O_R   0.176520 0.560720 0.944920 -0.654822
O15   O     O_R   0.884200 0.439290 0.115800 -0.617477
O16   O     O_R   0.176530 0.560720 0.115800 -0.610470
O17   O     O_R   0.884180 0.560710 0.944910 -0.675328
O18   O     O_R   0.055100 0.439290 0.115810 -0.633698
O19   O     O_R   0.884190 0.439280 0.823480 -0.589840
O20   O     O_3   0.860214 0.437826 0.683929 -0.591243
O21   O     O_3   0.939292 0.114635 0.734508 -0.616009
O22   O     O_3   0.775580 0.340006 0.173440 -0.566927
O23   O     O_R   0.884180 0.560710 0.115790 -0.652510
O24   O     O_3   0.640320 0.320772 0.247449 -0.575861
O25   O     O_3   0.702725 0.686815 0.306343 -0.634311
O26   O     O_3   0.828121 0.761447 0.421532 -0.626594
O27   O     O_3   0.924390 0.743353 0.302951 -0.600301
O28   O     O_3   0.135715 0.106224 0.220314 -0.569469
O29   O     O_3   0.170340 0.337769 0.274212 -0.599009
O30   O     O_3   0.494430 0.681866 0.277675 -0.624649
O31   O     O_3   0.073452 0.432214 0.680292 -0.600468
O32   O     O_3   0.185603 0.449017 0.578704 -0.590050
O33   O     O_3   0.729655 0.716926 0.823354 -0.544687
O34   O     O_R   0.176500 0.731590 0.115790 -0.624661
O35   O     O_3   0.733979 0.106320 0.922124 -0.582082
O36   O     O_R   0.884220 0.268420 0.944930 -0.590707
O37   O     O_3   0.499960 0.499910 0.499960 -0.521931
O38   O     O_R   0.615770 0.439200 0.384160 -0.626846
O39   O     O_R   0.444870 0.560630 0.676470 -0.617168
O40   O     O_R   0.615730 0.731500 0.555020 -0.649633
Zn1   Zn    Zn3+2 0.956630 0.413250 0.869870 0.978057
Zn2   Zn    Zn3+2 0.130130 0.586750 0.043370 0.975558
Zn3   Zn    Zn3+2 0.956630 0.413250 0.043380 0.999029
Zn4   Zn    Zn3+2 0.956610 0.586750 0.043370 0.922926
Zn5   Zn    Zn3+2 0.543330 0.586660 0.630080 1.014916
Zn6   Zn    Zn3+2 0.543320 0.586660 0.456570 0.978551
Zn7   Zn    Zn3+2 0.369830 0.413160 0.456580 1.012518
Zn8   Zn    Zn3+2 0.543350 0.413170 0.456590 0.965856

loop_
_geom_bond_atom_site_label_1
_geom_bond_atom_site_label_2
_ccdc_geom_bond_type
O17   Zn4   S    
C69   H40   S    
C1    C21   S    
C29   N22   S    
C14   O24   S    
C49   O38   A    
C27   C29   S    
C53   O9    A    
C41   C42   A    
O10   Zn6   S    
C35   C36   A    
C43   C44   A    
C60   H23   S    
C61   H78   S    
C71   H58   S    
C60   H12   S    
C16   O14   A    
C7    C8    S    
C39   C41   A    
C38   N6    S    
C72   H60   S    
C12   C23   A    
C26   C27   S    
C19   O27   S    
C55   O5    A    
C62   H4    S    
C36   C37   S    
C18   O26   S    
C10   C19   S    
C25   C53   S    
O6    Zn7   S    
H70   N10   S    
C30   C31   A    
C73   H74   S    
H21   N17   S    
H37   N22   S    
C49   O10   A    
C37   O30   S    
C10   C17   A    
H45   N1    S    
C69   H42   S    
C31   C40   S    
C30   C38   S    
C38   N4    S    
C52   O17   A    
H39   N2    S    
H65   N8    S    
C42   O31   S    
C61   H56   S    
C48   N10   S    
H76   N13   S    
C8    N15   S    
C61   H67   S    
C47   C48   S    
C45   C56   A    
C67   N13   S    
C8    C9    S    
C4    O36   A    
O37   Zn6   S    
H52   N5    S    
H63   N7    S    
C1    O34   A    
C9    C76   S    
C6    C51   S    
C54   O6    A    
H43   N3    S    
C64   H11   S    
C74   H81   S    
C66   H18   S    
C55   C75   S    
H33   N21   S    
H69   N10   S    
O38   Zn8   S    
C14   C15   A    
H51   N5    S    
C65   H15   S    
C21   C22   A    
C73   H75   S    
H62   N7    S    
C12   C59   A    
O37   Zn7   S    
H66   N9    S    
C65   H14   S    
C68   H30   S    
C43   O32   S    
C70   H47   S    
C64   H10   S    
C47   N7    S    
C44   C46   A    
H44   N3    S    
C20   C29   S    
O8    Zn5   S    
C60   H1    S    
C50   O39   A    
C28   O15   A    
O12   Zn1   S    
H31   N20   S    
O11   Zn7   S    
C70   O30   S    
C62   H3    S    
C9    N12   S    
O5    Zn8   S    
C69   O29   S    
C24   C25   A    
H36   N22   S    
C33   O29   S    
C18   C19   S    
C72   H59   S    
C37   N3    S    
O2    Zn7   S    
C63   H6    S    
C45   C52   S    
C59   N11   S    
C25   C26   A    
O1    Zn4   S    
O36   Zn3   S    
C63   H7    S    
C55   O7    A    
C74   O35   S    
C2    C4    S    
C53   O2    A    
C37   C38   S    
C16   O12   A    
O40   Zn6   S    
C34   C57   A    
C48   N9    S    
C50   O11   A    
C70   H46   S    
H38   N2    S    
C31   C32   A    
O3    Zn6   S    
H17   N16   S    
C51   O40   A    
O7    Zn5   S    
C23   C34   A    
O1    Zn1   S    
C18   O25   S    
H35   N21   S    
C17   C18   S    
C74   H80   S    
H68   N9    S    
C34   C45   A    
O16   Zn2   S    
C58   N5    S    
C73   O33   S    
C19   N16   S    
C65   O26   S    
C6    C7    A    
H16   N16   S    
H83   N14   S    
C39   C46   A    
H86   N12   S    
H82   N14   S    
C72   H61   S    
C72   O32   S    
C62   H5    S    
C40   O18   A    
C54   O3    A    
C70   H48   S    
C5    N14   S    
C22   C24   A    
C64   O25   S    
C67   C75   A    
C42   C43   A    
H85   N15   S    
H24   N18   S    
C3    C5    A    
C64   H9    S    
O19   Zn1   S    
C47   N8    S    
C2    C76   A    
C66   H20   S    
C1    O4    A    
C44   C50   S    
C15   C17   A    
H77   N13   S    
C46   C47   S    
C4    O13   A    
H64   N8    S    
C29   N21   S    
H53   N6    S    
C73   H73   S    
C24   N19   S    
H27   N19   S    
H26   N19   S    
O13   Zn1   S    
C68   H28   S    
C23   C75   A    
C22   N17   S    
H50   N4    S    
C8    N1    S    
C12   O33   S    
C71   H57   S    
C57   N18   S    
O14   Zn2   S    
H34   N1    S    
H71   N11   S    
C7    C76   A    
C56   O20   S    
H32   N20   S    
C56   C67   A    
C40   O16   A    
C65   H13   S    
H72   N11   S    
C68   O28   S    
C30   C36   A    
C63   H8    S    
C63   O24   S    
C52   O19   A    
C32   C33   A    
H49   N4    S    
C58   C59   A    
C27   N20   S    
H25   N18   S    
C9    O21   S    
C11   C13   A    
C57   C58   A    
C5    C6    A    
O18   Zn3   S    
C20   C26   A    
C11   C28   S    
C71   O31   S    
O1    Zn2   S    
C32   N2    S    
O37   Zn8   S    
C69   H41   S    
C27   O28   S    
C33   C35   A    
C62   O22   S    
C74   H79   S    
C2    C3    A    
C15   C49   S    
O4    Zn4   S    
H84   N15   S    
C60   O20   S    
C10   C11   A    
C71   H55   S    
H54   N6    S    
O23   Zn4   S    
C20   C21   A    
C3    O35   S    
C68   H29   S    
O37   Zn5   S    
H2    N12   S    
C28   O23   A    
C13   O22   S    
C39   C48   S    
O9    Zn8   S    
C66   O27   S    
C13   C14   A    
O15   Zn3   S    
C16   C41   S    
O34   Zn2   S    
C51   O8    A    
O39   Zn5   S    
H22   N17   S    
C61   O21   S    
C66   H19   S    
C35   C54   S    
O1    Zn3   S    
