data_mof_unit_49903.cif
_audit_creation_date              2012-12-10T18:35:03-0500
_audit_creation_method            fapswitch 2.2
_symmetry_space_group_name_H-M    P1
_symmetry_Int_Tables_number       1
_space_group_crystal_system       triclinic
_cell_length_a                    15.111565
_cell_length_b                    13.795973
_cell_length_c                    10.812185
_cell_angle_alpha                 90.072989
_cell_angle_beta                  90.258626
_cell_angle_gamma                 90.242651
_cell_volume                      2254.06567248

loop_
_atom_site_label
_atom_site_type_symbol
_atom_type_description
_atom_site_fract_x
_atom_site_fract_y
_atom_site_fract_z
_atom_type_partial_charge
C1    C     C_R   0.329648 0.499884 0.504123 0.828508
C2    C     C_R   0.670057 0.500281 0.494914 0.822475
C3    C     C_R   0.232571 0.500538 0.506287 -0.172127
C4    C     C_R   0.766574 0.501736 0.487592 -0.177503
C5    C     C_R   0.182519 0.423841 0.558370 -0.000580
C6    C     C_R   0.813819 0.434482 0.414412 -0.003260
C7    C     C_R   0.090340 0.425747 0.547573 -0.237574
C8    C     C_R   0.906382 0.436557 0.417918 -0.224816
C9    C     C_R   0.047844 0.504483 0.492502 -0.008226
C10   C     C_R   0.951309 0.505670 0.489280 -0.010379
C11   C     C_R   0.559707 0.107628 0.426138 -0.225631
C12   C     C_R   0.440904 0.106931 0.573739 -0.217976
C13   C     C_R   0.558259 0.209541 0.427281 0.068262
C14   C     C_R   0.442209 0.208827 0.573019 0.075866
C15   C     C_R   0.500299 0.054725 0.499781 0.204840
C16   C     C_R   0.422610 0.893442 0.469607 0.288568
C17   C     C_R   0.577678 0.893937 0.529247 0.284739
C18   C     C_R   0.425309 0.790628 0.468055 -0.094250
C19   C     C_R   0.574872 0.791260 0.531330 -0.092775
C20   C     C_R   0.500214 0.945724 0.499545 -0.029075
C21   C     C_R   0.491512 0.499712 0.262045 0.896701
C22   C     C_R   0.507948 0.500007 0.738168 0.894346
C23   C     C_R   0.437147 0.672364 0.102879 -0.033559
C24   C     C_R   0.553072 0.675961 0.899000 -0.036174
C25   C     C_R   0.461169 0.762465 0.049105 -0.068804
C26   C     C_R   0.524403 0.764454 0.952159 -0.069695
C27   C     C_R   0.515899 0.587528 0.941698 -0.001659
C28   C     C_R   0.477957 0.586360 0.059291 -0.003531
C29   C     C_R   0.481722 0.498468 0.126782 -0.217075
C30   C     C_R   0.516295 0.499438 0.873744 -0.218430
C31   C     C_R   0.491148 0.409857 0.062975 0.310956
C32   C     C_R   0.509455 0.410365 0.937121 0.309311
C33   C     C_R   0.096912 0.582085 0.444547 0.510270
C34   C     C_R   0.904377 0.573440 0.559699 0.511164
C35   C     C_R   0.188993 0.580001 0.452888 -0.255762
C36   C     C_R   0.812307 0.572361 0.556294 -0.271699
Cu1   Cu    Cu3+1 0.500000 0.596430 0.500000 0.950266
Cu2   Cu    Cu3+1 0.500000 0.403570 0.500000 0.968216
H1    H     H_    0.367599 0.750196 0.440018 0.133799
H2    H     H_    0.632796 0.751534 0.559190 0.139924
H3    H     H_    0.226370 0.640766 0.416794 0.162061
H4    H     H_    0.776656 0.625699 0.609875 0.186460
H5    H     H_    0.050775 0.368032 0.587427 0.194325
H6    H     H_    0.944127 0.385852 0.362756 0.196786
H7    H     H_    0.606141 0.070371 0.366945 0.162223
H8    H     H_    0.394563 0.069122 0.632851 0.163690
H9    H     H_    0.603490 0.249251 0.369030 0.152026
H10   H     H_    0.397425 0.247918 0.632062 0.147900
N1    N     N_R   0.500000 0.258690 0.500000 -0.193894
N2    N     N_R   0.500000 0.741330 0.500000 -0.197136
O1    O     O_R   0.371460 0.581430 0.500010 -0.584091
O2    O     O_R   0.628540 0.581430 0.499990 -0.582834
O3    O     O_R   0.371470 0.418560 0.500010 -0.602604
O4    O     O_R   0.628530 0.418560 0.499990 -0.602920
O5    O     O_R   0.500000 0.581450 0.319650 -0.580428
O6    O     O_R   0.500000 0.581450 0.680350 -0.580461
O7    O     O_R   0.500010 0.418580 0.319650 -0.554113
O8    O     O_R   0.499990 0.418580 0.680350 -0.553409
O9    O     O_3   0.484528 0.321577 0.123078 -0.558109
C37   C     C_3   0.395522 0.290109 0.116658 0.104043
H11   H     H_    0.374403 0.279018 0.018759 0.169216
H12   H     H_    0.350659 0.343505 0.161481 0.150284
C38   C     C_3   0.386116 0.193867 0.183975 -0.680433
H13   H     H_    0.399529 0.203991 0.284087 0.247206
H14   H     H_    0.317651 0.165610 0.172518 0.205438
H15   H     H_    0.433237 0.140112 0.145751 0.271944
O10   O     O_3   0.518487 0.322485 0.876604 -0.559843
C39   C     C_3   0.608470 0.295347 0.881338 0.108325
H16   H     H_    0.630829 0.285359 0.978830 0.173400
H17   H     H_    0.651144 0.350805 0.835807 0.147672
C40   C     C_3   0.620232 0.199597 0.813541 -0.687640
H18   H     H_    0.604459 0.208746 0.713975 0.247308
H19   H     H_    0.689876 0.175130 0.822412 0.203845
H20   H     H_    0.575930 0.143429 0.853458 0.272349
O11   O     O_3   0.348656 0.944915 0.430458 -0.580635
C41   C     C_3   0.269760 0.907209 0.481502 0.039130
H21   H     H_    0.278776 0.884083 0.579600 0.149672
H22   H     H_    0.245501 0.845063 0.425026 0.147758
C42   C     C_3   0.199233 0.985492 0.478638 -0.701350
H23   H     H_    0.187270 0.009283 0.381912 0.247429
H24   H     H_    0.136470 0.956649 0.517292 0.209549
H25   H     H_    0.221089 0.048804 0.534723 0.262267
O12   O     O_3   0.652162 0.945286 0.567622 -0.579501
C43   C     C_3   0.728390 0.913803 0.504078 0.044823
H26   H     H_    0.714470 0.898514 0.404457 0.146437
H27   H     H_    0.755782 0.847910 0.548998 0.154868
C44   C     C_3   0.798489 0.993099 0.510556 -0.712983
H28   H     H_    0.815328 0.009225 0.608568 0.251102
H29   H     H_    0.859185 0.969049 0.462003 0.208256
H30   H     H_    0.773506 0.060081 0.465698 0.251353
C45   C     C_2   0.358037 0.666021 0.185203 0.363210
H31   H     H_    0.331053 0.729783 0.229108 0.023239
O13   O     O_2   0.318797 0.589364 0.199983 -0.591738
C46   C     C_2   0.633644 0.674457 0.819341 0.370160
H32   H     H_    0.658158 0.739624 0.775556 0.037766
O14   O     O_2   0.676728 0.600425 0.806832 -0.595167
C47   C     C_2   0.419994 0.853684 0.094097 0.414195
H33   H     H_    0.408891 0.864756 0.192060 0.070080
O15   O     O_2   0.396655 0.916562 0.021718 -0.518336
C48   C     C_2   0.560967 0.858123 0.906609 0.418044
H34   H     H_    0.572100 0.869095 0.808626 0.064835
O16   O     O_2   0.580537 0.923189 0.978490 -0.519138
O17   O     O_3   0.054304 0.662828 0.398004 -0.560001
C49   C     C_3   0.062165 0.663547 0.268026 0.041212
H35   H     H_    0.035282 0.595278 0.226941 0.146895
H36   H     H_    0.132416 0.673142 0.239766 0.161628
C50   C     C_3   0.009323 0.748112 0.216673 -0.752480
H37   H     H_    0.034673 0.817353 0.255947 0.251700
H38   H     H_    0.015582 0.750552 0.114499 0.199560
H39   H     H_    0.938368 0.739648 0.240971 0.251458
O18   O     O_3   0.948609 0.642233 0.629788 -0.556479
C51   C     C_3   0.955408 0.607827 0.752353 0.049624
H40   H     H_    0.985407 0.534115 0.755612 0.140665
H41   H     H_    0.889043 0.605640 0.796695 0.170660
C52   C     C_3   0.014709 0.675857 0.826490 -0.751768
H42   H     H_    0.985443 0.749540 0.829163 0.251841
H43   H     H_    0.021761 0.648402 0.922490 0.192771
H44   H     H_    0.081275 0.679891 0.783559 0.253478
C53   C     C_2   0.223740 0.346204 0.633493 0.370691
H45   H     H_    0.286800 0.358632 0.678968 0.064641
O19   O     O_2   0.186572 0.268302 0.648132 -0.556092
C54   C     C_2   0.768455 0.366598 0.328015 0.358241
H46   H     H_    0.700498 0.378935 0.299948 0.072318
O20   O     O_2   0.807138 0.296766 0.285064 -0.552128

loop_
_geom_bond_atom_site_label_1
_geom_bond_atom_site_label_2
_ccdc_geom_bond_type
C44   H28   S    
C38   H14   S    
C16   O11   S    
C36   H4    S    
O18   C51   S    
C41   C42   S    
C18   H1    S    
C13   H9    S    
C42   H25   S    
C49   H36   S    
C47   H33   S    
C21   O5    A    
Cu2   N1    S    
C5    C53   S    
C37   C38   S    
C28   C29   A    
C41   H22   S    
Cu1   O1    S    
C14   N1    A    
C52   H42   S    
C17   C20   A    
C37   H12   S    
C31   O9    S    
C1    O3    A    
C51   H40   S    
C33   C35   A    
Cu2   O8    S    
Cu1   O6    S    
C11   C15   A    
C31   C32   A    
C39   H16   S    
C52   H43   S    
C50   H37   S    
C24   C27   A    
C7    H5    S    
C9    C10   S    
C34   C36   A    
C38   H15   S    
O9    C37   S    
C27   C30   A    
C9    C33   A    
C34   O18   S    
C50   H38   S    
C51   H41   S    
C49   H35   S    
C47   O15   D    
C53   O19   D    
C15   C20   S    
O10   C39   S    
C51   C52   S    
C43   H26   S    
C4    C6    A    
C2    O4    A    
C45   H31   S    
C5    C7    A    
Cu1   O2    S    
C22   O6    A    
C25   C26   A    
C21   C29   S    
C42   H23   S    
C37   H11   S    
C1    C3    S    
C2    C4    S    
O11   C41   S    
C21   O7    A    
Cu1   Cu2   S    
C24   C46   S    
C45   O13   D    
Cu2   O7    S    
O12   C43   S    
Cu2   O4    S    
C12   C15   A    
C3    C35   A    
C16   C20   A    
C52   H44   S    
C48   O16   D    
C10   C34   A    
C16   C18   A    
C23   C28   A    
C41   H21   S    
C46   O14   D    
C1    O1    A    
C2    O2    A    
C32   O10   S    
C13   N1    A    
C12   H8    S    
C12   C14   A    
C44   H29   S    
C50   H39   S    
C4    C36   A    
C11   H7    S    
C6    C54   S    
C54   O20   D    
C27   C28   A    
C18   N2    A    
C42   H24   S    
C25   C47   S    
C7    C9    A    
C22   C30   S    
C33   O17   S    
C8    H6    S    
C24   C26   A    
C3    C5    A    
C22   O8    A    
C40   H20   S    
C6    C8    A    
C53   H45   S    
C43   C44   S    
C40   H18   S    
C29   C31   A    
C30   C32   A    
Cu1   N2    S    
C11   C13   A    
C19   N2    A    
Cu2   O3    S    
C39   C40   S    
C48   H34   S    
C17   C19   A    
C23   C45   S    
C23   C25   A    
C46   H32   S    
C35   H3    S    
C19   H2    S    
C38   H13   S    
Cu1   O5    S    
C8    C10   A    
C44   H30   S    
C40   H19   S    
O17   C49   S    
C39   H17   S    
C14   H10   S    
C43   H27   S    
C17   O12   S    
C54   H46   S    
C49   C50   S    
C26   C48   S    
