data_mof_unit_41740.cif
_audit_creation_date              2013-03-05T16:04:40-0500
_audit_creation_method            fapswitch 2.2
_symmetry_space_group_name_H-M    P1
_symmetry_Int_Tables_number       1
_space_group_crystal_system       triclinic
_cell_length_a                    9.52624
_cell_length_b                    10.79112
_cell_length_c                    15.427483
_cell_angle_alpha                 89.897561
_cell_angle_beta                  74.455021
_cell_angle_gamma                 90.173456
_cell_volume                      1527.90154194

loop_
_atom_site_label
_atom_site_type_symbol
_atom_site_description
_atom_site_fract_x
_atom_site_fract_y
_atom_site_fract_z
_atom_type_partial_charge
O1    O     O_R   0.118740 0.319660 0.500000 -0.565756
O2    O     O_R   0.881260 0.680340 0.500000 -0.565581
O3    O     O_R   0.881170 0.319630 0.500010 -0.586916
O4    O     O_R   0.118830 0.680370 0.499990 -0.585230
C1    C     C_R   0.998502 0.262376 0.502845 0.840913
C2    C     C_R   0.001514 0.737629 0.497124 0.842856
O5    O     O_R   0.055570 0.500030 0.629830 -0.569900
O6    O     O_R   0.944430 0.499970 0.370170 -0.569297
O7    O     O_R   0.818000 0.500000 0.629840 -0.595324
O8    O     O_R   0.182000 0.500000 0.370160 -0.595596
C3    C     C_R   0.918311 0.501207 0.672313 0.861053
C4    C     C_R   0.081679 0.496914 0.327807 0.861893
Cu1   Cu    Cu3+1 0.140660 0.500020 0.500000 0.985226
Cu2   Cu    Cu3+1 0.859340 0.499980 0.500000 0.984804
C5    C     C_R   0.873698 0.507983 0.770902 -0.095665
C6    C     C_R   0.127027 0.476272 0.230431 -0.091075
C7    C     C_R   0.918601 0.575672 0.911081 0.337038
C8    C     C_R   0.092734 0.370332 0.098765 0.336573
C9    C     C_R   0.967861 0.554786 0.818398 -0.230102
C10   C     C_R   0.038123 0.410856 0.187608 -0.245411
C11   C     C_R   0.731131 0.476192 0.816531 -0.210477
C12   C     C_R   0.269648 0.505525 0.183698 -0.199537
C13   C     C_R   0.678304 0.490237 0.910173 0.060926
C14   C     C_R   0.330551 0.463666 0.095559 0.062784
C15   C     C_R   0.773766 0.541713 0.957745 0.045749
C16   C     C_R   0.238743 0.399667 0.051443 0.058387
C17   C     C_R   0.532029 0.457748 0.957147 0.106205
C18   C     C_R   0.480079 0.485031 0.050275 0.096301
C19   C     C_R   0.580393 0.528571 0.096160 -0.191097
C20   C     C_R   0.436159 0.398041 0.914451 -0.185492
C21   C     C_R   0.723651 0.555340 0.051016 -0.083191
C22   C     C_R   0.293877 0.368940 0.960727 -0.091137
H1    H     H_    0.795322 0.584757 0.090872 0.192868
H2    H     H_    0.226203 0.325695 0.923143 0.192460
H3    H     H_    0.330891 0.562030 0.218220 0.148401
H4    H     H_    0.662557 0.443493 0.776258 0.150525
H5    H     H_    0.928925 0.384334 0.225153 0.187528
H6    H     H_    0.077372 0.582641 0.782397 0.189978
H7    H     H_    0.553101 0.538549 0.168248 0.136938
H8    H     H_    0.467700 0.369113 0.845262 0.133296
C23   C     C_R   0.930059 0.067477 0.446576 -0.208710
C24   C     C_R   0.070051 0.932559 0.553329 -0.209081
H9    H     H_    0.880300 0.121180 0.403252 0.187359
H10   H     H_    0.119863 0.878873 0.596633 0.187253
C25   C     C_R   0.934380 0.939034 0.439420 -0.004571
C26   C     C_R   0.065691 0.060998 0.560503 -0.002035
C27   C     C_R   0.003515 0.871598 0.494767 -0.121751
C28   C     C_R   0.996537 0.128423 0.505168 -0.121210
C29   C     C_R   0.547901 0.429281 0.560203 -0.001536
C30   C     C_R   0.452108 0.570679 0.439773 -0.004802
H11   H     H_    0.582638 0.372348 0.608355 0.124989
H12   H     H_    0.417382 0.627575 0.391599 0.127428
C31   C     C_R   0.399140 0.429423 0.560240 -0.004738
C32   C     C_R   0.600865 0.570547 0.439743 -0.007520
H13   H     H_    0.321992 0.372828 0.608478 0.150377
H14   H     H_    0.678014 0.627126 0.391494 0.151353
N1    N     N_R   0.352080 0.500030 0.499980 -0.166779
N2    N     N_R   0.647920 0.499970 0.500020 -0.166797
N3    N     N_R   0.014042 0.638315 0.955023 0.110232
O9    O     O_R   0.153622 0.617988 0.929057 -0.361879
O10   O     O_R   0.967526 0.734281 0.005420 -0.322958
N4    N     N_R   0.002201 0.292144 0.060610 0.112082
O11   O     O_R   0.053597 0.188634 0.021855 -0.322370
O12   O     O_R   0.862045 0.309542 0.081795 -0.357958
C33   C     C_2   0.872928 0.880279 0.370439 0.849572
O13   O     O_2   0.927951 0.786645 0.331337 -0.599602
O14   O     O_R   0.754633 0.935076 0.347786 -0.746471
H15   H     H_    0.723098 0.887286 0.299631 0.344266
C34   C     C_2   0.127114 0.119777 0.629492 0.844675
O15   O     O_2   0.071881 0.213268 0.668710 -0.605266
O16   O     O_R   0.245635 0.065176 0.652005 -0.748836
H16   H     H_    0.277137 0.112984 0.700168 0.339367

loop_
_geom_bond_atom_site_label_1
_geom_bond_atom_site_label_2
_geom_bond_distance
_ccdc_geom_bond_type
C15   C21   1.397530 A    
O5    Cu1   1.949012 S    
C30   H12   1.081723 S    
O7    Cu2   1.935123 S    
C21   H1    1.081390 S    
C16   C22   1.397567 A    
N4    O11   1.301410 A    
C12   H3    1.077667 S    
C9    H6    1.083551 S    
C13   C17   1.429928 A    
C23   H9    1.085069 S    
N4    O12   1.300986 A    
C8    C16   1.421293 A    
C6    C10   1.396416 A    
O6    C4    1.296160 A    
C7    C15   1.421205 A    
C19   H7    1.077799 S    
C3    C5    1.467462 S    
C11   C13   1.405290 A    
O2    Cu2   1.956828 S    
C20   H8    1.075616 S    
N3    O9    1.301225 A    
C19   C21   1.385058 A    
C11   H4    1.074336 S    
C30   C32   1.416973 A    
Cu1   Cu2   2.679922 S    
C17   C20   1.415445 A    
C20   C22   1.386865 A    
C10   H5    1.083595 S    
O7    C3    1.295467 A    
O2    C2    1.290295 A    
O3    Cu2   1.957888 S    
C24   H10   1.085034 S    
C7    N3    1.439244 S    
O1    C1    1.290231 A    
O8    C4    1.294579 A    
C12   C14   1.403765 A    
C18   C19   1.412845 A    
C7    C9    1.399179 A    
C23   C28   1.398961 A    
C14   C16   1.422012 A    
O5    C3    1.296243 A    
C8    C10   1.400654 A    
C24   C27   1.399030 A    
C31   H13   1.081411 S    
C25   C33   1.487053 S    
C34   O15   1.222907 D    
Cu2   N2    2.013954 S    
C1    C28   1.445827 S    
C32   H14   1.081394 S    
N3    O10   1.301648 A    
C29   C31   1.416989 A    
O1    Cu1   1.956828 S    
C2    C27   1.446007 S    
O14   H15   1.013995 S    
C26   C28   1.412181 A    
C14   C18   1.426294 A    
C5    C11   1.393426 A    
C13   C15   1.424889 A    
O16   H16   1.014024 S    
O4    C2    1.289688 A    
C33   O13   1.222903 D    
C24   C26   1.390469 A    
C25   C27   1.412259 A    
C32   N2    1.367002 A    
C17   C18   1.420230 A    
C34   O16   1.398598 S    
C29   H11   1.081737 S    
C23   C25   1.390488 A    
C8    N4    1.439326 S    
C26   C34   1.487087 S    
O6    Cu2   1.949012 S    
Cu1   N1    2.013953 S    
C22   H2    1.081245 S    
C5    C9    1.395535 A    
C30   N1    1.367717 A    
C33   O14   1.398604 S    
C29   N2    1.367732 A    
C4    C6    1.465268 S    
O4    Cu1   1.957888 S    
C6    C12   1.391729 A    
O3    C1    1.289669 A    
O8    Cu1   1.935125 S    
C31   N1    1.367007 A    
