data_mof_unit_5123.cif
_audit_creation_date              2013-03-05T15:44:46-0500
_audit_creation_method            fapswitch 2.2
_symmetry_space_group_name_H-M    P1
_symmetry_Int_Tables_number       1
_space_group_crystal_system       triclinic
_cell_length_a                    12.933404
_cell_length_b                    13.02838
_cell_length_c                    15.312616
_cell_angle_alpha                 117.104345
_cell_angle_beta                  63.919653
_cell_angle_gamma                 97.253319
_cell_volume                      2054.10126899

loop_
_atom_site_label
_atom_site_type_symbol
_atom_site_description
_atom_site_fract_x
_atom_site_fract_y
_atom_site_fract_z
_atom_type_partial_charge
C1    C     C_R   0.000913 0.833603 0.054958 -0.116639
H1    H     H_    0.030607 0.895756 0.113281 0.095833
N1    N     N_R   0.037310 0.720000 0.995790 -0.044787
C2    C     C_R   0.678547 0.472230 0.220467 0.352059
N2    N     N_R   0.790790 0.446160 0.152010 -0.082710
C3    C     C_R   0.756102 0.518622 0.891684 -0.159730
H2    H     H_    0.779077 0.547456 0.829992 0.094459
N3    N     N_R   0.824890 0.517960 0.936420 -0.045930
C4    C     C_R   0.015446 0.700217 0.303453 -0.126438
H3    H     H_    0.998556 0.660651 0.356339 0.084506
N4    N     N_R   0.003210 0.648190 0.211380 -0.036126
C5    C     C_R   0.678442 0.418463 0.985931 -0.080028
H4    H     H_    0.635441 0.350948 0.006452 0.158553
N5    N     N_R   0.774330 0.457010 0.995840 -0.062475
C6    C     C_R   0.096651 0.799953 0.208991 -0.144381
H5    H     H_    0.154375 0.853757 0.175733 0.091074
N6    N     N_R   0.053760 0.709140 0.151960 -0.038819
C7    C     C_R   0.782603 0.566238 0.313574 -0.189196
H6    H     H_    0.808231 0.616671 0.378388 0.125539
N7    N     N_R   0.853860 0.498840 0.211410 -0.057175
C8    C     C_R   0.900459 0.748403 0.957292 -0.142647
H7    H     H_    0.836366 0.731947 0.926331 0.103205
N8    N     N_R   0.974240 0.667310 0.936390 -0.042821
C9    C     C_R   0.912834 0.853569 0.033932 0.127128
C10   C     C_R   0.671354 0.550334 0.322796 -0.116626
C11   C     C_R   0.664243 0.455961 0.921371 0.133302
C12   C     C_R   0.074930 0.795838 0.304268 0.049781
C13   C     C_R   0.338708 0.514981 0.949497 -0.110172
H8    H     H_    0.397939 0.553242 0.899459 0.088213
N9    N     N_R   0.225670 0.542990 0.004160 -0.046436
C14   C     C_R   0.978039 0.178254 0.779751 -0.121136
H9    H     H_    0.948986 0.108903 0.802015 0.089660
N10   N     N_R   0.946240 0.290860 0.848040 -0.041756
C15   C     C_R   0.201524 0.506564 0.693913 -0.134920
H10   H     H_    0.167991 0.483950 0.634622 0.095310
N11   N     N_R   0.146140 0.501160 0.788590 -0.038566
C16   C     C_R   0.052268 0.255669 0.087936 -0.133265
H11   H     H_    0.089860 0.275731 0.143796 0.099350
N12   N     N_R   0.025760 0.332690 0.063610 -0.042934
C17   C     C_R   0.950835 0.171618 0.993882 -0.084128
H12   H     H_    0.894141 0.113877 0.963159 0.102136
N13   N     N_R   0.962690 0.280000 0.004210 -0.043010
C18   C     C_R   0.301982 0.590774 0.791221 -0.155314
H13   H     H_    0.358992 0.647521 0.822514 0.095726
N14   N     N_R   0.209210 0.553840 0.847990 -0.036631
C19   C     C_R   0.259949 0.415044 0.045761 -0.129178
H14   H     H_    0.250023 0.359961 0.083781 0.110139
N15   N     N_R   0.175110 0.482040 0.063580 -0.045037
C20   C     C_R   0.060598 0.279127 0.685121 -0.125201
H15   H     H_    0.108630 0.304867 0.621560 0.096809
N16   N     N_R   0.996790 0.351810 0.788620 -0.042023
Ni1   Ni    Ni4+2 0.130310 0.630310 0.999970 0.210811
Ni2   Ni    Ni4+2 0.869690 0.369690 0.000030 0.256833
Ni3   Ni    Ni4+2 0.985640 0.509470 0.863740 0.205977
Ni4   Ni    Ni4+2 0.014360 0.490530 0.136260 0.212277
C21   C     C_R   0.362787 0.432263 0.972063 0.144461
C22   C     C_R   0.053108 0.168519 0.677049 0.038728
C23   C     C_R   0.300068 0.560349 0.694109 0.055708
C24   C     C_R   0.008364 0.151767 0.043672 0.045647
C25   C     C_R   0.164807 0.972722 0.382285 -0.165636
H16   H     H_    0.198818 0.983161 0.308779 0.114878
C26   C     C_R   0.160861 0.066285 0.476323 -0.160540
H17   H     H_    0.192916 0.145082 0.471412 0.118311
C27   C     C_R   0.102260 0.061513 0.576118 0.139885
C28   C     C_R   0.072636 0.954702 0.576833 -0.169288
H18   H     H_    0.034781 0.945776 0.651272 0.108437
C29   C     C_R   0.077336 0.860823 0.482678 -0.166435
H19   H     H_    0.042853 0.783001 0.488341 0.107053
C30   C     C_R   0.111879 0.873909 0.387902 0.139930
C31   C     C_R   0.595186 0.548675 0.497084 -0.166732
H20   H     H_    0.680439 0.521045 0.479939 0.120855
C32   C     C_R   0.503872 0.551357 0.588171 -0.182135
H21   H     H_    0.520300 0.526907 0.640116 0.117642
C33   C     C_R   0.392044 0.575624 0.606922 0.141705
C34   C     C_R   0.371237 0.606004 0.539165 -0.187751
H22   H     H_    0.284102 0.626865 0.555530 0.119567
C35   C     C_R   0.464386 0.606879 0.448448 -0.082838
H23   H     H_    0.449868 0.630270 0.395106 0.151250
C36   C     C_R   0.575377 0.572562 0.425225 0.168215
C37   C     C_2   0.477141 0.388484 0.941233 -0.175877
H24   H     H_    0.480801 0.341932 0.983235 0.151699
C38   C     C_2   0.570186 0.432266 0.889826 -0.208719
H25   H     H_    0.567679 0.474571 0.844000 0.126817
C39   C     C_2   0.833625 0.959358 0.092187 -0.223248
H26   H     H_    0.777455 0.965732 0.058765 0.151370
C40   C     C_2   0.823147 0.045092 0.187848 -0.083297
H27   H     H_    0.874204 0.043289 0.227568 0.115043
N17   N     N_R   0.592182 0.397373 0.200374 0.217108
O1    O     O_R   0.618800 0.285960 0.144733 -0.435764
O2    O     O_R   0.489342 0.439495 0.231161 -0.448496

loop_
_geom_bond_atom_site_label_1
_geom_bond_atom_site_label_2
_geom_bond_distance
_ccdc_geom_bond_type
N15   Ni4   1.866736 S    
N1    N8    1.380558 A    
C18   H13   1.081693 S    
C2    C10   1.393619 A    
C13   C21   1.377131 A    
N2    N7    1.380542 A    
C35   H23   1.082322 S    
C4    C12   1.377048 A    
C26   H17   1.080231 S    
N8    Ni3   1.826433 S    
N9    N15   1.374828 A    
C13   H8    1.076063 S    
C39   C40   1.335836 D    
C15   H10   1.081375 S    
N13   Ni2   1.818523 S    
C37   H24   1.083147 S    
C6    H5    1.080248 S    
C20   C22   1.383568 A    
C25   C26   1.383348 A    
C1    H1    1.079291 S    
C20   H15   1.076493 S    
C26   C27   1.403500 A    
C18   C23   1.364481 A    
N12   Ni4   1.826432 S    
C20   N16   1.330147 A    
C14   N10   1.338363 A    
C31   H20   1.083432 S    
C4    H3    1.079674 S    
C15   N11   1.336802 A    
C12   C30   1.459929 S    
C17   N13   1.343711 A    
C11   C38   1.447205 S    
C17   C24   1.388802 A    
C8    H7    1.079786 S    
C7    C10   1.380514 A    
N7    Ni4   1.867575 S    
N6    Ni1   1.871975 S    
N12   N13   1.380558 A    
C35   C36   1.398333 A    
N10   Ni2   1.871976 S    
C19   N15   1.342334 A    
C33   C34   1.397197 A    
C29   H19   1.079983 S    
C39   H26   1.085089 S    
C32   C33   1.393504 A    
N3    Ni3   1.866737 S    
C40   H27   1.084714 S    
C7    H6    1.080107 S    
C3    N3    1.343138 A    
N14   Ni1   1.872359 S    
C28   C29   1.383173 A    
C5    C11   1.368230 A    
C25   H16   1.080719 S    
C1    N1    1.346122 A    
C34   H22   1.083343 S    
C16   H11   1.079906 S    
C34   C35   1.385882 A    
C6    C12   1.384711 A    
C14   H9    1.075220 S    
N11   N14   1.380542 A    
C5    H4    1.075367 S    
C4    N4    1.330611 A    
C16   C24   1.386551 A    
C37   C38   1.340175 D    
C17   H12   1.080004 S    
N17   O2    1.299890 A    
C38   H25   1.083591 S    
C8    N8    1.344290 A    
N4    Ni4   1.827303 S    
C23   C33   1.422317 S    
C22   C27   1.460435 S    
N2    Ni2   1.872359 S    
C6    N6    1.337499 A    
N9    Ni1   1.819292 S    
C19   H14   1.078041 S    
N4    N6    1.374814 A    
N3    N5    1.374827 A    
C31   C36   1.397608 A    
C10   C36   1.431705 S    
C5    N5    1.323620 A    
C32   H21   1.084383 S    
N1    Ni1   1.818522 S    
C3    H2    1.081753 S    
C2    N17   1.430793 S    
N10   N16   1.374812 A    
C21   C37   1.445449 S    
N16   Ni3   1.827303 S    
C27   C28   1.399618 A    
C14   C22   1.392384 A    
C13   N9    1.323461 A    
C9    C39   1.475647 S    
C18   N14   1.321035 A    
C3    C11   1.379477 A    
C25   C30   1.399969 A    
C7    N7    1.323885 A    
N11   Ni3   1.867573 S    
C2    N2    1.335531 A    
N5    Ni2   1.819291 S    
N17   O1    1.301052 A    
C1    C9    1.393792 A    
C16   N12   1.342754 A    
C28   H18   1.080850 S    
C8    C9    1.387344 A    
C19   C21   1.388697 A    
C15   C23   1.375267 A    
C31   C32   1.363472 A    
C29   C30   1.403911 A    
