data_mof_unit_26667.cif
_audit_creation_date              2012-12-10T17:04:36-0500
_audit_creation_method            fapswitch 2.2
_symmetry_space_group_name_H-M    P1
_symmetry_Int_Tables_number       1
_space_group_crystal_system       triclinic
_cell_length_a                    14.92625
_cell_length_b                    10.578533
_cell_length_c                    10.014884
_cell_angle_alpha                 91.968562
_cell_angle_beta                  90.192516
_cell_angle_gamma                 90.515973
_cell_volume                      1580.32043867

loop_
_atom_site_label
_atom_site_type_symbol
_atom_type_description
_atom_site_fract_x
_atom_site_fract_y
_atom_site_fract_z
_atom_type_partial_charge
Br1   Br    Br    0.747589 0.716072 0.696687 -0.330742
Br2   Br    Br    0.554413 0.936131 0.696423 -0.362368
Br3   Br    Br    0.261375 0.769217 0.566964 -0.378720
Br4   Br    Br    0.911329 0.894095 0.620974 -0.208880
C1    C     C_R   0.498334 0.261880 0.497267 0.923494
C2    C     C_R   0.184512 0.404980 0.445766 -0.232878
C3    C     C_R   0.232139 0.506923 0.500376 -0.129301
C4    C     C_R   0.327189 0.500125 0.499836 0.919665
C5    C     C_R   0.190149 0.614988 0.553198 0.307656
C6    C     C_2   0.568875 0.934981 0.408502 0.401144
C7    C     C_2   0.541872 0.867609 0.513803 -0.043525
C8    C     C_2   0.567141 0.072067 0.421125 -0.141428
C9    C     C_2   0.500369 0.128213 0.487926 -0.319964
C10   C     C_2   0.555722 0.437152 0.922921 -0.048786
C11   C     C_2   0.552426 0.431934 0.072780 -0.060903
C12   C     C_R   0.907670 0.619447 0.558463 -0.066290
C13   C     C_R   0.511933 0.737162 0.502570 0.948357
C14   C     C_R   0.672997 0.504533 0.500419 0.907211
C15   C     C_R   0.813923 0.611302 0.569541 0.284505
C16   C     C_R   0.768614 0.512590 0.500261 -0.139205
C17   C     C_R   0.813431 0.418729 0.428591 -0.178623
C18   C     C_R   0.906108 0.414249 0.431588 0.018540
C19   C     C_R   0.953680 0.515524 0.497756 -0.040855
C20   C     C_R   0.952283 0.311003 0.371191 0.437979
C21   C     C_R   0.045196 0.309686 0.378071 -0.228050
C22   C     C_R   0.092267 0.409200 0.441417 0.092521
C23   C     C_R   0.047331 0.513424 0.501417 -0.004957
C24   C     C_R   0.096294 0.614055 0.566192 -0.104246
C25   C     C_R   0.049286 0.711882 0.634615 0.364830
C26   C     C_R   0.957460 0.723561 0.612318 0.229715
H1    H     H_    0.617201 0.127563 0.369738 0.208471
H2    H     H_    0.803216 0.159902 0.123467 0.410476
H3    H     H_    0.204049 0.775692 0.914968 0.399139
H4    H     H_    0.678285 0.933997 0.082601 0.413463
H5    H     H_    0.446759 0.076091 0.535045 0.187164
H6    H     H_    0.606363 0.381250 0.871436 0.181905
H7    H     H_    0.449967 0.549294 0.899199 0.189173
H8    H     H_    0.596979 0.366513 0.120364 0.176064
H9    H     H_    0.461890 0.567976 0.104522 0.203412
H10   H     H_    0.774131 0.345823 0.376892 0.209715
H11   H     H_    0.081513 0.230936 0.333143 0.202654
H12   H     H_    0.219885 0.323800 0.403519 0.161297
N1    N     N_2   0.500970 0.501330 0.852150 -0.177677
N2    N     N_2   0.500990 0.501360 0.147810 -0.173088
O1    O     O_R   0.499990 0.319060 0.613040 -0.594321
O2    O     O_2   0.835178 0.118155 0.384602 -0.258240
O3    O     O_3   0.836120 0.234987 0.160466 -0.545384
O4    O     O_2   0.126216 0.926135 0.734279 -0.211659
O5    O     O_2   0.023581 0.814662 0.880157 -0.213255
O6    O     O_3   0.180598 0.718845 0.842094 -0.523053
O7    O     O_2   0.660665 0.755333 0.271767 -0.262945
O8    O     O_2   0.521855 0.831029 0.170090 -0.277384
O9    O     O_3   0.662198 0.977071 0.168474 -0.531242
O10   O     O_R   0.500010 0.319100 0.386900 -0.622089
O11   O     O_R   0.367830 0.499950 0.613080 -0.590734
O12   O     O_R   0.367860 0.499990 0.386940 -0.609709
O13   O     O_R   0.499990 0.680900 0.613100 -0.552306
O14   O     O_R   0.500010 0.680940 0.386960 -0.560103
O15   O     O_R   0.632140 0.500010 0.613060 -0.595494
O16   O     O_R   0.632170 0.500050 0.386920 -0.592391
O17   O     O_2   0.963019 0.086134 0.234759 -0.225175
S1    S     S_3+6 0.896723 0.181187 0.288160 0.067612
S2    S     S_3+6 0.094877 0.797809 0.775478 0.114438
S3    S     S_3+6 0.603097 0.869014 0.251562 0.077726
Zn1   Zn    Zn3+2 0.499980 0.499970 0.650990 1.053293
Zn2   Zn    Zn3+2 0.500020 0.500030 0.349010 1.044348

loop_
_geom_bond_atom_site_label_1
_geom_bond_atom_site_label_2
_ccdc_geom_bond_type
H7    N1    S    
C25   S2    S    
C11   H8    S    
C2    C3    A    
O5    S2    D    
C19   C23   A    
C2    H12   S    
C1    O10   A    
C1    C9    S    
C15   C16   A    
C10   C11   S    
C13   O14   A    
N1    Zn1   S    
C6    S3    S    
C4    O12   A    
O3    S1    S    
C13   O13   A    
O15   Zn1   S    
C21   C22   A    
O16   Zn2   S    
C3    C4    S    
C1    O1    A    
C2    C22   A    
C17   C18   A    
C16   C17   A    
O1    Zn1   S    
O6    S2    S    
C22   C23   A    
C25   C26   A    
C17   H10   S    
C6    C8    S    
O2    S1    D    
C12   C15   A    
O12   Zn2   S    
Br2   C7    S    
C4    O11   A    
C14   O16   A    
C24   C25   A    
O11   Zn1   S    
C11   N2    D    
C9    H5    S    
C12   C19   A    
C14   C16   S    
C8    H1    S    
C10   H6    S    
O17   S1    D    
O9    S3    S    
C18   C20   A    
Br3   C5    S    
Br1   C15   S    
C6    C7    D    
H9    N2    S    
C12   C26   A    
C14   O15   A    
H2    O3    S    
C20   C21   A    
H4    O9    S    
O8    S3    D    
C21   H11   S    
C23   C24   A    
C3    C5    A    
C18   C19   A    
C7    C13   S    
O4    S2    D    
C20   S1    S    
C8    C9    D    
H3    O6    S    
O10   Zn2   S    
N2    Zn2   S    
O14   Zn2   S    
Br4   C26   S    
O7    S3    D    
C5    C24   A    
O13   Zn1   S    
C10   N1    D    
