data_mof_unit_14654.cif
_audit_creation_date              2012-10-26T18:27:58-0400
_audit_creation_method            fapswitch 2.2
_symmetry_space_group_name_H-M    P1
_symmetry_Int_Tables_number       1
_space_group_crystal_system       triclinic
_cell_length_a                    15.85402
_cell_length_b                    11.029852
_cell_length_c                    9.823096
_cell_angle_alpha                 111.159965
_cell_angle_beta                  98.034406
_cell_angle_gamma                 90.778839
_cell_volume                      1582.38007626

loop_
_atom_site_label
_atom_site_type_symbol
_atom_type_description
_atom_site_fract_x
_atom_site_fract_y
_atom_site_fract_z
_atom_type_partial_charge
C1    C     C_R   0.493716 0.254095 0.440667 0.556346
C2    C     C_2   0.500264 0.069621 0.516730 -0.171999
C3    C     C_2   0.508835 0.885303 0.592907 -0.134019
C4    C     C_R   0.340304 0.500688 0.501470 0.547958
C5    C     C_2   0.497222 0.930483 0.483530 -0.167353
C6    C     C_2   0.507547 0.510449 0.081142 -0.027875
C7    C     C_2   0.492425 0.489581 0.918863 -0.026344
C8    C     C_R   0.505936 0.745921 0.559370 0.560335
C9    C     C_R   0.659676 0.499435 0.498516 0.547885
C10   C     C_3   0.051922 0.377914 0.537025 0.224863
C11   C     C_3   0.036617 0.483620 0.345131 -0.158993
C12   C     C_3   0.952629 0.374920 0.533102 0.183089
C13   C     C_3   0.938260 0.481492 0.340539 0.184464
C14   C     C_1   0.748965 0.496725 0.495330 -0.054824
C15   C     C_3   0.082655 0.495540 0.499970 0.028292
C16   C     C_3   0.851327 0.198594 0.480307 0.008886
C17   C     C_3   0.892023 0.112180 0.559729 -0.267441
C18   C     C_3   0.824355 0.041492 0.605685 -0.474618
C19   C     C_3   0.110171 0.175167 0.501940 0.023717
C20   C     C_3   0.207222 0.202179 0.545580 -0.274873
C21   C     C_3   0.247199 0.101152 0.602629 -0.483267
C22   C     C_3   0.838343 0.549868 0.186120 0.000458
C23   C     C_3   0.916652 0.492069 0.494527 0.074777
C24   C     C_3   0.871248 0.507991 0.037461 -0.285229
C25   C     C_3   0.797709 0.475559 0.909022 -0.467240
C26   C     C_3   0.960814 0.620193 0.613931 -0.262377
C27   C     C_3   0.058403 0.623027 0.615437 -0.290031
C28   C     C_1   0.824409 0.494138 0.494306 -0.048821
C29   C     C_1   0.175172 0.499436 0.502905 -0.050922
C30   C     C_1   0.250842 0.500937 0.503686 -0.040835
C31   C     C_2   0.489955 0.114753 0.407256 -0.135457
Cu1   Cu    Cu3+1 0.514650 0.521810 0.644910 0.921054
Cu2   Cu    Cu3+1 0.485350 0.478190 0.355090 0.929553
H1    H     H_    0.082754 0.395573 0.652819 0.047922
H2    H     H_    0.416623 0.377533 0.065839 0.200523
H3    H     H_    0.059417 0.566535 0.317330 0.138952
H4    H     H_    0.053363 0.393215 0.259242 0.128021
H5    H     H_    0.911158 0.384952 0.257026 0.140436
H6    H     H_    0.091444 0.635524 0.727854 0.111098
H7    H     H_    0.079495 0.708484 0.590627 0.139795
H8    H     H_    0.946926 0.628406 0.724845 0.094526
H9    H     H_    0.804826 0.136951 0.383477 0.154320
H10   H     H_    0.813976 0.272358 0.553406 0.113943
H11   H     H_    0.928874 0.038964 0.485150 0.178279
H12   H     H_    0.941486 0.388645 0.647494 0.044347
H13   H     H_    0.936413 0.172894 0.660181 0.137042
H14   H     H_    0.787610 0.113022 0.682307 0.148319
H15   H     H_    0.855759 0.979885 0.662975 0.147513
H16   H     H_    0.779832 0.977817 0.507054 0.152806
H17   H     H_    0.935390 0.706300 0.592557 0.173364
H18   H     H_    0.096335 0.074114 0.420083 0.159092
H19   H     H_    0.079773 0.179452 0.599045 0.103978
H20   H     H_    0.235987 0.200390 0.447999 0.180090
H21   H     H_    0.222198 0.300250 0.633503 0.151819
H22   H     H_    0.220137 0.102201 0.701400 0.142601
H23   H     H_    0.485622 0.864632 0.368493 0.157105
H24   H     H_    0.317269 0.124214 0.634032 0.154400
H25   H     H_    0.235282 0.002224 0.515476 0.151851
H26   H     H_    0.800145 0.635733 0.197508 0.153827
H27   H     H_    0.794033 0.472132 0.189783 0.128049
H28   H     H_    0.913953 0.588191 0.036118 0.170344
H29   H     H_    0.908665 0.420880 0.022505 0.144348
H30   H     H_    0.755536 0.392810 0.905322 0.151772
H31   H     H_    0.823602 0.447750 0.803469 0.138335
H32   H     H_    0.759635 0.561558 0.920539 0.157144
H33   H     H_    0.511309 0.135485 0.631778 0.153684
H34   H     H_    0.520479 0.951448 0.707747 0.100730
H35   H     H_    0.478851 0.048587 0.292417 0.102617
H36   H     H_    0.442630 0.417682 0.846320 0.144618
H37   H     H_    0.557139 0.582675 0.153747 0.142389
H38   H     H_    0.584116 0.621254 0.933850 0.195658
N1    N     N_2   0.463320 0.445430 0.137380 -0.351074
N2    N     N_2   0.536720 0.554500 0.862620 -0.352876
O1    O     O_R   0.507820 0.332330 0.577400 -0.497745
O2    O     O_3   0.075827 0.260435 0.433246 -0.531058
O3    O     O_3   0.907349 0.588564 0.304577 -0.588496
O4    O     O_R   0.483070 0.295500 0.332660 -0.489380
O5    O     O_R   0.391820 0.518430 0.622420 -0.493574
O6    O     O_R   0.367070 0.481600 0.377680 -0.484489
O7    O     O_R   0.516930 0.704500 0.667340 -0.487971
O8    O     O_R   0.492180 0.667670 0.422600 -0.495799
O9    O     O_R   0.632930 0.518400 0.622320 -0.491684
O10   O     O_R   0.608180 0.481570 0.377580 -0.493588
O11   O     O_3   0.913791 0.254625 0.426439 -0.547080

loop_
_geom_bond_atom_site_label_1
_geom_bond_atom_site_label_2
_ccdc_geom_bond_type
C24   H28   S    
C1    O4    A    
C5    H23   S    
C19   C20   S    
C22   O3    S    
C18   H14   S    
C7    N2    D    
C4    O5    A    
C12   C23   S    
C12   O11   S    
C26   C27   S    
C1    O1    A    
C11   H3    S    
C10   C15   S    
C26   H17   S    
C22   H27   S    
C1    C31   S    
C13   C23   S    
C25   H30   S    
C23   C26   S    
C11   H4    S    
Cu2   N1    S    
C11   C15   S    
C19   H19   S    
C27   H6    S    
C16   C17   S    
C9    O9    A    
C15   C29   S    
C31   H35   S    
C3    H34   S    
C8    O8    A    
C25   H32   S    
C24   C25   S    
C4    O6    A    
C20   H21   S    
C3    C8    S    
C22   H26   S    
C21   H22   S    
C12   H12   S    
C3    C5    D    
C16   O11   S    
C2    C31   D    
C25   H31   S    
C6    N1    D    
C9    C14   S    
C21   H24   S    
C29   C30   T    
Cu1   O7    S    
C10   O2    S    
C15   C27   S    
C13   O3    S    
C27   H7    S    
C17   C18   S    
C10   H1    S    
C23   C28   S    
C17   H13   S    
Cu2   O10   S    
C16   H10   S    
C13   H5    S    
C10   C12   S    
C9    O10   A    
H2    N1    S    
C22   C24   S    
C2    C5    S    
C16   H9    S    
Cu1   N2    S    
H38   N2    S    
C6    H37   S    
C24   H29   S    
Cu2   O6    S    
C20   H20   S    
C2    H33   S    
C18   H15   S    
C7    H36   S    
C6    C7    S    
Cu1   O9    S    
Cu1   Cu2   S    
C19   O2    S    
C17   H11   S    
C21   H25   S    
Cu1   O1    S    
C11   C13   S    
Cu2   O4    S    
Cu1   O5    S    
C19   H18   S    
C20   C21   S    
C26   H8    S    
C8    O7    A    
C14   C28   T    
Cu2   O8    S    
C4    C30   S    
C18   H16   S    
