data_mof_unit_24156.cif
_audit_creation_date              2012-12-10T17:45:34-0500
_audit_creation_method            fapswitch 2.2
_symmetry_space_group_name_H-M    P1
_symmetry_Int_Tables_number       1
_space_group_crystal_system       triclinic
_cell_length_a                    11.532216
_cell_length_b                    10.670714
_cell_length_c                    9.934867
_cell_angle_alpha                 93.28729
_cell_angle_beta                  89.952649
_cell_angle_gamma                 93.459147
_cell_volume                      1218.31508475

loop_
_atom_site_label
_atom_site_type_symbol
_atom_type_description
_atom_site_fract_x
_atom_site_fract_y
_atom_site_fract_z
_atom_type_partial_charge
Br1   Br    Br    0.212670 0.218738 0.475950 -0.545253
Br2   Br    Br    0.160070 0.138155 0.137923 -0.443578
C1    C     C_R   0.490449 0.259754 0.495974 0.896084
C2    C     C_R   0.503886 0.874823 0.519003 -0.092254
C3    C     C_R   0.344806 0.333819 0.130311 -0.178079
C4    C     C_R   0.283034 0.509170 0.500643 0.940789
C5    C     C_R   0.264821 0.255501 0.054864 0.318371
C6    C     C_R   0.261332 0.260566 0.916292 -0.242140
C7    C     C_R   0.339927 0.339587 0.850982 -0.181386
C8    C     C_R   0.421504 0.420532 0.923221 0.192581
C9    C     C_R   0.422601 0.419218 0.067595 0.102002
C10   C     C_R   0.575576 0.575805 0.076075 -0.055961
C11   C     C_R   0.576371 0.574747 0.933091 -0.012907
C12   C     C_R   0.201669 0.027949 0.656845 -0.163623
C13   C     C_R   0.501157 0.740526 0.505125 0.854417
C14   C     C_R   0.718057 0.501426 0.500048 0.900383
C15   C     C_1   0.162789 0.516240 0.501259 -0.095900
C16   C     C_1   0.060527 0.517389 0.501314 0.054662
C17   C     C_1   0.941499 0.513432 0.500890 0.028847
C18   C     C_1   0.838972 0.507755 0.500403 -0.170253
C19   C     C_R   0.279259 0.096378 0.577364 0.226295
C20   C     C_2   0.399277 0.813038 0.807675 1.018410
C21   C     C_R   0.238845 0.927902 0.724721 -0.210483
C22   C     C_R   0.349768 0.885397 0.700524 -0.133508
C23   C     C_R   0.418610 0.938057 0.595683 -0.043902
C24   C     C_R   0.393043 0.056791 0.554820 0.060357
C25   C     C_R   0.480379 0.125387 0.485309 -0.063395
C26   C     C_R   0.572376 0.066065 0.423587 -0.180420
C27   C     C_R   0.579823 0.939059 0.433818 -0.169463
H1    H     H_    0.638088 0.118115 0.367621 0.163213
H2    H     H_    0.555067 0.911982 0.808852 0.305217
H3    H     H_    0.197669 0.201816 0.858700 0.186832
H4    H     H_    0.334542 0.333631 0.744019 0.227449
H5    H     H_    0.639054 0.635630 0.883229 0.163542
H6    H     H_    0.113698 0.056239 0.671372 0.181392
H7    H     H_    0.182464 0.886809 0.799827 0.195857
H8    H     H_    0.646194 0.890977 0.377489 0.155726
H9    H     H_    0.637208 0.638054 0.133319 0.145081
H10   H     H_    0.344742 0.325179 0.236714 0.239489
N1    N     N_R   0.498930 0.498800 0.142780 -0.117826
N2    N     N_R   0.498900 0.498720 0.857170 -0.110896
O1    O     O_R   0.500000 0.316780 0.614690 -0.634360
O2    O     O_R   0.513484 0.838904 0.853132 -0.789526
O3    O     O_R   0.499990 0.316750 0.385360 -0.622736
O4    O     O_R   0.334450 0.500030 0.614670 -0.617377
O5    O     O_R   0.334440 0.500000 0.385330 -0.612077
O6    O     O_R   0.500010 0.683250 0.614640 -0.619524
O7    O     O_R   0.500000 0.683220 0.385310 -0.599013
O8    O     O_R   0.665560 0.500000 0.614670 -0.611736
O9    O     O_R   0.665550 0.499970 0.385330 -0.613593
O10   O     O_2   0.338687 0.732037 0.860740 -0.580740
Zn1   Zn    Zn3+2 0.500010 0.500020 0.653130 0.980978
Zn2   Zn    Zn3+2 0.499990 0.499980 0.346870 0.973938

loop_
_geom_bond_atom_site_label_1
_geom_bond_atom_site_label_2
_ccdc_geom_bond_type
C12   C21   A    
C10   N1    A    
C2    C27   A    
C19   C24   A    
C1    O1    A    
Br1   C19   S    
O6    Zn1   S    
C4    O4    A    
C7    C8    A    
N2    Zn1   S    
C17   C18   T    
C13   O6    A    
C14   C18   S    
O8    Zn1   S    
C2    C13   S    
C1    C25   S    
C15   C16   T    
C6    C7    A    
C5    C6    A    
C22   C23   A    
C8    N2    A    
C7    H4    S    
C10   C11   A    
C24   C25   A    
C9    N1    A    
H2    O2    S    
C13   O7    A    
O5    Zn2   S    
C11   N2    A    
C26   C27   A    
C14   O9    A    
C3    C9    A    
C3    H10   S    
C10   H9    S    
O7    Zn2   S    
C26   H1    S    
C20   C22   S    
C1    O3    A    
O9    Zn2   S    
C8    C9    A    
C21   C22   A    
C21   H7    S    
C2    C23   A    
C11   H5    S    
C14   O8    A    
C12   C19   A    
N1    Zn2   S    
C27   H8    S    
C25   C26   A    
C3    C5    A    
C4    C15   S    
C16   C17   S    
C4    O5    A    
O4    Zn1   S    
C23   C24   A    
O3    Zn2   S    
C12   H6    S    
C20   O2    S    
Br2   C5    S    
O1    Zn1   S    
C20   O10   D    
C6    H3    S    
