data_mof_unit_42793.cif
_audit_creation_date              2012-12-11T15:06:52-0500
_audit_creation_method            fapswitch 2.2
_symmetry_space_group_name_H-M    P1
_symmetry_Int_Tables_number       1
_space_group_crystal_system       triclinic
_cell_length_a                    19.671263
_cell_length_b                    11.351756
_cell_length_c                    18.706515
_cell_angle_alpha                 90.002394
_cell_angle_beta                  90.213796
_cell_angle_gamma                 90.01379
_cell_volume                      4177.1987802

loop_
_atom_site_label
_atom_site_type_symbol
_atom_type_description
_atom_site_fract_x
_atom_site_fract_y
_atom_site_fract_z
_atom_type_partial_charge
C1    C     C_R   0.760773 0.525724 0.639964 0.537033
C2    C     C_R   0.238776 0.523638 0.360736 0.539175
C3    C     C_R   0.261512 0.022900 0.639045 0.538698
C4    C     C_R   0.738568 0.023264 0.361017 0.539075
C5    C     C_3   0.808311 0.133222 0.450027 -0.259416
C6    C     C_3   0.189363 0.128333 0.551023 -0.261625
C7    C     C_3   0.311149 0.630467 0.449004 -0.260602
C8    C     C_3   0.683988 0.619148 0.550666 -0.251881
C9    C     C_3   0.746498 0.056033 0.437282 0.066352
C10   C     C_3   0.253334 0.055828 0.563128 0.066714
C11   C     C_3   0.247374 0.556766 0.436672 0.066414
C12   C     C_3   0.752219 0.560400 0.564120 0.064896
C13   C     C_3   0.758145 0.088318 0.575320 0.064551
C14   C     C_3   0.240145 0.090427 0.425760 0.066087
C15   C     C_3   0.260517 0.590600 0.574137 0.066781
C16   C     C_3   0.738977 0.592706 0.426435 0.066983
C17   C     C_3   0.762525 0.957276 0.561293 -0.256822
C18   C     C_3   0.246953 0.958205 0.437769 -0.261977
C19   C     C_3   0.254777 0.458381 0.561856 -0.261395
C20   C     C_3   0.746121 0.461456 0.438473 -0.260011
C21   C     C_3   0.813879 0.150498 0.531238 -0.218941
C22   C     C_3   0.177303 0.132896 0.470019 -0.216217
C23   C     C_3   0.323374 0.633838 0.530055 -0.214907
C24   C     C_3   0.674983 0.630910 0.469740 -0.213923
C25   C     C_3   0.007584 0.205060 0.460499 -0.233236
C26   C     C_3   0.005310 0.205090 0.543087 -0.240102
C27   C     C_3   0.503352 0.705330 0.458993 -0.232393
C28   C     C_3   0.496693 0.705310 0.541067 -0.232291
C29   C     C_3   0.064044 0.410578 0.474422 -0.210697
C30   C     C_3   0.932896 0.386643 0.526324 -0.218343
C31   C     C_3   0.563949 0.905875 0.474673 -0.213287
C32   C     C_3   0.434493 0.904973 0.525076 -0.212652
C33   C     C_3   0.942885 0.387855 0.445145 -0.261392
C34   C     C_3   0.055976 0.402926 0.555467 -0.254904
C35   C     C_3   0.441146 0.889942 0.443963 -0.262055
C36   C     C_3   0.556775 0.892268 0.555766 -0.263095
C37   C     C_3   0.011935 0.333413 0.431600 0.065499
C38   C     C_3   0.992061 0.332307 0.570140 0.063485
C39   C     C_3   0.510166 0.833133 0.430839 0.064928
C40   C     C_3   0.488719 0.833115 0.568899 0.065014
C41   C     C_3   0.812475 0.009700 0.043671 -0.239924
C42   C     C_3   0.180380 0.029733 0.951878 -0.246464
C43   C     C_3   0.312478 0.509707 0.043673 -0.239900
C44   C     C_3   0.680380 0.529734 0.951878 -0.246392
C45   C     C_R   0.772980 0.118837 0.650660 0.533913
C46   C     C_R   0.225916 0.121134 0.350506 0.537926
C47   C     C_R   0.274217 0.621206 0.649455 0.537208
C48   C     C_R   0.725460 0.622172 0.350946 0.539418
C49   C     C_3   0.814235 0.015993 0.963640 -0.216319
C50   C     C_3   0.178335 0.036296 0.031914 -0.209121
C51   C     C_3   0.314239 0.516001 0.963642 -0.216295
C52   C     C_3   0.678335 0.536295 0.031913 -0.209161
C53   C     C_3   0.681340 0.036101 0.030456 -0.139909
C54   C     C_3   0.307769 0.015236 0.970075 -0.163059
C55   C     C_3   0.181341 0.536094 0.030453 -0.139876
C56   C     C_3   0.807769 0.515239 0.970072 -0.162954
C57   C     C_3   0.756313 0.198281 0.063187 -0.242295
C58   C     C_3   0.254237 0.203587 0.936293 -0.255250
C59   C     C_3   0.256307 0.698283 0.063188 -0.242303
C60   C     C_3   0.754235 0.703590 0.936293 -0.255323
C61   C     C_3   0.746752 0.067431 0.074088 0.013725
C62   C     C_3   0.250853 0.071998 0.924369 0.014210
C63   C     C_3   0.246751 0.567430 0.074087 0.013864
C64   C     C_3   0.750852 0.572001 0.924368 0.014452
C65   C     C_3   0.759974 0.104781 0.935749 0.078665
C66   C     C_3   0.238371 0.111253 0.062569 0.086154
C67   C     C_3   0.259975 0.604785 0.935750 0.078569
C68   C     C_3   0.738371 0.611250 0.062569 0.085970
C69   C     C_3   0.689516 0.054036 0.948567 0.101891
C70   C     C_3   0.302691 0.039096 0.051864 0.094685
C71   C     C_3   0.189521 0.554026 0.948564 0.101871
C72   C     C_3   0.802690 0.539088 0.051862 0.094599
C73   C     C_3   0.762947 0.218315 0.981454 -0.253145
C74   C     C_3   0.251873 0.225675 0.017988 -0.250609
C75   C     C_3   0.262943 0.718317 0.981456 -0.253239
C76   C     C_3   0.751874 0.725673 0.017989 -0.250606
C77   C     C_3   0.008534 0.477008 0.038025 -0.228518
C78   C     C_3   0.007119 0.476074 0.957253 -0.236768
C79   C     C_3   0.508534 0.977008 0.038024 -0.228480
C80   C     C_3   0.507119 0.976074 0.957252 -0.236804
C81   C     C_3   0.062856 0.268709 0.026731 -0.201999
C82   C     C_3   0.932205 0.297150 0.973255 -0.220437
C83   C     C_3   0.562857 0.768710 0.026731 -0.201937
C84   C     C_3   0.432204 0.797151 0.973254 -0.220491
C85   C     C_3   0.943566 0.294637 0.055103 -0.267366
C86   C     C_3   0.052094 0.271465 0.944874 -0.254207
C87   C     C_3   0.443566 0.794637 0.055102 -0.267361
C88   C     C_3   0.552092 0.771461 0.944874 -0.254170
C89   C     C_R   0.970638 0.341916 0.646017 0.532235
C90   C     C_R   0.031617 0.342269 0.355375 0.536410
C91   C     C_R   0.468545 0.842190 0.644834 0.534997
C92   C     C_R   0.530952 0.842177 0.354956 0.535640
C93   C     C_3   0.012613 0.349587 0.068547 0.055631
C94   C     C_3   0.991286 0.349870 0.929739 0.055719
C95   C     C_3   0.512612 0.849587 0.068547 0.055768
C96   C     C_3   0.491286 0.849870 0.929739 0.055514
C97   C     C_R   0.760193 0.534378 0.848376 0.530856
C98   C     C_R   0.238811 0.531661 0.150465 0.532116
C99   C     C_R   0.260194 0.034375 0.848378 0.531572
C100  C     C_R   0.738811 0.031662 0.150466 0.532439
C101  C     C_R   0.774662 0.133992 0.859085 0.534665
C102  C     C_R   0.223680 0.138803 0.139350 0.540563
C103  C     C_R   0.274662 0.633994 0.859086 0.535452
C104  C     C_R   0.723679 0.638803 0.139350 0.540750
C105  C     C_R   0.969310 0.352932 0.853357 0.530693
C106  C     C_R   0.032827 0.353104 0.145347 0.531893
C107  C     C_R   0.469311 0.852932 0.853356 0.531445
C108  C     C_R   0.532827 0.853104 0.145347 0.531470
C109  C     C_3   0.684931 0.126645 0.466813 -0.233704
C110  C     C_3   0.312568 0.132446 0.534949 -0.233658
C111  C     C_3   0.187854 0.632307 0.465133 -0.234774
C112  C     C_3   0.807882 0.646063 0.537167 -0.244112
C113  C     C_3   0.687235 0.130444 0.548830 -0.238995
C114  C     C_3   0.307513 0.145228 0.453712 -0.231390
C115  C     C_3   0.192770 0.644234 0.546361 -0.232205
C116  C     C_3   0.805797 0.650064 0.455268 -0.233352
C117  C     C_3   0.759907 0.939662 0.480135 -0.216626
C118  C     C_3   0.244032 0.938705 0.519036 -0.217489
C119  C     C_3   0.256892 0.439534 0.480499 -0.217055
C120  C     C_3   0.754744 0.445016 0.519426 -0.224345
Cr1   Cr    Cr6+3 0.885690 0.492860 0.745310 0.991791
Cr2   Cr    Cr6+3 0.114310 0.492860 0.254690 0.993085
Cr3   Cr    Cr6+3 0.385690 0.992860 0.745310 0.991835
Cr4   Cr    Cr6+3 0.614310 0.992860 0.254690 0.993012
Cr5   Cr    Cr6+3 0.729880 0.332270 0.748190 0.987845
Cr6   Cr    Cr6+3 0.270120 0.332270 0.251810 0.989207
Cr7   Cr    Cr6+3 0.229880 0.832270 0.748190 0.987826
Cr8   Cr    Cr6+3 0.770120 0.832270 0.251810 0.989616
Cr9   Cr    Cr6+3 0.888120 0.178590 0.753010 0.992292
Cr10  Cr    Cr6+3 0.111880 0.178590 0.246990 0.993866
Cr11  Cr    Cr6+3 0.388120 0.678590 0.753010 0.992405
Cr12  Cr    Cr6+3 0.611880 0.678590 0.246990 0.993681
H1    H     H_    0.636664 0.093442 0.447511 0.133162
H2    H     H_    0.361837 0.097647 0.550431 0.131070
H3    H     H_    0.138829 0.596910 0.449625 0.131204
H4    H     H_    0.859447 0.623267 0.555426 0.128780
H5    H     H_    0.864432 0.121532 0.548777 0.134993
H6    H     H_    0.136882 0.067389 0.459191 0.127022
H7    H     H_    0.364293 0.569150 0.540609 0.126154
H8    H     H_    0.634541 0.567426 0.455288 0.128232
H9    H     H_    0.811685 0.910687 0.465446 0.127740
H10   H     H_    0.191732 0.907673 0.529766 0.124014
H11   H     H_    0.309140 0.408939 0.469117 0.125506
H12   H     H_    0.716953 0.381126 0.538429 0.132706
H13   H     H_    0.811215 0.922552 0.583223 0.128585
H14   H     H_    0.204856 0.910304 0.410683 0.121105
H15   H     H_    0.297686 0.411528 0.588194 0.121305
H16   H     H_    0.700449 0.413368 0.418947 0.123214
H17   H     H_    0.047961 0.149854 0.439972 0.132107
H18   H     H_    0.967982 0.140671 0.562464 0.127229
H19   H     H_    0.545161 0.650610 0.441609 0.130100
H20   H     H_    0.455192 0.649144 0.558452 0.130096
H21   H     H_    0.960955 0.162152 0.439670 0.108132
H22   H     H_    0.053794 0.173897 0.564996 0.109923
H23   H     H_    0.458377 0.662310 0.434853 0.106924
H24   H     H_    0.542375 0.664266 0.565237 0.108601
H25   H     H_    0.616222 0.890424 0.457164 0.111591
H26   H     H_    0.382784 0.890022 0.543444 0.111514
H27   H     H_    0.116398 0.393087 0.458391 0.110742
H28   H     H_    0.892183 0.328382 0.538238 0.108954
H29   H     H_    0.599533 0.841366 0.578849 0.102999
H30   H     H_    0.399567 0.834779 0.422198 0.104019
H31   H     H_    0.100562 0.359431 0.580367 0.099033
H32   H     H_    0.902092 0.337726 0.417426 0.100865
H33   H     H_    0.940875 0.479675 0.424670 0.122855
H34   H     H_    0.051785 0.492951 0.578454 0.128894
H35   H     H_    0.437983 0.976954 0.417051 0.121405
H36   H     H_    0.556622 0.979962 0.581802 0.123071
H37   H     H_    0.922060 0.476941 0.543986 0.139017
H38   H     H_    0.052097 0.503191 0.460755 0.132005
H39   H     H_    0.446048 0.998808 0.535407 0.128463
H40   H     H_    0.551579 0.999232 0.463748 0.130184
H41   H     H_    0.820403 0.919475 0.060750 0.142702
H42   H     H_    0.167454 0.937962 0.937076 0.137131
H43   H     H_    0.320409 0.419482 0.060751 0.142721
H44   H     H_    0.667455 0.437961 0.937075 0.137167
H45   H     H_    0.686310 0.218022 0.445886 0.107490
H46   H     H_    0.311110 0.220681 0.560116 0.107564
H47   H     H_    0.188730 0.720801 0.440285 0.107145
H48   H     H_    0.798633 0.734177 0.559417 0.111347
H49   H     H_    0.858016 0.055419 0.065727 0.112546
H50   H     H_    0.139720 0.084448 0.928002 0.117391
H51   H     H_    0.358016 0.555431 0.065730 0.112486
H52   H     H_    0.639719 0.584447 0.928001 0.117375
H53   H     H_    0.867008 0.039484 0.948873 0.119545
H54   H     H_    0.128522 0.066852 0.047854 0.115934
H55   H     H_    0.367011 0.539495 0.948876 0.119480
H56   H     H_    0.628522 0.566853 0.047853 0.115922
H57   H     H_    0.805212 0.928253 0.940153 0.169714
H58   H     H_    0.180204 0.945514 0.054145 0.170235
H59   H     H_    0.305221 0.428259 0.940156 0.169819
H60   H     H_    0.680203 0.445514 0.054144 0.170229
H61   H     H_    0.660801 0.950228 0.044448 0.134595
H62   H     H_    0.299293 0.924167 0.960087 0.141751
H63   H     H_    0.160802 0.450222 0.044445 0.134577
H64   H     H_    0.799296 0.424169 0.960078 0.141781
H65   H     H_    0.712819 0.249065 0.085203 0.148866
H66   H     H_    0.302126 0.238353 0.912977 0.121223
H67   H     H_    0.212811 0.749061 0.085202 0.148812
H68   H     H_    0.802124 0.738355 0.912976 0.121119
H69   H     H_    0.802849 0.226524 0.092126 0.174317
H70   H     H_    0.211103 0.246005 0.908574 0.182534
H71   H     H_    0.302842 0.726532 0.092129 0.174221
H72   H     H_    0.711101 0.746014 0.908577 0.182417
H73   H     H_    0.812544 0.250001 0.972589 0.124286
H74   H     H_    0.218887 0.298475 0.031615 0.138026
H75   H     H_    0.312542 0.750004 0.972593 0.124251
H76   H     H_    0.718891 0.798476 0.031619 0.137999
H77   H     H_    0.723856 0.281164 0.963171 0.116347
H78   H     H_    0.303622 0.253816 0.032057 0.095021
H79   H     H_    0.223852 0.781164 0.963171 0.116314
H80   H     H_    0.803626 0.753807 0.032057 0.095028
H81   H     H_    0.643146 0.101368 0.047698 0.073931
H82   H     H_    0.358091 0.043960 0.950452 0.095072
H83   H     H_    0.143146 0.601360 0.047691 0.073936
H84   H     H_    0.858091 0.543968 0.950450 0.095112
H85   H     H_    0.673337 0.219346 0.567474 0.134410
H86   H     H_    0.312540 0.237206 0.438189 0.137836
H87   H     H_    0.186849 0.736070 0.562207 0.138029
H88   H     H_    0.813205 0.739328 0.435832 0.139610
H89   H     H_    0.650530 0.118609 0.929661 0.100502
H90   H     H_    0.348695 0.088902 0.069603 0.103333
H91   H     H_    0.150531 0.618587 0.929653 0.100389
H92   H     H_    0.848695 0.588884 0.069609 0.103462
H93   H     H_    0.048980 0.534422 0.056575 0.133545
H94   H     H_    0.969293 0.542727 0.940125 0.129411
H95   H     H_    0.548981 0.034421 0.056574 0.133568
H96   H     H_    0.469292 0.042726 0.940126 0.129362
H97   H     H_    0.961688 0.520617 0.058081 0.115945
H98   H     H_    0.056203 0.505725 0.935448 0.150281
H99   H     H_    0.461689 0.020618 0.058081 0.115884
H100  H     H_    0.556202 0.005726 0.935446 0.150430
H101  H     H_    0.615344 0.783768 0.041894 0.115269
H102  H     H_    0.392421 0.857308 0.961943 0.119288
H103  H     H_    0.115344 0.283761 0.041897 0.115251
H104  H     H_    0.892423 0.357309 0.961946 0.119331
H105  H     H_    0.597468 0.802972 0.916671 0.172144
H106  H     H_    0.404375 0.844494 0.083772 0.170422
H107  H     H_    0.097470 0.302986 0.916675 0.172038
H108  H     H_    0.904377 0.344496 0.083774 0.170584
H109  H     H_    0.941258 0.202800 0.075577 0.105796
H110  H     H_    0.041244 0.181158 0.924755 0.107145
H111  H     H_    0.441258 0.702800 0.075575 0.105731
H112  H     H_    0.541239 0.681153 0.924759 0.107135
H113  H     H_    0.920184 0.207370 0.954126 0.131472
H114  H     H_    0.050255 0.178391 0.043824 0.123381
H115  H     H_    0.420184 0.707372 0.954125 0.131422
H116  H     H_    0.550257 0.678394 0.043827 0.123375
H117  H     H_    0.648192 0.072614 0.571387 0.108796
H118  H     H_    0.351553 0.101709 0.428189 0.106723
H119  H     H_    0.149139 0.598917 0.571649 0.107248
H120  H     H_    0.850285 0.601720 0.433905 0.107650
H121  H     H_    0.723979 0.869696 0.465933 0.109381
H122  H     H_    0.278053 0.868345 0.535976 0.108586
H123  H     H_    0.222159 0.369738 0.463840 0.108645
H124  H     H_    0.805349 0.415099 0.527340 0.109301
H125  H     H_    0.720162 0.909706 0.587805 0.100187
H126  H     H_    0.295203 0.924642 0.415251 0.104600
H127  H     H_    0.207347 0.423116 0.585093 0.102417
H128  H     H_    0.790524 0.426155 0.408783 0.100250
H129  H     H_    0.854865 0.090099 0.429161 0.122665
H130  H     H_    0.146246 0.083959 0.577872 0.124153
H131  H     H_    0.355288 0.589832 0.421655 0.123159
H132  H     H_    0.642146 0.564776 0.573108 0.130195
H133  H     H_    0.802997 0.219000 0.422097 0.102084
H134  H     H_    0.194095 0.218168 0.573820 0.105007
H135  H     H_    0.304749 0.720438 0.427145 0.104550
H136  H     H_    0.682396 0.706574 0.576936 0.098321
H137  H     H_    0.805194 0.241084 0.543807 0.110369
H138  H     H_    0.158708 0.219417 0.452923 0.112666
H139  H     H_    0.341940 0.719577 0.547864 0.112973
H140  H     H_    0.657895 0.719292 0.454960 0.111093
O1    O     O_R   0.957210 0.449410 0.665480 -0.534353
O2    O     O_R   0.042790 0.449410 0.334520 -0.533367
O3    O     O_R   0.457210 0.949410 0.665480 -0.534874
O4    O     O_R   0.542790 0.949410 0.334520 -0.533638
O5    O     O_R   0.736260 0.212010 0.826560 -0.522577
O6    O     O_R   0.263740 0.212010 0.173440 -0.522347
O7    O     O_R   0.236260 0.712010 0.826560 -0.522068
O8    O     O_R   0.763740 0.712010 0.173440 -0.522089
O9    O     O_R   0.832520 0.095300 0.836000 -0.531636
O10   O     O_R   0.167480 0.095300 0.164000 -0.527106
O11   O     O_R   0.332520 0.595300 0.836000 -0.531279
O12   O     O_R   0.667480 0.595300 0.164000 -0.526872
O13   O     O_R   0.946380 0.253940 0.826940 -0.514693
O14   O     O_R   0.053620 0.253940 0.173060 -0.515238
O15   O     O_R   0.446380 0.753940 0.826940 -0.514270
O16   O     O_R   0.553620 0.753940 0.173060 -0.515509
O17   O     O_3   0.834560 0.334570 0.748840 -0.270833
O18   O     O_3   0.165440 0.334570 0.251160 -0.277574
O19   O     O_3   0.334560 0.834570 0.748840 -0.273680
O20   O     O_3   0.665440 0.834570 0.251160 -0.277645
O21   O     O_R   0.820730 0.541240 0.668250 -0.514178
O22   O     O_R   0.179270 0.541240 0.331750 -0.514172
O23   O     O_R   0.320730 0.041240 0.668250 -0.514789
O24   O     O_R   0.679270 0.041240 0.331750 -0.514051
O25   O     O_R   0.714240 0.455060 0.663710 -0.532893
O26   O     O_R   0.285760 0.455060 0.336290 -0.532297
O27   O     O_R   0.214240 0.955060 0.663710 -0.533397
O28   O     O_R   0.785760 0.955060 0.336290 -0.532235
O29   O     O_R   0.736780 0.204870 0.675910 -0.515273
O30   O     O_R   0.263220 0.204870 0.324090 -0.515316
O31   O     O_R   0.236780 0.704870 0.675910 -0.516061
O32   O     O_R   0.763220 0.704870 0.324090 -0.516041
O33   O     O_R   0.833070 0.087590 0.673490 -0.529961
O34   O     O_R   0.166930 0.087590 0.326510 -0.528798
O35   O     O_R   0.333070 0.587590 0.673490 -0.529426
O36   O     O_R   0.666930 0.587590 0.326510 -0.528832
O37   O     O_R   0.946890 0.246800 0.676300 -0.512039
O38   O     O_R   0.053110 0.246800 0.323700 -0.512650
O39   O     O_R   0.446890 0.746800 0.676300 -0.513002
O40   O     O_R   0.553110 0.746800 0.323700 -0.512627
O41   O     O_R   0.956650 0.457120 0.827980 -0.532584
O42   O     O_R   0.043350 0.457120 0.172020 -0.531820
O43   O     O_R   0.456650 0.957120 0.827980 -0.532202
O44   O     O_R   0.543350 0.957120 0.172020 -0.532111
O45   O     O_R   0.820220 0.548390 0.818890 -0.509371
O46   O     O_R   0.179780 0.548390 0.181110 -0.510333
O47   O     O_R   0.320220 0.048390 0.818890 -0.508878
O48   O     O_R   0.679780 0.048390 0.181110 -0.510102
O49   O     O_R   0.713680 0.462770 0.826210 -0.531254
O50   O     O_R   0.286320 0.462770 0.173790 -0.530758
O51   O     O_R   0.213680 0.962770 0.826210 -0.530912
O52   O     O_R   0.786320 0.962770 0.173790 -0.530476
O53   O     O_3   0.681495 0.948030 0.911723 -0.783301
H141  H     H_    0.670546 0.968033 0.861303 0.319169
O54   O     O_3   0.298879 0.934621 0.091025 -0.780861
H142  H     H_    0.311700 0.953533 0.141134 0.321817
O55   O     O_3   0.181524 0.448014 0.911721 -0.783230
H143  H     H_    0.170428 0.468035 0.861344 0.319318
O56   O     O_3   0.798880 0.434604 0.091013 -0.780855
H144  H     H_    0.811595 0.453538 0.141150 0.322100

loop_
_geom_bond_atom_site_label_1
_geom_bond_atom_site_label_2
_ccdc_geom_bond_type
C78   H94   S    
C5    H133  S    
C82   C94   S    
C119  H11   S    
C120  H12   S    
C21   H5    S    
C53   C69   S    
C104  O8    A    
C43   C63   S    
C44   C64   S    
C69   O53   S    
Cr6   O6    S    
Cr11  O35   S    
C84   H115  S    
C16   C20   S    
C114  H86   S    
C63   C98   S    
Cr2   O2    S    
C19   H127  S    
C35   C39   S    
C31   H40   S    
C28   C40   S    
C72   H92   S    
C36   H36   S    
C30   C38   S    
C113  H85   S    
C75   H75   S    
C56   C72   S    
C45   O33   A    
C8    H132  S    
C18   C118  S    
C81   C86   S    
C83   C88   S    
C87   H106  S    
C48   O32   A    
C89   O1    A    
C41   C49   S    
C111  H3    S    
Cr8   O28   S    
Cr1   O45   S    
Cr2   O42   S    
Cr3   O47   S    
Cr4   O48   S    
C26   C38   S    
Cr10  O34   S    
C14   C114  S    
Cr11  O39   S    
C60   C76   S    
C24   H8    S    
Cr8   O52   S    
C30   H37   S    
C88   H112  S    
C54   C70   S    
C48   O36   A    
C68   C72   S    
C23   H139  S    
C97   O45   A    
C13   C21   S    
C99   O47   A    
C79   H99   S    
C31   H25   S    
C64   C97   S    
C36   H29   S    
C15   C115  S    
C97   O49   A    
C20   C120  S    
C101  O5    A    
C54   H82   S    
C57   H65   S    
C77   H97   S    
Cr4   O20   S    
C57   C61   S    
C82   C85   S    
Cr6   O50   S    
C59   C63   S    
Cr11  O19   S    
C60   C64   S    
Cr9   O13   S    
C13   C45   S    
C102  O6    A    
C78   C94   S    
C43   H51   S    
C69   H89   S    
C109  H1    S    
C95   C108  S    
C60   H68   S    
C62   C99   S    
C107  O43   A    
C5    C21   S    
C58   H70   S    
C79   H95   S    
C110  H46   S    
C31   C36   S    
C47   O35   A    
C4    O28   A    
Cr5   O17   S    
C90   O38   A    
C54   H62   S    
Cr1   O21   S    
C84   H102  S    
Cr2   O18   S    
C65   C101  S    
Cr10  O14   S    
Cr3   O23   S    
Cr11  O11   S    
C67   C103  S    
C66   C70   S    
C37   C90   S    
C24   H140  S    
C73   H77   S    
C55   H83   S    
C115  H119  S    
C111  H47   S    
C113  H117  S    
C25   H17   S    
C57   C73   S    
C53   C61   S    
C60   H72   S    
C83   H101  S    
C55   C63   S    
C6    H134  S    
C56   C64   S    
C7    H131  S    
Cr7   O51   S    
C116  H88   S    
C42   C62   S    
C112  H48   S    
Cr5   O29   S    
C76   H80   S    
C56   H64   S    
C1    C12   S    
Cr9   O33   S    
C80   H100  S    
C2    C11   S    
Cr3   O3    S    
C7    C11   S    
C112  H4    S    
C6    H130  S    
C42   H42   S    
Cr9   O37   S    
C25   C26   S    
C105  O13   A    
C107  O15   A    
C5    C9    S    
C108  O16   A    
C109  H45   S    
C93   C106  S    
C8    C12   S    
C90   O2    A    
C51   C67   S    
C7    H135  S    
C42   C50   S    
Cr2   O46   S    
Cr3   O43   S    
C110  H2    S    
C61   C100  S    
C67   C75   S    
C17   H125  S    
C50   H54   S    
C112  C116  S    
C51   H59   S    
C58   C74   S    
Cr10  O38   S    
C41   H41   S    
C53   H81   S    
C81   H114  S    
C33   H33   S    
C44   H44   S    
C68   C76   S    
C1    O21   A    
C98   O46   A    
C85   H108  S    
C14   C22   S    
C3    O23   A    
C7    C23   S    
C8    C24   S    
C40   C91   S    
C101  O9    A    
C56   H84   S    
Cr7   O27   S    
C46   O30   A    
C99   O51   A    
Cr8   O20   S    
C49   H53   S    
C57   H69   S    
C52   H56   S    
Cr7   O7    S    
C4    C9    S    
Cr4   O24   S    
Cr8   O8    S    
C86   H110  S    
C58   C62   S    
C5    H129  S    
C88   C96   S    
C94   C105  S    
C77   H93   S    
C82   H104  S    
C53   H61   S    
C55   H63   S    
C12   C112  S    
C21   H137  S    
C14   C46   S    
C77   C78   S    
C42   H50   S    
C15   C19   S    
C75   H79   S    
C1    O25   A    
C92   O40   A    
C6    C22   S    
C2    O22   A    
C73   H73   S    
Cr6   O18   S    
Cr2   O22   S    
C103  O7    A    
Cr3   O19   S    
C46   O34   A    
C82   H113  S    
C17   C117  S    
C19   C119  S    
C27   H23   S    
C41   H49   S    
C81   H103  S    
Cr12  O36   S    
C16   C116  S    
C76   H76   S    
C9    C109  S    
C25   H21   S    
C26   H18   S    
C19   H15   S    
C105  O41   A    
C54   C62   S    
C18   H14   S    
C11   C111  S    
C29   C34   S    
C108  O44   A    
C33   C37   S    
C41   C61   S    
C17   H13   S    
O56   H144  S    
C79   C95   S    
Cr5   O25   S    
Cr6   O30   S    
C85   H109  S    
C86   H107  S    
C80   H96   S    
Cr12  O12   S    
C32   H39   S    
C100  O52   A    
C39   C92   S    
C27   H19   S    
C106  O14   A    
C14   C18   S    
C68   C104  S    
C119  H123  S    
C6    C10   S    
C13   C17   S    
C78   H98   S    
C22   H6    S    
Cr5   O49   S    
C91   O3    A    
O54   H142  S    
C104  O12   A    
C43   C51   S    
Cr5   O5    S    
C65   C69   S    
C77   C93   S    
C70   H90   S    
C10   C110  S    
C67   C71   S    
O53   H141  S    
C50   H58   S    
Cr1   O1    S    
C18   H126  S    
C51   H55   S    
C3    O27   A    
C59   H71   S    
C29   C37   S    
C71   O55   S    
C34   H34   S    
C66   C74   S    
C43   H43   S    
C9    C117  S    
O55   H143  S    
C102  O10   A    
C117  H9    S    
C84   C87   S    
C15   C47   S    
C8    H136  S    
C11   C119  S    
C16   C48   S    
C29   H27   S    
C30   H28   S    
C38   C89   S    
C49   C65   S    
C74   H78   S    
C23   H7    S    
Cr7   O31   S    
Cr8   O32   S    
C49   H57   S    
Cr1   O41   S    
C114  H118  S    
C65   C73   S    
C52   H60   S    
Cr4   O44   S    
C86   C94   S    
C25   C37   S    
C12   C120  S    
C59   H67   S    
C83   H116  S    
C35   H35   S    
Cr12  O20   S    
C55   C71   S    
C29   H38   S    
C80   C96   S    
C118  H122  S    
C44   H52   S    
C52   C68   S    
C109  C113  S    
C22   H138  S    
C15   C23   S    
Cr9   O17   S    
C16   C24   S    
C115  H87   S    
C59   C75   S    
C85   C93   S    
C2    O26   A    
C103  O11   A    
C32   H26   S    
C35   H30   S    
C71   H91   S    
C117  H121  S    
C32   C35   S    
C36   C40   S    
C33   H32   S    
C34   H31   S    
C27   C39   S    
C66   C102  S    
Cr7   O19   S    
C116  H120  S    
C87   C95   S    
C120  H124  S    
C10   C118  S    
C81   C93   S    
C87   H111  S    
C83   C95   S    
Cr10  O18   S    
C20   H16   S    
Cr12  O40   S    
Cr9   O9    S    
C50   C66   S    
C100  O48   A    
C20   H128  S    
C28   H20   S    
C45   O29   A    
C26   H22   S    
C92   O4    A    
C84   C96   S    
C106  O42   A    
C74   H74   S    
C110  C114  S    
C58   H66   S    
C30   C33   S    
C34   C38   S    
C96   C107  S    
C47   O31   A    
C4    O24   A    
C118  H10   S    
C89   O37   A    
C70   O54   S    
Cr6   O26   S    
C91   O39   A    
Cr1   O17   S    
Cr10  O10   S    
C3    C10   S    
Cr11  O15   S    
Cr4   O4    S    
C44   C52   S    
Cr12  O16   S    
C72   O56   S    
C88   H105  S    
C31   C39   S    
C32   C40   S    
C79   C80   S    
C98   O50   A    
C27   C28   S    
C28   H24   S    
C111  C115  S    
C13   C113  S    
