data_mof_unit_48070.cif
_audit_creation_date              2012-12-10T20:35:55-0500
_audit_creation_method            fapswitch 2.2
_symmetry_space_group_name_H-M    P1
_symmetry_Int_Tables_number       1
_space_group_crystal_system       triclinic
_cell_length_a                    15.725672
_cell_length_b                    10.730716
_cell_length_c                    9.896141
_cell_angle_alpha                 89.355107
_cell_angle_beta                  90.743863
_cell_angle_gamma                 90.968636
_cell_volume                      1669.47016023

loop_
_atom_site_label
_atom_site_type_symbol
_atom_type_description
_atom_site_fract_x
_atom_site_fract_y
_atom_site_fract_z
_atom_type_partial_charge
C1    C     C_R   0.506284 0.260589 0.500297 0.901859
C2    C     C_R   0.515404 0.128312 0.499185 -0.200994
C3    C     C_R   0.532929 0.066037 0.377243 0.468907
C4    C     C_R   0.338382 0.499157 0.499223 0.882133
C5    C     C_R   0.523131 0.936189 0.377433 -0.350020
C6    C     C_R   0.503752 0.872099 0.497301 -0.228969
C7    C     C_R   0.491741 0.935412 0.616776 0.146530
C8    C     C_3   0.541368 0.920523 0.745279 0.256168
C9    C     C_3   0.551118 0.060472 0.745147 -0.568048
C10   C     C_R   0.433357 0.448965 0.070077 0.097429
C11   C     C_R   0.558246 0.568295 0.073139 0.335365
C12   C     C_3   0.950255 0.393989 0.595507 -0.434608
C13   C     C_R   0.563235 0.559694 0.929806 0.473284
C14   C     C_R   0.431908 0.452368 0.927957 0.066087
C15   C     C_3   0.396945 0.322639 0.921756 0.170368
C16   C     C_R   0.501223 0.739808 0.499245 0.931173
C17   C     C_3   0.401131 0.317946 0.076216 0.217724
C18   C     C_R   0.661538 0.499775 0.500485 0.892916
C19   C     C_3   0.048570 0.398153 0.600920 0.155498
C20   C     C_3   0.046780 0.451401 0.349282 0.592312
C21   C     C_3   0.947457 0.463084 0.348574 0.179008
C22   C     C_1   0.750212 0.497334 0.500603 -0.162763
C23   C     C_3   0.916711 0.492712 0.493547 0.038732
C24   C     C_3   0.082465 0.493355 0.492173 -0.111238
C25   C     C_3   0.584295 0.073620 0.149276 0.046039
C26   C     C_3   0.674323 0.021491 0.162951 -0.306330
C27   C     C_3   0.704735 0.970787 0.028748 -0.828381
C28   C     C_3   0.702061 0.542775 0.861429 0.091862
C29   C     C_3   0.763956 0.565462 0.980055 -0.407938
C30   C     C_3   0.851866 0.514401 0.951380 -0.782999
C31   C     C_3   0.312596 0.204294 0.221263 0.166099
C32   C     C_3   0.297486 0.085665 0.138495 -0.365551
C33   C     C_3   0.284558 0.971969 0.230450 -0.774668
C34   C     C_3   0.951663 0.623243 0.533034 -0.514166
C35   C     C_3   0.049692 0.625094 0.531268 0.234444
C36   C     C_1   0.825367 0.495026 0.498050 0.043466
C37   C     C_1   0.174187 0.494482 0.494637 0.155371
C38   C     C_1   0.249519 0.496542 0.497002 -0.025778
C39   C     C_R   0.497835 0.062927 0.618080 0.056189
Cl1   Cl    Cl    0.085616 0.431810 0.769650 -0.470594
Cl2   Cl    Cl    0.475537 0.861629 0.878095 -0.595195
Cl3   Cl    Cl    0.621857 0.677806 0.160002 -0.634674
Cl4   Cl    Cl    0.292227 0.318727 0.849501 -0.417827
Cl5   Cl    Cl    0.089665 0.542768 0.212051 -0.418511
Cl6   Cl    Cl    0.080469 0.295191 0.313592 -0.506106
Cl7   Cl    Cl    0.891019 0.331338 0.276350 -0.550868
Cl8   Cl    Cl    0.089708 0.752112 0.429469 -0.532025
H1    H     H_    0.927972 0.299356 0.564823 0.224296
H2    H     H_    0.450506 0.253800 0.116317 0.064822
H3    H     H_    0.929366 0.543177 0.282488 0.145468
H4    H     H_    0.072937 0.648157 0.634687 0.205427
H5    H     H_    0.929859 0.647320 0.635980 0.193589
H6    H     H_    0.585307 0.143662 0.065766 0.148280
H7    H     H_    0.535750 0.003499 0.117019 0.184012
H8    H     H_    0.718866 0.097018 0.196110 0.259157
H9    H     H_    0.676143 0.945972 0.240359 0.242737
H10   H     H_    0.709001 0.046928 0.952058 0.242498
H11   H     H_    0.768719 0.930059 0.042843 0.275782
H12   H     H_    0.923669 0.410346 0.697149 0.217482
H13   H     H_    0.660343 0.897142 0.991231 0.313436
H14   H     H_    0.737166 0.568301 0.768458 0.183192
H15   H     H_    0.685422 0.441398 0.854643 0.112131
H16   H     H_    0.770594 0.667125 0.998702 0.275697
H17   H     H_    0.739654 0.517354 0.071984 0.264188
H18   H     H_    0.847433 0.412907 0.930905 0.274101
H19   H     H_    0.894404 0.529398 0.040188 0.309086
H20   H     H_    0.880269 0.563815 0.863301 0.248916
H21   H     H_    0.257089 0.217353 0.287390 0.209148
H22   H     H_    0.368438 0.194153 0.290375 0.116181
H23   H     H_    0.925848 0.695171 0.462436 0.235809
H24   H     H_    0.240203 0.097183 0.072876 0.295951
H25   H     H_    0.352946 0.069344 0.072900 0.228140
H26   H     H_    0.341477 0.958194 0.296181 0.246381
H27   H     H_    0.274483 0.887535 0.168013 0.302795
H28   H     H_    0.227933 0.983957 0.294694 0.299007
H29   H     H_    0.533861 0.882996 0.287873 0.230241
H30   H     H_    0.602260 0.870743 0.733503 0.139693
H31   H     H_    0.520462 0.103585 0.832314 0.216446
H32   H     H_    0.617656 0.093272 0.728181 0.175403
H33   H     H_    0.072259 0.303283 0.580797 0.201664
H34   H     H_    0.440840 0.258886 0.872664 0.057600
N1    N     N_R   0.499430 0.499140 0.142800 -0.188333
N2    N     N_R   0.499430 0.499180 0.857150 -0.193402
O1    O     O_R   0.500010 0.316790 0.614690 -0.630191
O2    O     O_3   0.629522 0.620281 0.864050 -0.588287
O3    O     O_3   0.319992 0.311092 0.136769 -0.512015
O4    O     O_R   0.500000 0.316760 0.385350 -0.588511
O5    O     O_R   0.377150 0.500020 0.614720 -0.562098
O6    O     O_R   0.377140 0.499990 0.385380 -0.588954
O7    O     O_R   0.500000 0.683240 0.614650 -0.569582
O8    O     O_R   0.499990 0.683210 0.385310 -0.572301
O9    O     O_R   0.622860 0.500010 0.614620 -0.638042
O10   O     O_R   0.622850 0.499980 0.385280 -0.553281
O11   O     O_3   0.561371 0.137902 0.266906 -0.638063
Zn1   Zn    Zn3+2 0.500010 0.500020 0.653130 1.025217
Zn2   Zn    Zn3+2 0.499990 0.499980 0.346870 1.048367

loop_
_geom_bond_atom_site_label_1
_geom_bond_atom_site_label_2
_ccdc_geom_bond_type
C1    O4    A    
C29   H16   S    
C16   O7    A    
C4    O6    A    
C12   H1    S    
C35   Cl8   S    
C26   H8    S    
C7    C8    S    
C15   H34   S    
C1    O1    A    
C12   C23   S    
C26   C27   S    
C37   C38   T    
C28   C29   S    
C25   H6    S    
C34   C35   S    
C27   H13   S    
C5    C6    A    
C10   C17   S    
C9    C39   S    
C11   Cl3   S    
C1    C2    S    
C9    H32   S    
O8    Zn2   S    
C12   H12   S    
C2    C39   A    
C33   H28   S    
C20   C24   S    
C8    C9    S    
C34   H23   S    
C30   H20   S    
C28   H14   S    
C29   H17   S    
C25   O11   S    
C31   O3    S    
C14   N2    A    
C21   H3    S    
C20   Cl5   S    
C32   H24   S    
C11   N1    A    
C31   H21   S    
C24   C35   S    
N1    Zn2   S    
C17   O3    S    
O7    Zn1   S    
C8    Cl2   S    
C32   H25   S    
C27   H10   S    
C17   H2    S    
C25   C26   S    
C10   N1    A    
O9    Zn1   S    
O1    Zn1   S    
C29   C30   S    
C31   C32   S    
C23   C34   S    
N2    Zn1   S    
O4    Zn2   S    
C24   C37   S    
C25   H7    S    
C30   H19   S    
C33   H26   S    
C4    C38   S    
O10   Zn2   S    
C21   C23   S    
C35   H4    S    
C8    H30   S    
C21   Cl7   S    
C15   C17   S    
C18   C22   S    
C20   Cl6   S    
C3    C5    A    
C27   H11   S    
C26   H9    S    
C6    C7    A    
C4    O5    A    
C22   C36   T    
C13   N2    A    
C34   H5    S    
C18   O9    A    
C32   C33   S    
O6    Zn2   S    
C2    C3    A    
C15   Cl4   S    
C11   C13   A    
C5    H29   S    
C12   C19   S    
C19   C24   S    
C3    O11   S    
C9    H31   S    
C19   H33   S    
O5    Zn1   S    
C30   H18   S    
C19   Cl1   S    
C6    C16   S    
C33   H27   S    
C31   H22   S    
C20   C21   S    
C16   O8    A    
C23   C36   S    
C13   O2    S    
C28   O2    S    
C18   O10   A    
C7    C39   A    
C14   C15   S    
C10   C14   A    
C28   H15   S    
