data_mof_unit_46631.cif
_audit_creation_date              2012-12-10T17:47:43-0500
_audit_creation_method            fapswitch 2.2
_symmetry_space_group_name_H-M    P1
_symmetry_Int_Tables_number       1
_space_group_crystal_system       triclinic
_cell_length_a                    10.714023
_cell_length_b                    10.737139
_cell_length_c                    9.999999
_cell_angle_alpha                 88.953015
_cell_angle_beta                  90.728277
_cell_angle_gamma                 94.588028
_cell_volume                      1146.42869266

loop_
_atom_site_label
_atom_site_type_symbol
_atom_type_description
_atom_site_fract_x
_atom_site_fract_y
_atom_site_fract_z
_atom_type_partial_charge
C1    C     C_R   0.510602 0.261705 0.502596 0.894552
C2    C     C_3   0.877955 0.507798 0.504320 0.150615
C3    C     C_3   0.934785 0.630962 0.439178 -0.408302
C4    C     C_3   0.917391 0.396768 0.421335 -0.459718
C5    C     C_R   0.518140 0.104957 0.759950 -0.142460
C6    C     C_R   0.466542 0.035483 0.867925 -0.196917
C7    C     C_R   0.398350 0.922005 0.845002 -0.183397
C8    C     C_R   0.393315 0.872509 0.717586 -0.151762
C9    C     C_R   0.462217 0.934095 0.612548 0.069958
C10   C     C_R   0.503752 0.059071 0.628227 0.104624
C11   C     C_R   0.528999 0.130649 0.510264 -0.167339
C12   C     C_R   0.257942 0.503926 0.499759 0.829217
C13   C     C_R   0.559042 0.072988 0.393070 -0.289912
C14   C     C_R   0.557012 0.944761 0.389866 -0.009013
C15   C     C_R   0.499880 0.873899 0.496708 -0.166950
C16   C     C_R   0.292832 0.379179 0.135608 0.172970
C17   C     C_R   0.179711 0.358917 0.065396 -0.300833
C18   C     C_R   0.181240 0.356220 0.928416 -0.306475
C19   C     C_R   0.295411 0.375412 0.862871 0.160476
C20   C     C_R   0.398337 0.442444 0.927529 0.114405
C21   C     C_R   0.397641 0.443664 0.071486 0.098114
C22   C     C_R   0.598481 0.550524 0.071569 -0.114785
C23   C     C_R   0.498806 0.739865 0.498576 0.863377
C24   C     C_R   0.597853 0.551851 0.929214 -0.143707
C25   C     C_R   0.741783 0.503792 0.501164 0.808561
C26   C     C_3   0.068914 0.473778 0.644019 -0.413082
C27   C     C_3   0.930185 0.496636 0.651502 -0.038019
C28   C     C_3   0.077969 0.641002 0.463539 -0.152271
C29   C     C_3   0.059935 0.405599 0.408341 -0.426634
C30   C     C_3   0.120727 0.507628 0.500964 0.106083
H1    H     H_    0.122030 0.528045 0.722974 0.205432
H2    H     H_    0.875069 0.396749 0.318969 0.191739
H3    H     H_    0.910966 0.631262 0.330529 0.179213
H4    H     H_    0.591423 0.128113 0.306355 0.172615
H5    H     H_    0.570901 0.192259 0.781935 0.169134
H6    H     H_    0.475954 0.071692 0.968210 0.137089
H7    H     H_    0.355216 0.868128 0.926194 0.140392
H8    H     H_    0.338945 0.784250 0.703712 0.151150
H9    H     H_    0.679615 0.591389 0.124858 0.161392
H10   H     H_    0.075920 0.373225 0.665040 0.140997
H11   H     H_    0.097168 0.315587 0.114079 0.154047
H12   H     H_    0.100709 0.309694 0.878777 0.154294
H13   H     H_    0.677865 0.595402 0.876937 0.134949
H14   H     H_    0.880252 0.415011 0.704170 0.137945
H15   H     H_    0.093482 0.695738 0.556822 0.149811
H16   H     H_    0.894240 0.713134 0.482756 0.145309
H17   H     H_    0.085507 0.427000 0.303794 0.190271
H18   H     H_    0.093682 0.313199 0.436097 0.153755
H19   H     H_    0.884521 0.306660 0.471285 0.162681
N1    N     N_R   0.498810 0.498800 0.142780 -0.109094
N2    N     N_R   0.498760 0.498720 0.857170 -0.109386
O1    O     O_R   0.500000 0.316780 0.614690 -0.610522
O2    O     O_R   0.499990 0.316750 0.385360 -0.605388
O3    O     O_R   0.314800 0.499990 0.614670 -0.630692
O4    O     O_R   0.314790 0.499970 0.385330 -0.587838
O5    O     O_R   0.500010 0.683250 0.614640 -0.624958
O6    O     O_R   0.500000 0.683220 0.385310 -0.594964
O7    O     O_R   0.685210 0.500030 0.614670 -0.643608
O8    O     O_R   0.685200 0.500010 0.385330 -0.628861
Zn1   Zn    Zn3+2 0.500010 0.500020 0.653130 0.932241
Zn2   Zn    Zn3+2 0.499990 0.499980 0.346870 0.964768
C31   C     C_R   0.145500 0.719710 0.354329 0.119001
C32   C     C_R   0.201707 0.838453 0.387865 -0.177159
C33   C     C_R   0.239895 0.925551 0.288692 -0.119678
C34   C     C_R   0.223013 0.895690 0.154539 -0.163985
C35   C     C_R   0.173726 0.776167 0.119088 -0.166104
C36   C     C_R   0.135075 0.688356 0.218216 -0.094093
H20   H     H_    0.210084 0.866835 0.491053 0.108130
H21   H     H_    0.279163 0.017603 0.316171 0.130594
H22   H     H_    0.247052 0.966267 0.078709 0.124725
H23   H     H_    0.160655 0.753026 0.014671 0.128159
H24   H     H_    0.089116 0.600427 0.187222 0.119923
C37   C     C_R   0.631619 0.893510 0.283687 0.174453
C38   C     C_R   0.760214 0.884386 0.306013 -0.174934
C39   C     C_R   0.837519 0.857163 0.200750 -0.160748
C40   C     C_R   0.787121 0.838883 0.072499 -0.153058
C41   C     C_R   0.659130 0.848033 0.049512 -0.160263
C42   C     C_R   0.581328 0.875224 0.154758 -0.116686
H25   H     H_    0.801207 0.903221 0.403871 0.117875
H26   H     H_    0.936813 0.852712 0.218248 0.162648
H27   H     H_    0.847184 0.817978 0.990948 0.128896
H28   H     H_    0.620652 0.833892 0.949970 0.162104
H29   H     H_    0.483082 0.884876 0.135630 0.134442
N3    N     N_3   0.311308 0.296046 0.245436 -0.369255
H30   H     H_    0.226413 0.255255 0.281574 0.140457
H31   H     H_    0.357144 0.221997 0.207505 0.163236
N4    N     N_3   0.316214 0.288614 0.761121 -0.377748
H32   H     H_    0.248844 0.291121 0.685632 0.170713
H33   H     H_    0.301258 0.199204 0.803691 0.173808
N5    N     N_3   0.918257 0.610184 0.729601 -0.477491
H34   H     H_    0.834614 0.650521 0.708025 0.196383
H35   H     H_    0.916680 0.585167 0.831482 0.170368

loop_
_geom_bond_atom_site_label_1
_geom_bond_atom_site_label_2
_ccdc_geom_bond_type
N4    H32   S    
C16   C21   A    
C37   C38   A    
C19   C20   A    
C1    C11   S    
C7    C8    A    
O3    Zn1   S    
C41   C42   A    
C26   C27   S    
C31   C32   A    
C31   C36   A    
C29   H17   S    
C3    C28   S    
N3    H31   S    
C18   C19   A    
C20   N2    A    
C19   N4    S    
C18   H12   S    
C5    C6    A    
C3    H3    S    
O7    Zn1   S    
C34   H22   S    
O4    Zn2   S    
C16   N3    S    
C27   N5    S    
C36   H24   S    
C1    O2    A    
O1    Zn1   S    
O2    Zn2   S    
C27   H14   S    
C8    C9    A    
C37   C42   A    
C2    C27   S    
C9    C10   A    
C4    C29   S    
C22   N1    A    
C24   N2    A    
C15   C23   S    
C35   C36   A    
C26   H1    S    
C13   C14   A    
C8    H8    S    
C42   H29   S    
C21   N1    A    
C28   H15   S    
O8    Zn2   S    
C38   C39   A    
C29   H18   S    
C14   C37   S    
C23   O5    A    
C40   C41   A    
C16   C17   A    
O5    Zn1   S    
C2    C4    S    
C39   C40   A    
C29   C30   S    
N5    H35   S    
C35   H23   S    
C17   C18   A    
C7    H7    S    
C33   H21   S    
N3    H30   S    
C4    H2    S    
C26   C30   S    
C38   H25   S    
N4    H33   S    
C22   C24   A    
C25   O7    A    
C39   H26   S    
C23   O6    A    
C32   H20   S    
C12   C30   S    
C40   H27   S    
O6    Zn2   S    
C6    C7    A    
C3    H16   S    
C4    H19   S    
C33   C34   A    
C28   C30   S    
C2    C3    S    
C9    C15   A    
C5    C10   A    
C11   C13   A    
C26   H10   S    
N5    H34   S    
C41   H28   S    
C22   H9    S    
C5    H5    S    
C6    H6    S    
C2    C25   S    
C24   H13   S    
C1    O1    A    
C17   H11   S    
C12   O4    A    
C10   C11   A    
C32   C33   A    
C13   H4    S    
C20   C21   A    
C34   C35   A    
N1    Zn2   S    
C14   C15   A    
N2    Zn1   S    
C25   O8    A    
C12   O3    A    
C28   C31   S    
