data_mof_unit_16371.cif
_audit_creation_date              2012-12-10T20:49:28-0500
_audit_creation_method            fapswitch 2.2
_symmetry_space_group_name_H-M    P1
_symmetry_Int_Tables_number       1
_space_group_crystal_system       triclinic
_cell_length_a                    15.708184
_cell_length_b                    8.944169
_cell_length_c                    8.147413
_cell_angle_alpha                 90.170484
_cell_angle_beta                  91.118315
_cell_angle_gamma                 91.586873
_cell_volume                      1144.02021932

loop_
_atom_site_label
_atom_site_type_symbol
_atom_type_description
_atom_site_fract_x
_atom_site_fract_y
_atom_site_fract_z
_atom_type_partial_charge
Br1   Br    Br    0.912041 0.542650 0.126446 -0.507668
Br2   Br    Br    0.086218 0.439980 0.855715 -0.553486
C1    C     C_1   0.499350 0.065166 0.499728 -0.186810
C2    C     C_3   0.985521 0.604086 0.581732 0.415938
C3    C     C_1   0.248891 0.474627 0.493116 -0.170415
C4    C     C_1   0.751586 0.514069 0.505424 -0.158580
C5    C     C_3   0.031464 0.464590 0.643494 0.184872
C6    C     C_3   0.967688 0.501165 0.336027 0.030485
C7    C     C_3   0.082612 0.464322 0.484387 -0.183178
C8    C     C_3   0.917398 0.501851 0.498784 -0.189894
C9    C     C_1   0.173676 0.462122 0.487420 0.113205
C10   C     C_1   0.826976 0.515423 0.505514 0.139661
C11   C     C_3   0.982732 0.194474 0.187234 0.130992
C12   C     C_1   0.499354 0.934768 0.500143 -0.193981
C13   C     C_3   0.990398 0.029739 0.142588 -0.372323
C14   C     C_3   0.912079 0.972824 0.046047 -0.887332
C15   C     C_3   0.003582 0.856700 0.652831 0.145142
C16   C     C_3   0.096956 0.865279 0.711213 -0.362841
C17   C     C_3   0.139551 0.013064 0.660803 -0.844117
C18   C     C_3   0.866995 0.160107 0.532320 0.073903
C19   C     C_3   0.796907 0.079962 0.628821 -0.343225
C20   C     C_3   0.732476 0.999875 0.514098 -0.929134
C21   C     C_3   0.118948 0.691888 0.205113 0.152524
C22   C     C_3   0.203613 0.780084 0.197356 -0.403787
C23   C     C_R   0.499686 0.218100 0.499830 0.930723
C24   C     C_3   0.258938 0.724525 0.058967 -0.855295
C25   C     C_R   0.499809 0.781873 0.500135 0.926701
C26   C     C_R   0.337528 0.494054 0.498250 0.882660
C27   C     C_R   0.662538 0.505363 0.501661 0.882730
C28   C     C_3   0.963691 0.361597 0.558357 0.370926
C29   C     C_3   0.036230 0.602968 0.421407 0.287589
C30   C     C_3   0.015128 0.361006 0.399188 0.307531
H1    H     H_    0.998499 0.261941 0.078027 0.242015
H2    H     H_    0.099531 0.856312 0.846858 0.216392
H3    H     H_    0.133008 0.771780 0.659489 0.248321
H4    H     H_    0.139612 0.022700 0.524878 0.294463
H5    H     H_    0.206464 0.017964 0.707398 0.253501
H6    H     H_    0.105346 0.108685 0.713067 0.299640
H7    H     H_    0.902887 0.075289 0.465260 0.152317
H8    H     H_    0.835003 0.232944 0.441383 0.137721
H9    H     H_    0.824974 0.995189 0.710746 0.231110
H10   H     H_    0.763456 0.162494 0.704823 0.243544
H11   H     H_    0.699745 0.081857 0.434394 0.261059
H12   H     H_    0.915660 0.215925 0.218588 0.139560
H13   H     H_    0.684073 0.939163 0.587979 0.267954
H14   H     H_    0.764815 0.917500 0.436107 0.270524
H15   H     H_    0.077644 0.724019 0.099728 0.200873
H16   H     H_    0.131522 0.570524 0.192304 0.195402
H17   H     H_    0.190990 0.900601 0.178887 0.228997
H18   H     H_    0.239250 0.768397 0.315637 0.236947
H19   H     H_    0.275582 0.606130 0.080071 0.284711
H20   H     H_    0.318788 0.793328 0.055177 0.262901
H21   H     H_    0.225163 0.733177 0.938757 0.266397
H22   H     H_    0.048311 0.015476 0.068654 0.225399
H23   H     H_    0.996676 0.962159 0.255412 0.264268
H24   H     H_    0.856003 0.966018 0.127066 0.265760
H25   H     H_    0.923468 0.859884 0.995985 0.320768
H26   H     H_    0.898451 0.050575 0.943913 0.273459
H27   H     H_    0.970200 0.945398 0.718269 0.175771
H28   H     H_    0.995597 0.883634 0.521275 0.171197
N1    N     N_1   0.500010 0.500000 0.073640 -0.027867
N2    N     N_1   0.499990 0.500000 0.926360 -0.026399
O1    O     O_R   0.500000 0.285340 0.636850 -0.612972
O2    O     O_3   0.963672 0.718695 0.692264 -0.610683
O3    O     O_3   0.923363 0.240238 0.640545 -0.612346
O4    O     O_3   0.078259 0.729061 0.352454 -0.668809
O5    O     O_R   0.500000 0.714660 0.363150 -0.612552
O6    O     O_R   0.500000 0.285340 0.363150 -0.614711
O7    O     O_R   0.500000 0.714660 0.636850 -0.616082
O8    O     O_R   0.376770 0.500000 0.636850 -0.605125
O9    O     O_R   0.623230 0.500000 0.363150 -0.603662
O10   O     O_R   0.376780 0.500000 0.363100 -0.620201
O11   O     O_R   0.623220 0.500000 0.636900 -0.605606
O12   O     O_3   0.040506 0.231129 0.316481 -0.628999
Zn1   Zn    Zn3+2 0.499990 0.500000 0.682780 1.003879
Zn2   Zn    Zn3+2 0.500010 0.500000 0.317220 0.997642

loop_
_geom_bond_atom_site_label_1
_geom_bond_atom_site_label_2
_ccdc_geom_bond_type
C29   O4    S    
Br1   C6    S    
Br2   C5    S    
O10   Zn2   S    
C21   O4    S    
C22   C24   S    
C3    C9    T    
C17   H4    S    
C15   O2    S    
C4    C10   T    
O9    Zn2   S    
C18   H8    S    
C27   O11   A    
C13   C14   S    
C16   C17   S    
C23   O1    A    
C17   H5    S    
C7    C30   S    
C21   C22   S    
C12   C25   S    
C16   H3    S    
C25   O7    A    
C5    C28   S    
C19   C20   S    
O11   Zn1   S    
C26   O10   A    
C23   O6    A    
C2    C5    S    
N1    Zn2   S    
C22   H18   S    
C21   H15   S    
C28   O3    S    
C13   H22   S    
C18   O3    S    
C1    C23   S    
C18   H7    S    
C6    C30   S    
C14   H24   S    
C11   H1    S    
C17   H6    S    
C24   H20   S    
C3    C26   S    
C16   H2    S    
C8    C28   S    
C20   H11   S    
C20   H13   S    
C15   C16   S    
C14   H26   S    
C18   C19   S    
C7    C9    S    
C1    C12   T    
C8    C10   S    
C15   H27   S    
C19   H9    S    
C20   H14   S    
C11   C13   S    
N2    Zn1   S    
C2    C8    S    
C24   H21   S    
C22   H17   S    
C5    C7    S    
C30   O12   S    
C21   H16   S    
C6    C29   S    
C26   O8    A    
O6    Zn2   S    
C2    O2    S    
C24   H19   S    
C28   C30   S    
O1    Zn1   S    
O7    Zn1   S    
C14   H25   S    
N1    N2    T    
C2    C29   S    
C25   O5    A    
C7    C29   S    
C15   H28   S    
C19   H10   S    
C4    C27   S    
C11   O12   S    
C6    C8    S    
O8    Zn1   S    
O5    Zn2   S    
C11   H12   S    
C13   H23   S    
C27   O9    A    
