data_mof_unit_29237.cif
_audit_creation_date              2012-12-10T20:50:10-0500
_audit_creation_method            fapswitch 2.2
_symmetry_space_group_name_H-M    P1
_symmetry_Int_Tables_number       1
_space_group_crystal_system       triclinic
_cell_length_a                    19.277572
_cell_length_b                    8.908791
_cell_length_c                    8.193202
_cell_angle_alpha                 89.99988
_cell_angle_beta                  88.927171
_cell_angle_gamma                 89.999507
_cell_volume                      1406.85270436

loop_
_atom_site_label
_atom_site_type_symbol
_atom_type_description
_atom_site_fract_x
_atom_site_fract_y
_atom_site_fract_z
_atom_type_partial_charge
C1    C     C_R   0.500000 0.218383 0.500000 0.942783
C2    C     C_R   0.252798 0.511363 0.352234 0.070701
C3    C     C_R   0.180206 0.598250 0.636925 0.384785
C4    C     C_R   0.819792 0.598237 0.363064 0.384785
C5    C     C_R   0.818915 0.492660 0.640666 0.404009
C6    C     C_R   0.181084 0.492671 0.359324 0.404006
C7    C     C_R   0.144805 0.538019 0.501851 -0.282032
C8    C     C_R   0.855194 0.538006 0.498137 -0.282036
C9    C     C_R   0.289234 0.531713 0.498479 -0.260270
C10   C     C_R   0.710765 0.531712 0.501517 -0.260278
C11   C     C_R   0.930391 0.537044 0.498292 0.458185
C12   C     C_R   0.500000 0.781595 0.500000 0.908166
C13   C     C_R   0.069608 0.537050 0.501698 0.458182
C14   C     C_3   0.310668 0.804901 0.750145 -0.653284
C15   C     C_3   0.689328 0.804892 0.249844 -0.653290
C16   C     C_3   0.686813 0.687383 0.826951 -0.646773
C17   C     C_3   0.313184 0.687380 0.173041 -0.646779
C18   C     C_R   0.365223 0.508708 0.500465 0.934683
C19   C     C_R   0.634776 0.508708 0.499534 0.934687
C20   C     C_1   0.500000 0.065284 0.500000 -0.185692
C21   C     C_1   0.500000 0.934634 0.500000 -0.202870
C22   C     C_R   0.253417 0.588563 0.636474 0.074318
C23   C     C_R   0.746581 0.588556 0.363518 0.074322
C24   C     C_R   0.747202 0.511362 0.647761 0.070704
H1    H     H_    0.277842 0.610729 0.879603 0.295646
H2    H     H_    0.728278 0.763093 0.869313 0.276119
H3    H     H_    0.643665 0.684512 0.918407 0.214843
H4    H     H_    0.666019 0.736815 0.713510 0.219276
H5    H     H_    0.316297 0.449924 0.154776 0.260780
H6    H     H_    0.356327 0.684513 0.081572 0.214843
H7    H     H_    0.333985 0.736809 0.286476 0.219280
H8    H     H_    0.271716 0.763090 0.130694 0.276123
H9    H     H_    0.077111 0.907353 0.801044 0.399470
H10   H     H_    0.922874 0.907349 0.198921 0.399466
H11   H     H_    0.922065 0.209108 0.843863 0.395287
H12   H     H_    0.263634 0.876272 0.761254 0.282919
H13   H     H_    0.077913 0.209152 0.156153 0.395291
H14   H     H_    0.336659 0.826136 0.630120 0.214174
H15   H     H_    0.347257 0.836911 0.846940 0.220143
H16   H     H_    0.722153 0.610718 0.120389 0.295642
H17   H     H_    0.736361 0.876264 0.238727 0.282915
H18   H     H_    0.663340 0.826130 0.369872 0.214175
H19   H     H_    0.652736 0.836899 0.153052 0.220142
H20   H     H_    0.683708 0.449927 0.845228 0.260776
N1    N     N_1   0.500000 0.500000 0.073640 -0.043987
N2    N     N_2   0.285615 0.536681 0.197722 -0.241699
N3    N     N_1   0.500000 0.500000 0.926360 -0.043988
N4    N     N_R   0.034408 0.405527 0.501445 -0.076027
N5    N     N_R   0.965631 0.668367 0.500371 -0.062350
N6    N     N_R   0.965594 0.405524 0.498543 -0.076017
N7    N     N_R   0.034364 0.668371 0.499620 -0.062346
N8    N     N_2   0.292599 0.647695 0.765971 -0.273724
N9    N     N_2   0.707398 0.647686 0.234021 -0.273720
N10   N     N_2   0.714387 0.536685 0.802274 -0.241694
O1    O     O_R   0.500000 0.285350 0.636850 -0.612210
O2    O     O_2   0.171550 0.719306 0.947943 -0.281016
O3    O     O_3   0.110592 0.865376 0.719994 -0.534022
O4    O     O_2   0.933075 0.611224 0.164113 -0.192379
O5    O     O_2   0.828447 0.719279 0.052039 -0.281021
O6    O     O_3   0.889399 0.865365 0.279982 -0.534030
O7    O     O_2   0.924193 0.508492 0.850347 -0.189473
O8    O     O_2   0.816677 0.396492 0.958107 -0.270740
O9    O     O_3   0.891372 0.240952 0.754621 -0.527497
O10   O     O_2   0.075806 0.508509 0.149645 -0.189493
O11   O     O_2   0.183323 0.396516 0.041878 -0.270709
O12   O     O_R   0.500000 0.714650 0.363150 -0.617865
O13   O     O_3   0.108632 0.240966 0.245359 -0.527490
O14   O     O_R   0.500000 0.714650 0.636850 -0.617865
O15   O     O_R   0.500000 0.285350 0.363150 -0.612210
O16   O     O_R   0.398140 0.500000 0.636920 -0.586714
O17   O     O_R   0.601860 0.500000 0.363080 -0.586716
O18   O     O_R   0.601860 0.500000 0.636920 -0.629408
O19   O     O_R   0.398140 0.500000 0.363080 -0.629411
O20   O     O_2   0.066924 0.611236 0.835878 -0.192380
S1    S     S_3+6 0.132211 0.695977 0.793997 0.076166
S2    S     S_3+6 0.867786 0.695960 0.205987 0.076162
S3    S     S_3+6 0.862939 0.412465 0.809442 0.089099
S4    S     S_3+6 0.137062 0.412482 0.190545 0.089107
Zn1   Zn    Zn3+2 0.500000 0.500000 0.682780 0.979672
Zn2   Zn    Zn3+2 0.500000 0.500000 0.317220 0.979671

loop_
_geom_bond_atom_site_label_1
_geom_bond_atom_site_label_2
_ccdc_geom_bond_type
C16   H4    S    
C18   O16   A    
O8    S3    D    
C19   O17   A    
N3    Zn1   S    
C4    C8    A    
O4    S2    D    
C2    N2    S    
C12   O14   A    
C15   N9    S    
O18   Zn1   S    
C3    C7    A    
C14   H12   S    
C9    C22   A    
C6    S4    S    
C24   N10   S    
C14   H15   S    
C13   N7    A    
C14   N8    S    
O7    S3    D    
N5    N7    A    
C3    S1    S    
O14   Zn1   S    
N4    N6    A    
O2    S1    D    
H10   O6    S    
C17   H6    S    
C19   O18   A    
C2    C6    A    
O13   S4    S    
O17   Zn2   S    
C23   N9    S    
N1    N3    T    
C16   H2    S    
O20   S1    D    
C17   N2    S    
C15   H17   S    
C4    C23   A    
C10   C24   A    
C12   O12   A    
C12   C21   S    
O6    S2    S    
C1    O15   A    
C11   N5    A    
C14   H14   S    
O1    Zn1   S    
C10   C19   S    
C18   O19   A    
C17   H7    S    
C5    C8    A    
C5    S3    S    
C22   N8    S    
O9    S3    S    
C1    C20   S    
H9    O3    S    
O11   S4    D    
O16   Zn1   S    
O10   S4    D    
C15   H18   S    
O15   Zn2   S    
C13   N4    A    
C6    C7    A    
C10   C23   A    
O12   Zn2   S    
H5    N2    S    
O3    S1    S    
C1    O1    A    
H1    N8    S    
C15   H19   S    
C11   N6    A    
C5    C24   A    
C16   H3    S    
C8    C11   S    
H13   O13   S    
O19   Zn2   S    
N1    Zn2   S    
C16   N10   S    
C4    S2    S    
H20   N10   S    
C9    C18   S    
C7    C13   S    
C20   C21   T    
H16   N9    S    
C17   H8    S    
C3    C22   A    
H11   O9    S    
C2    C9    A    
O5    S2    D    
