data_mof_unit_26506.cif
_audit_creation_date              2013-03-05T16:01:47-0500
_audit_creation_method            fapswitch 2.2
_symmetry_space_group_name_H-M    P1
_symmetry_Int_Tables_number       1
_space_group_crystal_system       triclinic
_cell_length_a                    14.971184
_cell_length_b                    14.036862
_cell_length_c                    11.549741
_cell_angle_alpha                 89.938835
_cell_angle_beta                  89.933055
_cell_angle_gamma                 90.325337
_cell_volume                      2427.11791213

loop_
_atom_site_label
_atom_site_type_symbol
_atom_site_description
_atom_site_fract_x
_atom_site_fract_y
_atom_site_fract_z
_atom_type_partial_charge
O1    O     O_R   0.367850 0.580280 0.500030 -0.616870
O2    O     O_R   0.632150 0.419720 0.499970 -0.615994
O3    O     O_R   0.632150 0.580280 0.499970 -0.630173
O4    O     O_R   0.367850 0.419720 0.500030 -0.629230
C1    C     C_R   0.327069 0.499715 0.503910 0.894462
C2    C     C_R   0.672929 0.500294 0.496037 0.894527
O5    O     O_R   0.500010 0.580270 0.334450 -0.608549
O6    O     O_R   0.499990 0.419730 0.665550 -0.609410
O7    O     O_R   0.499990 0.580270 0.665550 -0.617713
O8    O     O_R   0.500010 0.419730 0.334450 -0.618640
C3    C     C_R   0.500010 0.500037 0.281766 0.896793
C4    C     C_R   0.499989 0.499961 0.718233 0.896900
Zn1   Zn    Zn3+2 0.500000 0.607200 0.500000 0.945842
Zn2   Zn    Zn3+2 0.500000 0.392800 0.500000 0.945772
C5    C     C_1   0.500070 0.500083 0.161396 -0.187639
C6    C     C_1   0.499929 0.499905 0.838604 -0.187668
C7    C     C_1   0.500042 0.500033 0.059287 0.001371
C8    C     C_1   0.499956 0.499945 0.940713 0.001382
C9    C     C_R   0.814327 0.449627 0.404537 0.152785
C10   C     C_R   0.185639 0.550478 0.595186 0.152413
C11   C     C_R   0.768253 0.501380 0.489663 -0.069546
C12   C     C_R   0.231739 0.498709 0.510104 -0.069817
C13   C     C_R   0.812377 0.555037 0.572773 -0.309270
C14   C     C_R   0.187638 0.445311 0.426731 -0.308150
C15   C     C_R   0.904859 0.556489 0.577659 0.112959
C16   C     C_R   0.095154 0.444005 0.421683 0.112742
C17   C     C_R   0.953245 0.500926 0.497021 -0.022355
C18   C     C_R   0.046760 0.499542 0.502340 -0.022755
C19   C     C_R   0.908102 0.446912 0.410840 0.073058
C20   C     C_R   0.091890 0.553459 0.588616 0.072961
C21   C     C_R   0.949728 0.611298 0.662179 0.197702
C22   C     C_R   0.050290 0.389324 0.337035 0.197764
C23   C     C_R   0.042465 0.609191 0.666363 -0.214993
C24   C     C_R   0.957545 0.391323 0.332955 -0.216104
H1    H     H_    0.772901 0.594304 0.635042 0.173456
H2    H     H_    0.227134 0.406078 0.364449 0.173531
H3    H     H_    0.075514 0.652425 0.731015 0.166151
H4    H     H_    0.924505 0.348089 0.268296 0.165654
C25   C     C_R   0.566064 0.798205 0.443859 -0.035763
C26   C     C_R   0.435453 0.201801 0.559022 -0.035476
C27   C     C_R   0.433972 0.797325 0.556196 -0.031632
C28   C     C_R   0.564585 0.202705 0.441007 -0.031773
N1    N     N_R   0.500000 0.750030 0.500000 -0.111106
N2    N     N_R   0.500000 0.249970 0.500000 -0.111145
C29   C     C_R   0.430936 0.898309 0.556839 -0.021989
C30   C     C_R   0.566550 0.101697 0.438167 -0.021791
C31   C     C_R   0.569135 0.899236 0.443225 -0.021891
C32   C     C_R   0.433527 0.100768 0.561856 -0.022163
C33   C     C_R   0.500036 0.949502 0.500019 -0.016171
C34   C     C_R   0.500028 0.050514 0.499992 -0.016221
C35   C     C_R   0.361171 0.948570 0.613162 0.202549
C36   C     C_R   0.633394 0.051377 0.376134 0.201733
C37   C     C_R   0.638932 0.950444 0.386953 0.193934
C38   C     C_R   0.366774 0.049533 0.624041 0.194331
H5    H     H_    0.615404 0.756551 0.398508 0.153558
H6    H     H_    0.385076 0.243496 0.602333 0.153374
H7    H     H_    0.384631 0.755040 0.601592 0.155232
H8    H     H_    0.614967 0.245105 0.397782 0.155148
C39   C     C_3   0.764827 0.401361 0.305431 -0.929164
H9    H     H_    0.793487 0.425057 0.221408 0.237786
H10   H     H_    0.770718 0.322851 0.313391 0.239761
H11   H     H_    0.693038 0.419301 0.300969 0.244167
C40   C     C_3   0.235060 0.598378 0.694610 -0.931176
H12   H     H_    0.306820 0.580315 0.699158 0.244599
H13   H     H_    0.229282 0.676914 0.687010 0.240633
H14   H     H_    0.206213 0.574490 0.778447 0.238013
C41   C     C_3   0.900624 0.672604 0.748717 -0.925268
H15   H     H_    0.859997 0.726514 0.702439 0.245873
H16   H     H_    0.856550 0.627367 0.803558 0.243069
H17   H     H_    0.947023 0.711445 0.807240 0.241052
C42   C     C_3   0.099406 0.328216 0.250304 -0.924965
H18   H     H_    0.143506 0.373578 0.195648 0.243100
H19   H     H_    0.140010 0.274186 0.296404 0.246223
H20   H     H_    0.053018 0.289530 0.191616 0.240982
C43   C     C_3   0.279331 0.894504 0.655716 -0.944755
H21   H     H_    0.220261 0.940612 0.667670 0.258284
H22   H     H_    0.257554 0.841870 0.589684 0.236147
H23   H     H_    0.294756 0.857200 0.738045 0.241623
C44   C     C_3   0.695767 0.105310 0.295257 -0.941071
H24   H     H_    0.726828 0.059094 0.228982 0.258111
H25   H     H_    0.657877 0.158356 0.243911 0.235423
H26   H     H_    0.748608 0.141993 0.346048 0.240221
C45   C     C_3   0.720697 0.897430 0.344156 -0.927083
H27   H     H_    0.779867 0.944238 0.332758 0.256312
H28   H     H_    0.742321 0.844431 0.409674 0.235312
H29   H     H_    0.705280 0.860679 0.261433 0.242970
C46   C     C_3   0.304846 0.102594 0.705451 -0.926513
H30   H     H_    0.273209 0.055798 0.771166 0.256366
H31   H     H_    0.343368 0.155127 0.757359 0.234800
H32   H     H_    0.252469 0.139904 0.655088 0.243080

loop_
_geom_bond_atom_site_label_1
_geom_bond_atom_site_label_2
_geom_bond_distance
_ccdc_geom_bond_type
C15   C21   1.411861 A    
C46   H30   1.107445 S    
C40   H13   1.109658 S    
C16   C22   1.411865 A    
C17   C19   1.421167 A    
O3    C2    1.281872 A    
C28   H8    1.079725 S    
C31   C33   1.416329 A    
C10   C20   1.406521 A    
O5    C3    1.280655 A    
C14   H2    1.083465 S    
O1    C1    1.282828 A    
C25   C31   1.418656 A    
C9    C11   1.405638 A    
C14   C16   1.385912 A    
C38   C46   1.518473 S    
C29   C35   1.421112 A    
C30   C36   1.421662 A    
C5    C7    1.179328 T    
C28   C30   1.418710 A    
O7    Zn1   1.948672 S    
C3    C5    1.390248 S    
C25   H5    1.080066 S    
C1    C12   1.428888 S    
C4    C6    1.390248 S    
C26   H6    1.079971 S    
C21   C23   1.389754 A    
C36   C44   1.518574 S    
C26   N2    1.358580 A    
O3    Zn1   2.016311 S    
C31   C37   1.421214 A    
C32   C34   1.416600 A    
C40   H14   1.110512 S    
C39   H9    1.110499 S    
C27   N1    1.358685 A    
O2    C2    1.282944 A    
C28   N2    1.358691 A    
C43   H23   1.110179 S    
C22   C42   1.512357 S    
C39   H10   1.109778 S    
C41   H15   1.110580 S    
O8    Zn2   1.948673 S    
C44   H25   1.110199 S    
C25   N1    1.358648 A    
C9    C39   1.521961 S    
C2    C11   1.428919 S    
C19   C24   1.404446 A    
C23   H3    1.081256 S    
C44   H24   1.107548 S    
C41   H16   1.110507 S    
C22   C24   1.389802 A    
C32   C38   1.421560 A    
C21   C41   1.512366 S    
C43   H21   1.107436 S    
C42   H20   1.110966 S    
C45   H27   1.107550 S    
C29   C33   1.416415 A    
O6    C4    1.280630 A    
C7    C8    1.369510 S    
C43   H22   1.110341 S    
C45   H28   1.110387 S    
C10   C12   1.405596 A    
C13   H1    1.083466 S    
C11   C13   1.386507 A    
C12   C14   1.386498 A    
O1    Zn1   2.012097 S    
C9    C19   1.406631 A    
Zn1   N1    2.004885 S    
C36   C37   1.425053 A    
Zn2   N2    2.004886 S    
C26   C32   1.418663 A    
C39   H11   1.106509 S    
O6    Zn2   1.949464 S    
C20   C23   1.404414 A    
C24   H4    1.081240 S    
C35   C43   1.518542 S    
O4    C1    1.281978 A    
C44   H26   1.110055 S    
C15   C17   1.416629 A    
C30   C34   1.416691 A    
C16   C18   1.416638 A    
C37   C45   1.518639 S    
C41   H17   1.110959 S    
C35   C38   1.424898 A    
C10   C40   1.521893 S    
C18   C20   1.421131 A    
C27   H7    1.079957 S    
C42   H18   1.110505 S    
C13   C15   1.385812 A    
O4    Zn2   2.016312 S    
O2    Zn2   2.012095 S    
O7    C4    1.280454 A    
O8    C3    1.280429 A    
C40   H12   1.106537 S    
O5    Zn1   1.949465 S    
C45   H29   1.110165 S    
C6    C8    1.179329 T    
C33   C34   1.417893 A    
C46   H32   1.110213 S    
C42   H19   1.110552 S    
C17   C18   1.401692 A    
C46   H31   1.110273 S    
C27   C29   1.418517 A    
