data_mof_unit_17006.cif
_audit_creation_date              2012-12-10T20:49:45-0500
_audit_creation_method            fapswitch 2.2
_symmetry_space_group_name_H-M    P1
_symmetry_Int_Tables_number       1
_space_group_crystal_system       triclinic
_cell_length_a                    8.110329
_cell_length_b                    8.933676
_cell_length_c                    16.740029
_cell_angle_alpha                 90.085811
_cell_angle_beta                  84.321048
_cell_angle_gamma                 90.039875
_cell_volume                      1206.94520213

loop_
_atom_site_label
_atom_site_type_symbol
_atom_type_description
_atom_site_fract_x
_atom_site_fract_y
_atom_site_fract_z
_atom_type_partial_charge
C1    C     C_R   0.500034 0.782012 0.500015 0.926618
C2    C     C_R   0.499928 0.217993 0.500190 0.920912
C3    C     C_1   0.500046 0.934825 0.500100 -0.182545
C4    C     C_1   0.499938 0.065204 0.500163 -0.179649
C5    C     C_R   0.475764 0.497659 0.653626 0.865287
C6    C     C_R   0.523951 0.495233 0.346463 0.863077
C7    C     C_R   0.454788 0.462203 0.738578 -0.155004
C8    C     C_R   0.539586 0.463652 0.260941 -0.166682
C9    C     C_R   0.538086 0.335978 0.765265 0.053599
C10   C     C_R   0.442526 0.546405 0.211581 0.063629
C11   C     C_R   0.505494 0.288872 0.844367 -0.202405
C12   C     C_R   0.439221 0.503675 0.131753 -0.179521
C13   C     C_R   0.391144 0.366393 0.896929 0.071807
C14   C     C_R   0.532155 0.380674 0.100947 0.063917
C15   C     C_R   0.301884 0.486266 0.869515 -0.163501
C16   C     C_R   0.637321 0.305753 0.148142 -0.168351
C17   C     C_R   0.334164 0.537286 0.791114 0.402792
C18   C     C_R   0.638612 0.342240 0.228789 0.404950
C19   C     C_2   0.384371 0.343234 0.983255 -0.188886
C20   C     C_2   0.526021 0.334826 0.017748 -0.189304
H1    H     H_    0.214671 0.547202 0.910748 0.156776
H2    H     H_    0.711656 0.212755 0.123402 0.162887
H3    H     H_    0.365063 0.567250 0.093433 0.141692
H4    H     H_    0.572351 0.193880 0.865184 0.148872
H5    H     H_    0.643203 0.311571 0.982661 0.155838
H6    H     H_    0.268806 0.368285 0.019424 0.156666
N1    N     N_1   0.926360 0.500000 0.499990 -0.016368
N2    N     N_1   0.073640 0.500000 0.500010 -0.017431
O1    O     O_R   0.363150 0.714660 0.500000 -0.612377
O2    O     O_R   0.636850 0.285340 0.500000 -0.612673
O3    O     O_R   0.636850 0.714660 0.500000 -0.612936
O4    O     O_R   0.363150 0.285340 0.500000 -0.612965
O5    O     O_R   0.346950 0.500000 0.615800 -0.611345
O6    O     O_R   0.653050 0.500000 0.384200 -0.612402
O7    O     O_R   0.620700 0.500000 0.615800 -0.588216
O8    O     O_R   0.379300 0.500000 0.384200 -0.586199
Zn1   Zn    Zn3+2 0.317220 0.500000 0.500010 1.016810
Zn2   Zn    Zn3+2 0.682780 0.500000 0.499990 1.015664
N3    N     N_3   0.652940 0.253223 0.711518 -0.421204
H7    H     H_    0.767249 0.251835 0.735432 0.199118
H8    H     H_    0.610591 0.142852 0.709299 0.183109
N4    N     N_3   0.346553 0.672344 0.243283 -0.417400
H9    H     H_    0.276279 0.716801 0.199885 0.189169
H10   H     H_    0.429767 0.755963 0.256752 0.180985
O9    O     O_3   0.731958 0.252234 0.273930 -0.753430
H11   H     H_    0.681802 0.251164 0.330161 0.337705
O10   O     O_3   0.248578 0.662133 0.769444 -0.757990
H12   H     H_    0.305015 0.705601 0.719707 0.326902

loop_
_geom_bond_atom_site_label_1
_geom_bond_atom_site_label_2
_ccdc_geom_bond_type
O10   H12   S    
C2    C4    S    
N4    H10   S    
C15   C17   A    
C14   C20   S    
C10   N4    S    
C11   C13   A    
C19   C20   D    
O3    Zn2   S    
C1    O3    A    
C2    O2    A    
C6    O8    A    
C1    O1    A    
N3    H8    S    
O6    Zn2   S    
O9    H11   S    
C9    C11   A    
C12   H3    S    
C15   H1    S    
C10   C12   A    
N2    Zn1   S    
C5    O7    A    
C2    O4    A    
O8    Zn1   S    
C12   C14   A    
C8    C18   A    
C13   C15   A    
C14   C16   A    
N4    H9    S    
C13   C19   S    
N1    Zn2   S    
C3    C4    T    
N3    H7    S    
C18   O9    S    
C7    C9    A    
C11   H4    S    
C9    N3    S    
O7    Zn2   S    
O2    Zn2   S    
C16   C18   A    
C20   H5    S    
O1    Zn1   S    
N1    N2    T    
C5    C7    S    
C19   H6    S    
C6    C8    S    
C1    C3    S    
O4    Zn1   S    
C8    C10   A    
O5    Zn1   S    
C6    O6    A    
C17   O10   S    
C16   H2    S    
C7    C17   A    
C5    O5    A    
