data_mof_unit_55137.cif
_audit_creation_date              2012-12-11T18:05:01-0500
_audit_creation_method            fapswitch 2.2
_symmetry_space_group_name_H-M    P1
_symmetry_Int_Tables_number       1
_space_group_crystal_system       triclinic
_cell_length_a                    8.495444
_cell_length_b                    13.0425
_cell_length_c                    22.687519
_cell_angle_alpha                 96.953729
_cell_angle_beta                  88.307923
_cell_angle_gamma                 98.82666
_cell_volume                      2465.62195011

loop_
_atom_site_label
_atom_site_type_symbol
_atom_type_description
_atom_site_fract_x
_atom_site_fract_y
_atom_site_fract_z
_atom_type_partial_charge
Ba1   Ba    Ba6+2 0.856210 0.551220 0.472190 1.685611
Ba2   Ba    Ba6+2 0.333620 0.448870 0.527810 1.678124
C1    C     C_3   0.791640 0.866888 0.250969 0.695054
C2    C     C_R   0.200597 0.496612 0.922911 -0.033666
C3    C     C_R   0.147172 0.509081 0.865635 0.588646
C4    C     C_3   0.224281 0.821083 0.312221 0.879226
C5    C     C_R   0.880278 0.440824 0.892634 0.558832
C6    C     C_R   0.927920 0.438531 0.951536 -0.024294
C7    C     C_R   0.089100 0.464690 0.966483 -0.054617
C8    C     C_R   0.363234 0.517230 0.938183 -0.061312
C9    C     C_R   0.412526 0.505067 0.995177 -0.077963
C10   C     C_R   0.300708 0.475866 0.039614 -0.028743
C11   C     C_R   0.138537 0.458886 0.025392 -0.053509
C12   C     C_3   0.793887 0.760385 0.272166 0.368655
C13   C     C_R   0.816423 0.408921 0.995944 -0.090204
C14   C     C_R   0.863436 0.411692 0.054606 -0.062728
C15   C     C_R   0.025016 0.437005 0.070052 -0.027511
C16   C     C_3   0.339531 0.907630 0.287494 0.366472
C17   C     C_R   0.074116 0.443444 0.129494 0.554671
C18   C     C_R   0.347085 0.462483 0.097642 0.581601
C19   C     C_2   0.777652 0.490700 0.775678 -0.158991
C20   C     C_3   0.722391 0.490554 0.712812 -0.016542
C21   C     C_1   0.003488 0.521800 0.684529 0.040558
C22   C     C_2   0.047898 0.493550 0.735415 -0.114071
C23   C     C_3   0.530251 0.258050 0.334878 0.789589
C24   C     C_2   0.933611 0.487626 0.788219 0.179904
C25   C     C_R   0.431632 0.509734 0.228527 -0.131855
C26   C     C_R   0.466134 0.522755 0.289706 0.005601
C27   C     C_R   0.202864 0.440600 0.311029 -0.048781
C28   C     C_3   0.305744 0.777163 0.647712 0.721855
C29   C     C_R   0.177046 0.410392 0.249862 -0.118077
C30   C     C_R   0.283673 0.453708 0.206548 0.187878
C31   C     C_2   0.853693 0.502297 0.668523 -0.278684
C32   C     C_R   0.766113 0.175882 0.513859 0.182013
C33   C     C_R   0.437947 0.812688 0.477821 -0.250134
C34   C     C_3   0.417593 0.208626 0.283593 -0.379113
C35   C     C_R   0.410062 0.987166 0.458233 -0.113877
C36   C     C_R   0.350022 0.880603 0.455320 -0.043779
C37   C     C_R   0.582053 0.849210 0.507025 0.087358
C38   C     C_R   0.643964 0.959669 0.511599 -0.052492
C39   C     C_R   0.556157 0.028986 0.485977 -0.124019
C40   C     C_3   0.372670 0.774586 0.709428 -0.269624
C41   C     C_R   0.617389 0.138202 0.488527 0.008607
C42   C     C_R   0.852135 0.110546 0.540263 -0.044324
C43   C     C_R   0.789704 0.003627 0.540277 -0.149254
C44   C     C_3   0.087900 0.227267 0.397182 0.295067
C45   C     C_3   0.965301 0.186267 0.683714 0.282494
C46   C     C_3   0.031037 0.110837 0.384699 0.275865
C47   C     C_3   0.748921 0.715645 0.648914 0.279672
C48   C     C_3   0.815887 0.768945 0.708387 -0.368020
C49   C     C_3   0.987932 0.113885 0.282736 0.277052
C50   C     C_3   0.710222 0.929471 0.348427 0.079810
C51   C     C_3   0.712506 0.315792 0.260677 0.212112
C52   C     C_3   0.775354 0.936835 0.162293 0.152955
C53   C     C_3   0.485402 0.127761 0.633358 0.182307
C54   C     C_3   0.392863 0.034850 0.756061 0.156803
C55   C     C_3   0.730599 0.147926 0.853661 0.119012
C56   C     C_3   0.034270 0.210411 0.745710 -0.291802
C57   C     C_3   0.186079 0.679214 0.238924 0.097048
C58   C     C_3   0.815077 0.342805 0.558555 0.443176
C59   C     C_3   0.301004 0.952964 0.193185 0.164942
C60   C     C_3   0.208733 0.895551 0.593623 0.226203
C61   C     C_3   0.496491 0.206864 0.732929 1.005241
C62   C     C_3   0.607722 0.230887 0.786957 0.316415
C63   C     C_R   0.349399 0.493558 0.330172 -0.263946
H1    H     H_    0.840937 0.709294 0.235038 0.072360
H2    H     H_    0.886546 0.717326 0.728261 0.078874
H3    H     H_    0.718782 0.785932 0.739971 0.101428
H4    H     H_    0.871617 0.769516 0.311408 0.048130
H5    H     H_    0.495146 0.333333 0.354898 -0.100209
H6    H     H_    0.307432 0.167759 0.300854 0.163783
H7    H     H_    0.472781 0.148890 0.254546 0.132208
H8    H     H_    0.939481 0.261454 0.670825 -0.005289
H9    H     H_    0.853724 0.130218 0.685156 0.106113
H10   H     H_    0.150243 0.261555 0.744449 0.174806
H11   H     H_    0.048205 0.137085 0.763924 0.148243
H12   H     H_    0.483875 0.830827 0.715804 0.076616
H13   H     H_    0.535265 0.255481 0.826514 0.040489
H14   H     H_    0.701311 0.295899 0.778660 -0.004057
H15   H     H_    0.773168 0.391437 0.087675 0.157504
H16   H     H_    0.691545 0.385250 0.985737 0.123657
H17   H     H_    0.538329 0.522119 0.004949 0.116509
H18   H     H_    0.517443 0.549903 0.199974 0.153625
H19   H     H_    0.453354 0.541743 0.905890 0.129911
H20   H     H_    0.156139 0.459633 0.735711 0.158174
H21   H     H_    0.688133 0.501742 0.809643 0.149024
H22   H     H_    0.074144 0.355051 0.236312 0.084093
H23   H     H_    0.285333 0.796031 0.744372 0.072342
H24   H     H_    0.373427 0.513326 0.377112 0.072040
H25   H     H_    0.296870 0.768300 0.331251 -0.305574
H26   H     H_    0.340491 0.036836 0.439030 0.108206
H27   H     H_    0.857442 0.955614 0.561824 0.114448
H28   H     H_    0.388385 0.730745 0.475481 0.056341
H29   H     H_    0.431783 0.869384 0.261426 0.051329
H30   H     H_    0.080674 0.249659 0.445729 0.097748
H31   H     H_    0.211163 0.246916 0.380741 -0.055738
H32   H     H_    0.051980 0.192361 0.276490 -0.002621
H33   H     H_    0.859905 0.116285 0.293060 0.108524
H34   H     H_    0.400774 0.696502 0.715572 0.101702
H35   H     H_    0.998654 0.068413 0.238935 0.034350
H36   H     H_    0.894782 0.843056 0.701978 0.138717
H37   H     H_    0.672817 0.001697 0.371275 0.085280
H38   H     H_    0.832678 0.924504 0.362100 0.089441
H39   H     H_    0.625645 0.864093 0.363494 0.063446
H40   H     H_    0.628676 0.370455 0.254678 0.011264
H41   H     H_    0.704358 0.252392 0.223044 -0.003286
H42   H     H_    0.831623 0.361199 0.259016 0.131051
H43   H     H_    0.386657 0.268036 0.256773 0.017935
H44   H     H_    0.905695 0.948180 0.152997 0.008831
H45   H     H_    0.902944 0.096358 0.396015 -0.013100
H46   H     H_    0.738968 0.008556 0.187087 0.045187
H47   H     H_    0.713905 0.923160 0.118960 0.060337
H48   H     H_    0.398481 0.961064 0.324851 0.018138
H49   H     H_    0.956099 0.254116 0.775490 0.072446
H50   H     H_    0.356023 0.123708 0.641798 0.151146
H51   H     H_    0.511552 0.048214 0.618298 0.070472
H52   H     H_    0.515664 0.175459 0.596777 0.045071
H53   H     H_    0.492368 0.009155 0.728172 0.123811
H54   H     H_    0.283903 0.977929 0.745452 0.094194
H55   H     H_    0.416311 0.034023 0.803833 0.053030
H56   H     H_    0.092020 0.070437 0.415377 0.051959
H57   H     H_    0.626330 0.144108 0.884576 0.043381
H58   H     H_    0.818240 0.218725 0.866738 0.076843
H59   H     H_    0.789891 0.079059 0.857657 0.063206
H60   H     H_    0.164837 0.619695 0.270153 0.086157
H61   H     H_    0.314021 0.695751 0.226191 0.036544
H62   H     H_    0.118084 0.648697 0.197975 0.108505
H63   H     H_    0.817723 0.519853 0.626264 0.000213
H64   H     H_    0.789023 0.304358 0.599674 -0.212807
H65   H     H_    0.737337 0.399082 0.553454 0.082757
H66   H     H_    0.919921 0.399991 0.564136 0.092471
H67   H     H_    0.850182 0.691332 0.621859 0.074023
H68   H     H_    0.271350 0.869932 0.173872 0.057297
H69   H     H_    0.429973 0.981320 0.187017 0.037967
H70   H     H_    0.233297 0.000103 0.168617 0.041983
H71   H     H_    0.379343 0.739706 0.612828 -0.001085
H72   H     H_    0.260569 0.963591 0.571356 0.063708
H73   H     H_    0.093000 0.910914 0.614029 0.083752
H74   H     H_    0.188321 0.827056 0.558967 0.021818
H75   H     H_    0.658708 0.647381 0.656276 0.027543
H76   H     H_    0.917998 0.904398 0.250957 0.038938
N1    N     N_R   0.987295 0.479331 0.849410 -0.413332
N2    N     N_R   0.235011 0.451240 0.143841 -0.420300
O1    O     O_2   0.890290 0.440320 0.360790 -0.402242
O2    O     O_2   0.183756 0.120315 0.538070 -0.514590
O3    O     O_3   0.073885 0.139537 0.645378 -0.600399
O4    O     O_3   0.130840 0.441440 0.431840 -0.490144
O5    O     O_3   0.574800 0.630800 0.528960 -0.497763
O6    O     O_2   0.344900 0.234690 0.472540 -0.506778
O7    O     O_3   0.514406 0.184538 0.375788 -0.651654
O8    O     O_2   0.435896 0.466147 0.696863 -0.428125
O9    O     O_3   0.435340 0.299231 0.724528 -0.624806
O10   O     O_2   0.243937 0.548544 0.830991 -0.604707
O11   O     O_2   0.742239 0.406537 0.880324 -0.655032
O12   O     O_3   0.674087 0.785084 0.621685 -0.648153
O13   O     O_2   0.972155 0.445876 0.168412 -0.624153
O14   O     O_2   0.487096 0.458945 0.106155 -0.620959
O15   O     O_3   0.672400 0.637930 0.395560 -0.475180
O16   O     O_2   0.801285 0.560877 0.291762 -0.498934
O17   O     O_3   0.983155 0.277229 0.369553 -0.603632
O18   O     O_3   0.640661 0.717353 0.287524 -0.650653
O19   O     O_2   0.844800 0.765340 0.527490 -0.472028
O20   O     O_3   0.090520 0.693800 0.424220 -0.465540
O21   O     O_2   0.024042 0.882752 0.464012 -0.501637
O22   O     O_3   0.062832 0.068399 0.325811 -0.616312
O23   O     O_3   0.123330 0.866457 0.355061 -0.605179
O24   O     O_3   0.697281 0.931990 0.286734 -0.675614
O25   O     O_3   0.691490 0.272945 0.315370 -0.634143
O26   O     O_3   0.730165 0.848583 0.192656 -0.647896
O27   O     O_3   0.583291 0.169834 0.682253 -0.740483
O28   O     O_3   0.360225 0.133939 0.745991 -0.679737
O29   O     O_3   0.682854 0.143654 0.794311 -0.681326
O30   O     O_3   0.128505 0.769424 0.264611 -0.699862
O31   O     O_3   0.836319 0.275995 0.506445 -0.680581
O32   O     O_3   0.256565 0.966189 0.253711 -0.610289
O33   O     O_3   0.313967 0.883194 0.638379 -0.715410
O34   O     O_2   0.299410 0.559720 0.639240 -0.476318
O35   O     O_3   0.058870 0.558650 0.568170 -0.509265
O36   O     O_3   0.517310 0.362160 0.604450 -0.481198
O37   O     O_3   0.146876 0.727527 0.645564 -0.680178
O38   O     O_3   0.614910 0.369290 0.471050 -0.458674
O39   O     O_3   0.099190 0.306290 0.575790 -0.464866
P1    P     P_3+3 0.057140 0.408270 0.369700 1.028051
P2    P     P_3+3 0.667360 0.749400 0.544670 0.965273
P3    P     P_3+3 0.148966 0.829639 0.425652 0.947501
P4    P     P_3+3 0.132580 0.591820 0.630310 0.941674
P5    P     P_3+3 0.049774 0.168786 0.573279 0.963650
P6    P     P_3+3 0.649299 0.602167 0.318338 0.951394
P7    P     P_3+3 0.524815 0.235066 0.451503 1.002490
P8    P     P_3+3 0.552962 0.388299 0.682786 0.935867

loop_
_geom_bond_atom_site_label_1
_geom_bond_atom_site_label_2
_ccdc_geom_bond_type
C49   H32   S    
C46   H45   S    
C19   C24   D    
C4    O23   S    
C50   H38   S    
C34   H43   S    
O23   P3    S    
C58   O31   S    
C1    H76   S    
Ba1   P1    S    
C59   H68   S    
C5    C6    A    
C13   H16   S    
C57   H61   S    
C63   H24   S    
C5    O11   D    
C50   H37   S    
O2    P5    D    
C53   O27   S    
Ba1   O15   S    
C22   C24   S    
O18   P6    S    
C26   P6    S    
C50   O24   S    
C53   H51   S    
C57   H62   S    
C13   C14   A    
C58   H66   S    
C6    C7    A    
O7    P7    S    
Ba1   Ba2   S    
Ba2   O39   S    
C43   H27   S    
C7    C11   A    
C30   N2    S    
O9    P8    S    
C48   H3    S    
C15   C17   A    
C55   H57   S    
O38   P7    S    
C51   H41   S    
O8    P8    D    
C46   O22   S    
C14   C15   A    
C21   C31   D    
C59   O32   S    
C59   H69   S    
C21   C22   D    
Ba2   O34   S    
C60   H74   S    
C20   P8    S    
C48   H2    S    
O17   P1    S    
C37   P2    S    
C34   H6    S    
C55   O29   S    
C16   O32   S    
Ba2   O6    S    
O1    P1    D    
C60   O33   S    
C23   O25   S    
C19   C20   S    
C17   O13   D    
C39   C41   A    
C52   O26   S    
C54   H53   S    
C16   H48   S    
C28   O33   S    
Ba1   P2    S    
C56   H10   S    
C54   H55   S    
C33   H28   S    
C9    H17   S    
C38   C43   A    
C4    C16   S    
C47   H67   S    
C44   C46   S    
C29   H22   S    
C44   H30   S    
C56   H11   S    
O3    P5    S    
C33   C36   A    
C32   C42   A    
C45   H8    S    
O21   P3    D    
C58   H65   S    
C46   H56   S    
Ba1   O38   S    
O12   P2    S    
C1    O26   S    
C61   O27   S    
C42   P5    S    
Ba2   O4    S    
C4    H25   S    
C31   H63   S    
O34   P4    D    
C52   H44   S    
C23   O7    S    
C14   H15   S    
Ba2   O38   S    
O16   P6    D    
C62   O29   S    
C33   C37   A    
Ba2   P4    S    
O19   P2    D    
C35   C36   A    
C32   O31   S    
C55   H58   S    
Ba1   O35   S    
C51   H42   S    
C51   O25   S    
C61   O28   S    
C29   C30   A    
O5    P2    S    
C44   O17   S    
C10   C18   A    
C12   H1    S    
C52   H47   S    
C60   H73   S    
C41   P7    S    
C1    C12   S    
O37   P4    S    
C48   H36   S    
C27   C63   A    
C38   C39   A    
Ba1   O19   S    
C6    C13   A    
C28   H71   S    
C18   O14   D    
C54   O28   S    
C16   H29   S    
C12   H4    S    
Ba1   O4    S    
C40   H23   S    
Ba2   O36   S    
C2    C8    A    
C37   C38   A    
C42   C43   A    
C59   H70   S    
C53   H52   S    
O4    P1    S    
C49   H35   S    
C20   C31   S    
C19   H21   S    
C50   H39   S    
C17   N2    Am   
C27   P1    S    
C25   C30   A    
C1    O24   S    
C62   H13   S    
C47   O12   S    
C28   C40   S    
C32   C41   A    
C45   H9    S    
C2    C3    A    
C57   O30   S    
O15   P6    S    
C58   H64   S    
C21   P4    S    
C9    C10   A    
C4    O30   S    
C57   H60   S    
C36   P3    S    
C62   H14   S    
O6    P7    D    
C11   C15   A    
O20   P3    S    
C12   O18   S    
C25   H18   S    
C26   C63   A    
C27   C29   A    
Ba1   O1    S    
C40   H34   S    
C45   C56   S    
C3    N1    Am   
O36   P8    S    
C53   H50   S    
C49   H33   S    
C3    O10   D    
C8    H19   S    
C54   H54   S    
C52   H46   S    
O39   P5    S    
C60   H72   S    
C35   C39   A    
C61   O9    S    
C45   O3    S    
C49   O22   S    
C8    C9    A    
C23   C34   S    
C22   H20   S    
C61   C62   S    
O35   P4    S    
C51   H40   S    
C44   H31   S    
C10   C11   A    
Ba1   O20   S    
C40   H12   S    
C47   C48   S    
C47   H75   S    
C25   C26   A    
C56   H49   S    
C28   O37   S    
C18   N2    Am   
Ba1   O5    S    
C23   H5    S    
Ba2   O35   S    
C2    C7    A    
C24   N1    S    
Ba2   O5    S    
C5    N1    Am   
C34   H7    S    
C35   H26   S    
C55   H59   S    
