data_mof_unit_65282.cif
_audit_creation_date              2012-12-10T19:08:42-0500
_audit_creation_method            fapswitch 2.2
_symmetry_space_group_name_H-M    P1
_symmetry_Int_Tables_number       1
_space_group_crystal_system       triclinic
_cell_length_a                    13.063347
_cell_length_b                    13.659907
_cell_length_c                    27.599138
_cell_angle_alpha                 90.073379
_cell_angle_beta                  93.264105
_cell_angle_gamma                 85.677867
_cell_volume                      4902.90808158

loop_
_atom_site_label
_atom_site_type_symbol
_atom_type_description
_atom_site_fract_x
_atom_site_fract_y
_atom_site_fract_z
_atom_type_partial_charge
Br1   Br    Br    0.326908 0.681691 0.244938 -0.380440
Br2   Br    Br    0.673127 0.318181 0.755024 -0.380459
Br3   Br    Br    0.637673 0.783574 0.129927 -0.244861
Br4   Br    Br    0.362424 0.216155 0.870065 -0.244859
Br5   Br    Br    0.587127 0.786852 0.013039 -0.344108
Br6   Br    Br    0.412885 0.212911 0.986958 -0.344111
C1    C     C_R   0.481129 0.684944 0.499431 0.899460
C2    C     C_R   0.535915 0.597734 0.125881 -0.163237
C3    C     C_R   0.501716 0.489316 0.646912 -0.171628
C4    C     C_R   0.498287 0.510627 0.353086 -0.171620
C5    C     C_R   0.546452 0.579326 0.024195 -0.081032
C6    C     C_R   0.453582 0.420432 0.975799 -0.081036
C7    C     C_R   0.435676 0.441312 0.025009 0.106833
C8    C     C_R   0.564355 0.558450 0.974985 0.106832
C9    C     C_R   0.488155 0.515691 0.049710 0.057432
C10   C     C_R   0.511878 0.484068 0.950284 0.057428
C11   C     C_R   0.578158 0.665065 0.048279 0.179184
C12   C     C_R   0.518871 0.315056 0.500569 0.899445
C13   C     C_R   0.421882 0.334690 0.951716 0.179194
C14   C     C_R   0.581114 0.670239 0.099262 0.308777
C15   C     C_R   0.418939 0.329510 0.900732 0.308772
C16   C     C_R   0.500079 0.498581 0.594075 0.883296
C17   C     C_R   0.499921 0.501413 0.405925 0.883301
C18   C     C_R   0.639951 0.603691 0.950521 -0.138843
C19   C     C_R   0.360068 0.396082 0.049471 -0.138836
C20   C     C_1   0.534127 0.212346 0.501211 -0.138319
C21   C     C_1   0.465873 0.787654 0.498790 -0.138324
C22   C     C_2   0.544753 0.021470 0.501806 -0.044392
C23   C     C_R   0.519678 0.472473 0.899743 -0.096862
C24   C     C_2   0.455248 0.978530 0.498198 -0.044390
C25   C     C_1   0.456845 0.874776 0.498361 -0.003081
C26   C     C_1   0.543155 0.125224 0.501641 -0.003080
C27   C     C_2   0.033039 0.474715 0.485334 -0.117062
C28   C     C_2   0.966961 0.525285 0.514666 -0.117063
C29   C     C_1   0.854653 0.519050 0.510366 0.140592
C30   C     C_1   0.145347 0.480950 0.489634 0.140587
C31   C     C_R   0.580922 0.528731 0.824355 0.570779
C32   C     C_R   0.419073 0.471062 0.175638 0.570782
C33   C     C_R   0.460479 0.405468 0.822906 0.619193
C34   C     C_R   0.480350 0.527292 0.100250 -0.096860
C35   C     C_R   0.539544 0.594302 0.177087 0.619186
C36   C     C_R   0.576408 0.411866 0.721359 0.294856
C37   C     C_R   0.423602 0.588011 0.278623 0.294860
C38   C     C_R   0.572308 0.419255 0.670779 -0.128339
C39   C     C_R   0.427717 0.580685 0.329205 -0.128331
C40   C     C_R   0.433491 0.549943 0.673755 -0.083997
C41   C     C_R   0.566470 0.449931 0.326256 -0.083997
C42   C     C_R   0.437943 0.541807 0.724493 -0.045974
C43   C     C_R   0.562005 0.458004 0.275515 -0.045964
C44   C     C_R   0.510004 0.473517 0.747945 0.170791
C45   C     C_R   0.582528 0.532489 0.874804 -0.005753
C46   C     C_R   0.489973 0.526300 0.252049 0.170784
C47   C     C_1   0.361572 0.622659 0.649513 0.229545
C48   C     C_1   0.638353 0.377205 0.350513 0.229513
C49   C     C_1   0.005921 0.588600 0.552288 0.226577
C50   C     C_1   0.994078 0.411399 0.447712 0.226581
C51   C     C_1   0.369895 0.604048 0.753078 0.238166
C52   C     C_1   0.630008 0.395690 0.246942 0.238176
C53   C     C_1   0.361219 0.647243 0.356435 0.291792
C54   C     C_1   0.638844 0.352757 0.643537 0.291816
C55   C     C_1   0.355969 0.033753 0.494071 0.240484
C56   C     C_R   0.417484 0.467290 0.125189 -0.005754
C57   C     C_1   0.644031 0.966247 0.505933 0.240488
C58   C     C_R   0.646510 0.593725 0.900821 -0.098990
C59   C     C_R   0.353498 0.406058 0.099170 -0.098992
C60   C     C_R   0.464121 0.402026 0.874113 -0.163246
H1    H     H_    0.701624 0.634447 0.882910 0.205730
H2    H     H_    0.298371 0.365351 0.117079 0.205727
H3    H     H_    0.695952 0.645985 0.969587 0.192829
H4    H     H_    0.304064 0.353793 0.030403 0.192826
N1    N     N_R   0.517699 0.468628 0.799719 -0.348124
N2    N     N_1   0.684245 0.345989 0.224057 -0.134246
N3    N     N_1   0.308196 0.700417 0.378231 -0.151990
N4    N     N_1   0.691899 0.299632 0.621731 -0.151983
N5    N     N_1   0.276700 0.077895 0.490775 -0.159605
N6    N     N_1   0.723300 0.922106 0.509229 -0.159603
N7    N     N_R   0.482300 0.531162 0.200274 -0.348126
N8    N     N_1   0.234530 0.484780 0.492250 -0.081777
N9    N     N_1   0.765470 0.515220 0.507750 -0.081775
N10   N     N_1   0.304250 0.680634 0.630151 -0.154623
N11   N     N_1   0.695644 0.319222 0.369888 -0.154646
N12   N     N_1   0.037164 0.639277 0.582412 -0.147021
N13   N     N_1   0.962835 0.360722 0.417588 -0.147026
N14   N     N_1   0.315622 0.653689 0.775973 -0.134252
O1    O     O_R   0.402510 0.634760 0.497160 -0.602566
O2    O     O_2   0.359966 0.413591 0.200167 -0.521751
O3    O     O_2   0.600972 0.650862 0.203931 -0.474474
O4    O     O_2   0.399056 0.348901 0.796064 -0.474472
O5    O     O_R   0.597490 0.365240 0.502840 -0.602565
O6    O     O_R   0.572960 0.644530 0.502140 -0.601383
O7    O     O_R   0.427040 0.355470 0.497860 -0.601386
O8    O     O_R   0.414790 0.495100 0.568760 -0.604006
O9    O     O_R   0.585210 0.504900 0.431240 -0.603997
O10   O     O_R   0.585240 0.504870 0.573730 -0.606979
O11   O     O_R   0.414760 0.495130 0.426270 -0.606977
O12   O     O_2   0.640008 0.586222 0.799825 -0.521754
Zn1   Zn    Zn3+2 0.386190 0.493480 0.496680 1.019163
Zn2   Zn    Zn3+2 0.613810 0.506520 0.503320 1.019169

loop_
_geom_bond_atom_site_label_1
_geom_bond_atom_site_label_2
_ccdc_geom_bond_type
C20   C26   T    
C15   C60   A    
N9    Zn2   S    
C12   C20   S    
C11   C14   A    
C34   C56   A    
C42   C51   S    
C41   C43   A    
C55   N5    T    
Br6   C13   S    
C2    C14   A    
C32   O2    S    
C12   O7    A    
C13   C15   A    
C38   C54   S    
C35   N7    A    
C24   C25   S    
C31   C45   A    
C5    C8    A    
C37   C46   A    
Br5   C11   S    
C57   N6    T    
O10   Zn2   S    
C27   C30   S    
C1    C21   S    
C40   C47   S    
C28   C29   S    
C8    C18   A    
C5    C9    A    
Br1   C37   S    
C5    C11   A    
C6    C10   A    
O8    Zn1   S    
C53   N3    T    
C43   C46   A    
C27   C50   S    
C42   C44   A    
C3    C40   A    
C18   C58   A    
C16   O10   A    
C7    C19   A    
C36   C38   A    
C33   O4    S    
C4    C39   A    
C18   H3    S    
C35   O3    S    
C40   C42   A    
C21   C25   T    
C58   H1    S    
C22   C26   S    
C47   N10   T    
C19   C59   A    
C2    C35   A    
C10   C23   A    
C1    O6    A    
C43   C52   S    
C17   O9    A    
C31   O12   S    
C44   N1    S    
C59   H2    S    
N8    Zn1   S    
C27   C28   D    
C51   N14   T    
Br3   C14   S    
O7    Zn1   S    
C49   N12   T    
C37   C39   A    
C36   C44   A    
C41   C48   S    
C31   N1    A    
C33   C60   A    
C8    C10   A    
C29   N9    T    
C46   N7    S    
C50   N13   T    
C23   C45   A    
C39   C53   S    
C3    C38   A    
C16   O8    A    
C56   C59   A    
C12   O5    A    
C45   C58   A    
O11   Zn1   S    
C32   N7    A    
C4    C17   S    
O5    Zn2   S    
C7    C9    A    
C22   C24   D    
C30   N8    T    
Br4   C15   S    
C52   N2    T    
C1    O1    A    
Br2   C36   S    
C6    C13   A    
C54   N4    T    
C17   O11   A    
C3    C16   S    
C9    C34   A    
O1    Zn1   S    
C23   C60   A    
C22   C57   S    
C28   C49   S    
C6    C7    A    
C24   C55   S    
C4    C41   A    
C33   N1    A    
C19   H4    S    
C2    C34   A    
O9    Zn2   S    
O6    Zn2   S    
C48   N11   T    
C32   C56   A    
