data_mof_unit_21100.cif
_audit_creation_date              2012-12-11T16:05:11-0500
_audit_creation_method            fapswitch 2.2
_symmetry_space_group_name_H-M    P1
_symmetry_Int_Tables_number       1
_space_group_crystal_system       triclinic
_cell_length_a                    10.728621
_cell_length_b                    10.695832
_cell_length_c                    16.947786
_cell_angle_alpha                 98.816394
_cell_angle_beta                  99.144956
_cell_angle_gamma                 61.279399
_cell_volume                      1677.19221088

loop_
_atom_site_label
_atom_site_type_symbol
_atom_type_description
_atom_site_fract_x
_atom_site_fract_y
_atom_site_fract_z
_atom_type_partial_charge
C1    C     C_R   0.353086 0.777509 0.399594 0.523052
C2    C     C_3   0.405817 0.695489 0.254993 -0.112480
C3    C     C_3   0.341814 0.818990 0.320364 0.061392
C4    C     C_R   0.370366 0.346845 0.358841 0.541762
C5    C     C_3   0.405802 0.901265 0.289894 -0.123818
C6    C     C_3   0.265392 0.974010 0.235158 -0.113945
C7    C     C_3   0.202396 0.890528 0.266928 -0.119294
C8    C     C_3   0.265572 0.767860 0.200890 -0.113906
C9    C     C_3   0.328414 0.850438 0.169664 0.056185
C10   C     C_3   0.452752 0.228515 0.768744 0.261683
C11   C     C_3   0.424425 0.371090 0.742080 0.018627
C12   C     C_3   0.732966 0.300567 0.249244 -0.118324
C13   C     C_3   0.339109 0.342108 0.665195 -0.013399
C14   C     C_3   0.365198 0.202004 0.693607 0.049482
C15   C     C_3   0.226700 0.283061 0.734913 -0.161311
C16   C     C_R   0.774340 0.377873 0.401149 0.546906
C17   C     C_3   0.198930 0.424849 0.705021 -0.158788
C18   C     C_3   0.283937 0.452931 0.782469 -0.160962
C19   C     C_3   0.314224 0.311436 0.810037 0.034786
C20   C     C_1   0.850630 0.326923 0.704852 -0.046756
C21   C     C_1   0.894711 0.294573 0.772683 -0.056455
C22   C     C_1   0.334003 0.819410 0.708504 0.017759
C23   C     C_3   0.811876 0.350868 0.320053 0.063000
C24   C     C_1   0.308918 0.845792 0.777203 -0.025201
C25   C     C_R   0.896640 0.308775 0.091974 0.570072
C26   C     C_R   0.319302 0.299411 0.120207 0.541870
C27   C     C_R   0.296393 0.888742 0.087823 0.548591
C28   C     C_R   0.354933 0.774949 0.626250 0.606809
C29   C     C_R   0.942030 0.276022 0.856123 0.565725
C30   C     C_R   0.304457 0.288723 0.889161 0.569234
C31   C     C_R   0.278074 0.887677 0.858266 0.546995
C32   C     C_R   0.370075 0.349035 0.587189 0.606669
C33   C     C_R   0.783315 0.374885 0.627232 0.577866
C34   C     C_3   0.956115 0.250097 0.289566 -0.151578
C35   C     C_1   0.343595 0.336601 0.275067 -0.064371
C36   C     C_1   0.332211 0.326232 0.203860 -0.062920
C37   C     C_3   0.878738 0.198851 0.217106 -0.117464
C38   C     C_2   0.515935 0.443413 0.760068 0.522929
C39   C     C_3   0.705997 0.093005 0.783770 0.036974
C40   C     C_3   0.759303 0.978177 0.713629 -0.268742
C41   C     C_3   0.916271 0.927452 0.704691 -0.475687
C42   C     C_2   0.395276 0.071681 0.637281 0.561883
C43   C     C_3   0.938750 0.371309 0.242709 -0.116458
C44   C     C_3   0.793324 0.472881 0.274154 -0.106274
C45   C     C_3   0.715757 0.421841 0.202286 -0.146746
C46   C     C_3   0.859808 0.321464 0.171785 0.058426
C47   C     C_3   0.468641 0.779116 0.222702 -0.132458
Cr1   Cr    Cr6+3 0.608340 0.611040 0.520430 1.059294
Cr2   Cr    Cr6+3 0.287650 0.601120 0.489350 1.035573
Cr3   Cr    Cr6+3 0.604040 0.287870 0.490280 1.035743
Cr4   Cr    Cr6+3 0.054020 0.052700 0.970850 1.010877
Cr5   Cr    Cr6+3 0.059230 0.375120 0.993390 1.030966
Cr6   Cr    Cr6+3 0.374950 0.061200 0.992340 1.059758
H1    H     H_    0.648500 0.271257 0.254188 0.134832
H2    H     H_    0.023437 0.400530 0.238037 0.127532
H3    H     H_    0.760159 0.585097 0.299532 0.133675
H4    H     H_    0.621042 0.486559 0.161866 0.114136
H5    H     H_    0.460108 0.581050 0.266833 0.114641
H6    H     H_    0.575482 0.736028 0.201418 0.116909
H7    H     H_    0.460925 0.957271 0.328387 0.133291
H8    H     H_    0.583004 0.567424 0.723983 0.342400
H9    H     H_    0.784550 0.054210 0.836851 0.190073
H10   H     H_    0.704992 0.190725 0.770178 0.155719
H11   H     H_    0.747626 0.884189 0.723601 0.223056
H12   H     H_    0.211069 0.088433 0.223283 0.114508
H13   H     H_    0.695816 0.023326 0.657149 0.203480
H14   H     H_    0.933261 0.018547 0.695698 0.156204
H15   H     H_    0.949366 0.847599 0.651830 0.160955
H16   H     H_    0.984144 0.875738 0.758719 0.175771
H17   H     H_    0.335241 0.987555 0.532771 0.337003
H18   H     H_    0.095004 0.934324 0.287654 0.120106
H19   H     H_    0.210375 0.711236 0.163095 0.127980
H20   H     H_    0.149311 0.242403 0.734396 0.107333
H21   H     H_    0.095787 0.504983 0.676898 0.147979
H22   H     H_    0.248859 0.555332 0.821241 0.143383
H23   H     H_    0.911928 0.087365 0.190381 0.132291
H24   H     H_    0.051051 0.184891 0.329724 0.114225
O1    O     O_R   0.751220 0.499230 0.435170 -0.524272
O2    O     O_R   0.412990 0.180750 0.091610 -0.506947
O3    O     O_R   0.366620 0.943130 0.065760 -0.497173
O4    O     O_R   0.477220 0.727600 0.436870 -0.512611
O5    O     O_R   0.160510 0.906330 0.879210 -0.542411
O6    O     O_R   0.930190 0.179050 0.889450 -0.507142
O7    O     O_R   0.909140 0.398170 0.896710 -0.466205
O8    O     O_R   0.186190 0.363460 0.918830 -0.532031
O9    O     O_R   0.401670 0.173200 0.913310 -0.454839
O10   O     O_R   0.356120 0.936130 0.900470 -0.480756
O11   O     O_3   0.162740 0.163010 0.985530 -0.294834
O12   O     O_R   0.297880 0.469080 0.560050 -0.489391
O13   O     O_R   0.258650 0.745120 0.411470 -0.520335
O14   O     O_R   0.297070 0.467240 0.395960 -0.499485
O15   O     O_R   0.488830 0.252610 0.387790 -0.520204
O16   O     O_R   0.724400 0.302390 0.420980 -0.512175
O17   O     O_R   0.752100 0.501210 0.612190 -0.500160
O18   O     O_R   0.478040 0.729440 0.600970 -0.441972
O19   O     O_R   0.259530 0.747110 0.588490 -0.524095
O20   O     O_2   0.571324 0.450267 0.828388 -0.510269
O21   O     O_R   0.528483 0.512270 0.701333 -0.684707
O22   O     O_3   0.574538 0.114659 0.805341 -0.528021
O23   O     O_R   0.489720 0.254590 0.564810 -0.513582
O24   O     O_2   0.501619 0.959572 0.650915 -0.527030
O25   O     O_R   0.301298 0.080408 0.568535 -0.720113
O26   O     O_R   0.725220 0.304230 0.585080 -0.484356
O27   O     O_3   0.500010 0.500010 0.500020 -0.250006
O28   O     O_R   0.171830 0.913880 0.057510 -0.519888
O29   O     O_R   0.940690 0.186050 0.054730 -0.497666
O30   O     O_R   0.920470 0.405720 0.075010 -0.512039
O31   O     O_R   0.196690 0.370460 0.084120 -0.506315

loop_
_geom_bond_atom_site_label_1
_geom_bond_atom_site_label_2
_ccdc_geom_bond_type
C11   C18   S    
Cr3   O27   S    
C1    O13   A    
Cr1   O18   S    
C34   C37   S    
C13   C32   S    
H8    O21   S    
Cr2   O13   S    
C38   O21   S    
C33   O17   A    
Cr2   O27   S    
C7    C8    S    
C41   H14   S    
C45   C46   S    
C15   C19   S    
C5    C47   S    
C12   C23   S    
C45   H4    S    
C16   O16   A    
C18   H22   S    
C31   O5    A    
Cr1   O17   S    
C28   O18   A    
Cr5   O8    S    
Cr6   O2    S    
Cr2   O14   S    
C29   O6    A    
C3    C7    S    
C34   H24   S    
C7    H18   S    
C5    C6    S    
C27   O28   A    
C1    O4    A    
Cr1   O27   S    
Cr1   O4    S    
C18   C19   S    
Cr1   O1    S    
C12   C37   S    
Cr5   O7    S    
C6    H12   S    
C35   C36   T    
Cr5   O30   S    
C8    C9    S    
Cr6   O9    S    
C30   O9    A    
C14   C42   S    
C4    O14   A    
C4    C35   S    
Cr3   O26   S    
C40   H13   S    
C13   C14   S    
C6    C9    S    
C38   O20   D    
C42   O25   S    
C25   O29   A    
C41   H15   S    
C8    H19   S    
C31   O10   A    
Cr5   O11   S    
Cr6   O3    S    
C29   O7    A    
C27   O3    A    
C10   C14   S    
C26   O31   A    
C39   C40   S    
C21   C29   S    
C23   C44   S    
C32   O23   A    
C1    C3    S    
C11   C38   S    
C43   C44   S    
C44   H3    S    
C39   O22   S    
C32   O12   A    
C10   C19   S    
Cr4   O28   S    
C23   C34   S    
C2    H5    S    
C17   C18   S    
Cr6   O10   S    
C30   O8    A    
Cr4   O5    S    
C20   C33   S    
C43   H2    S    
C40   C41   S    
C15   H20   S    
C37   H23   S    
C9    C47   S    
C16   C23   S    
C17   H21   S    
C22   C24   T    
C42   O24   D    
Cr4   O6    S    
C44   C45   S    
C9    C27   S    
C41   H16   S    
C26   C36   S    
C15   C17   S    
C39   H9    S    
Cr3   O15   S    
C5    H7    S    
C33   O26   A    
C2    C8    S    
C34   C43   S    
Cr2   O12   S    
C12   C45   S    
C3    C5    S    
Cr4   O11   S    
H17   O25   S    
Cr3   O16   S    
C6    C7    S    
C2    C47   S    
C39   H10   S    
Cr3   O23   S    
C26   O2    A    
C40   H11   S    
C13   C17   S    
C28   O19   A    
C2    C3    S    
C24   C31   S    
C11   C13   S    
Cr4   O29   S    
Cr6   O11   S    
C16   O1    A    
Cr2   O19   S    
C10   O22   S    
C43   C46   S    
C10   C11   S    
C47   H6    S    
C20   C21   T    
Cr5   O31   S    
C14   C15   S    
C22   C28   S    
C37   C46   S    
C19   C30   S    
C25   C46   S    
C25   O30   A    
C12   H1    S    
C4    O15   A    
