data_mof_unit_22000.cif
_audit_creation_date              2012-12-10T17:28:30-0500
_audit_creation_method            fapswitch 2.2
_symmetry_space_group_name_H-M    P1
_symmetry_Int_Tables_number       1
_space_group_crystal_system       triclinic
_cell_length_a                    10.640637
_cell_length_b                    11.967018
_cell_length_c                    12.906953
_cell_angle_alpha                 94.888119
_cell_angle_beta                  90.247974
_cell_angle_gamma                 86.495019
_cell_volume                      1634.48749385

loop_
_atom_site_label
_atom_site_type_symbol
_atom_type_description
_atom_site_fract_x
_atom_site_fract_y
_atom_site_fract_z
_atom_type_partial_charge
C1    C     C_R   0.498707 0.524127 0.701070 0.848405
C2    C     C_R   0.474808 0.554777 0.134327 -0.285824
C3    C     C_R   0.516710 0.448858 0.971776 0.142626
C4    C     C_R   0.483294 0.551141 0.028224 0.142627
C5    C     C_R   0.380615 0.952110 0.404223 -0.349148
C6    C     C_R   0.619386 0.047890 0.595776 -0.349145
C7    C     C_R   0.392472 0.836115 0.413171 0.035783
C8    C     C_R   0.607529 0.163884 0.586828 0.035784
C9    C     C_R   0.551784 0.859581 0.541115 -0.050380
C10   C     C_R   0.448216 0.140419 0.458885 -0.050384
C11   C     C_R   0.543439 0.976666 0.534737 0.098882
C12   C     C_R   0.501294 0.475873 0.298930 0.848406
C13   C     C_R   0.456562 0.023333 0.465262 0.098875
C14   C     C_R   0.739128 0.500443 0.500079 0.883664
C15   C     C_R   0.260872 0.499557 0.499922 0.883667
C16   C     C_R   0.873564 0.421288 0.316183 -0.150561
C17   C     C_R   0.126435 0.578722 0.683815 -0.150560
C18   C     C_R   0.940987 0.381526 0.226880 -0.142862
C19   C     C_R   0.059012 0.618496 0.773115 -0.142860
C20   C     C_R   0.071695 0.380034 0.227184 -0.143400
C21   C     C_R   0.928303 0.619993 0.772809 -0.143399
C22   C     C_R   0.135054 0.418304 0.316787 -0.165109
C23   C     C_R   0.502010 0.458229 0.186226 -0.112903
C24   C     C_R   0.864945 0.581713 0.683209 -0.165114
C25   C     C_R   0.067846 0.458556 0.408559 0.069997
C26   C     C_R   0.932154 0.541451 0.591440 0.069998
C27   C     C_R   0.936575 0.459970 0.408276 0.075249
C28   C     C_R   0.063424 0.540035 0.591723 0.075246
C29   C     C_R   0.128627 0.498760 0.500242 -0.193206
C30   C     C_R   0.871373 0.501242 0.499759 -0.193205
C31   C     C_3   0.554885 0.244146 0.184018 -0.373153
C32   C     C_3   0.582893 0.135188 0.113551 -0.402375
C33   C     C_3   0.598549 0.033570 0.177450 -0.865600
C34   C     C_R   0.497994 0.541771 0.813774 -0.112903
C35   C     C_3   0.445143 0.755859 0.815986 -0.373152
C36   C     C_3   0.417163 0.864820 0.886456 -0.402367
C37   C     C_3   0.401528 0.966443 0.822561 -0.865610
C38   C     C_R   0.460291 0.649561 0.978696 -0.219226
C39   C     C_R   0.539718 0.350440 0.021305 -0.219228
C40   C     C_R   0.468042 0.647749 0.870342 0.077291
C41   C     C_R   0.531971 0.352253 0.129659 0.077292
C42   C     C_R   0.525192 0.445222 0.865673 -0.285821
H1    H     H_    0.875780 0.650514 0.842229 0.137527
H2    H     H_    0.763319 0.583786 0.686872 0.128553
H3    H     H_    0.448239 0.634952 0.176628 0.166819
H4    H     H_    0.551757 0.365046 0.823372 0.166819
H5    H     H_    0.436171 0.726753 0.026027 0.130589
H6    H     H_    0.563840 0.273247 0.973974 0.130588
H7    H     H_    0.382227 0.178131 0.405990 0.120019
H8    H     H_    0.617773 0.821869 0.594009 0.120018
H9    H     H_    0.665945 0.219136 0.633835 0.131636
H10   H     H_    0.334055 0.780864 0.366165 0.131636
H11   H     H_    0.676589 0.044060 0.234229 0.269072
H12   H     H_    0.124217 0.349523 0.157761 0.137530
H13   H     H_    0.510098 0.022965 0.219864 0.260973
H14   H     H_    0.620605 0.956520 0.124926 0.244998
H15   H     H_    0.503893 0.121450 0.058154 0.227027
H16   H     H_    0.671364 0.141122 0.069375 0.225337
H17   H     H_    0.635970 0.254493 0.237867 0.218425
H18   H     H_    0.469026 0.232098 0.229515 0.214561
H19   H     H_    0.489984 0.977036 0.780149 0.260969
H20   H     H_    0.323488 0.955966 0.765781 0.269076
H21   H     H_    0.379484 0.043494 0.875086 0.244994
H22   H     H_    0.328692 0.858904 0.930636 0.225335
H23   H     H_    0.313045 0.985651 0.350130 0.144738
H24   H     H_    0.496170 0.878542 0.941850 0.227028
H25   H     H_    0.531001 0.767894 0.770483 0.214560
H26   H     H_    0.364050 0.745526 0.762142 0.218421
H27   H     H_    0.686956 0.014349 0.649868 0.144734
H28   H     H_    0.772061 0.421852 0.312003 0.128315
H29   H     H_    0.227939 0.578156 0.687997 0.128319
H30   H     H_    0.891564 0.352194 0.157236 0.137781
H31   H     H_    0.108433 0.647835 0.842757 0.137779
H32   H     H_    0.236680 0.416235 0.313123 0.128551
N1    N     N_R   0.523130 0.207800 0.519340 -0.100313
N2    N     N_R   0.476870 0.792200 0.480660 -0.100314
O1    O     O_R   0.506170 0.421700 0.658830 -0.616174
O2    O     O_R   0.493830 0.578300 0.341170 -0.616175
O3    O     O_R   0.491330 0.609310 0.646410 -0.646520
O4    O     O_R   0.508670 0.390690 0.353590 -0.646519
O5    O     O_R   0.690650 0.406190 0.506220 -0.620875
O6    O     O_R   0.309350 0.593810 0.493780 -0.620874
O7    O     O_R   0.675800 0.593810 0.493800 -0.613903
O8    O     O_R   0.324200 0.406190 0.506200 -0.613901
Zn1   Zn    Zn3+2 0.509910 0.374730 0.508290 0.933275
Zn2   Zn    Zn3+2 0.490090 0.625270 0.491710 0.933274

loop_
_geom_bond_atom_site_label_1
_geom_bond_atom_site_label_2
_ccdc_geom_bond_type
C33   H13   S    
C6    H27   S    
C3    C42   A    
C1    O1    A    
C35   C36   S    
C34   C42   A    
C32   H16   S    
C37   H20   S    
C39   C41   A    
C12   C23   S    
C34   C40   A    
C32   H15   S    
C36   C37   S    
C19   C21   A    
C24   C26   A    
C7    H10   S    
C36   H24   S    
C42   H4    S    
C31   H17   S    
C21   H1    S    
N1    Zn1   S    
C18   H30   S    
C12   O2    A    
C9    N2    A    
C5    C13   A    
O2    Zn2   S    
C33   H14   S    
C3    C39   A    
C27   C30   A    
C25   C29   A    
C14   O7    A    
C14   C30   S    
C37   H21   S    
C1    C34   S    
C15   C29   S    
C15   O6    A    
C2    H3    S    
C33   H11   S    
C19   H31   S    
C16   H28   S    
O8    Zn1   S    
C20   H12   S    
C6    C11   A    
C5    C7    A    
C6    C8    A    
O6    Zn2   S    
C22   C25   A    
C8    N1    A    
C31   H18   S    
C2    C4    A    
O4    Zn1   S    
C10   N1    A    
C31   C32   S    
C35   H25   S    
C9    C11   A    
C8    H9    S    
C38   H5    S    
C15   O8    A    
C5    H23   S    
C20   C22   A    
C26   C30   A    
C24   H2    S    
C22   H32   S    
C3    C4    A    
N2    Zn2   S    
C28   C29   A    
C31   C41   S    
C17   C28   A    
C9    H8    S    
C4    C38   A    
C10   C13   A    
C37   H19   S    
C17   H29   S    
C7    N2    A    
C25   C27   A    
C26   C28   A    
C23   C41   A    
C32   C33   S    
C35   C40   S    
C38   C40   A    
C11   C13   A    
C35   H26   S    
C16   C27   A    
C1    O3    A    
C12   O4    A    
C17   C19   A    
C18   C20   A    
O1    Zn1   S    
O7    Zn2   S    
C16   C18   A    
C21   C24   A    
C2    C23   A    
C14   O5    A    
C36   H22   S    
C10   H7    S    
O3    Zn2   S    
O5    Zn1   S    
C39   H6    S    
