data_mof_unit_6698.cif
_audit_creation_date              2012-12-10T18:29:34-0500
_audit_creation_method            fapswitch 2.2
_symmetry_space_group_name_H-M    P1
_symmetry_Int_Tables_number       1
_space_group_crystal_system       triclinic
_cell_length_a                    11.558418
_cell_length_b                    15.029258
_cell_length_c                    15.213379
_cell_angle_alpha                 81.029833
_cell_angle_beta                  90.440451
_cell_angle_gamma                 104.952858
_cell_volume                      2520.60038357

loop_
_atom_site_label
_atom_site_type_symbol
_atom_type_description
_atom_site_fract_x
_atom_site_fract_y
_atom_site_fract_z
_atom_type_partial_charge
C1    C     C_R   0.485245 0.441159 0.663395 0.841406
C2    C     C_R   0.510384 0.558874 0.337304 0.837615
C3    C     C_R   0.622976 0.416319 0.918332 0.022292
C4    C     C_R   0.503530 0.664872 0.059966 0.054947
C5    C     C_R   0.553793 0.553849 0.939891 -0.058854
C6    C     C_R   0.598570 0.545829 0.026541 -0.075535
C7    C     C_R   0.682529 0.491948 0.048272 -0.060202
C8    C     C_R   0.511797 0.634613 0.907445 -0.063974
C9    C     C_R   0.691124 0.424415 0.995589 0.177039
C10   C     C_R   0.490786 0.691698 0.968440 0.170043
C11   C     C_R   0.695482 0.851707 0.622739 -0.159621
C12   C     C_R   0.333626 0.161593 0.351612 -0.148302
C13   C     C_R   0.669721 0.763056 0.596286 0.277643
C14   C     C_R   0.357666 0.249344 0.379636 0.277094
C15   C     C_R   0.492759 0.787090 0.526036 -0.053135
C16   C     C_R   0.481470 0.202968 0.493599 -0.107017
C17   C     C_R   0.518876 0.879118 0.544714 -0.014066
C18   C     C_R   0.447289 0.109812 0.477498 -0.022763
C19   C     C_R   0.614281 0.906882 0.601834 0.119841
C20   C     C_R   0.370907 0.089324 0.405694 0.103218
C21   C     C_R   0.458982 0.946239 0.504752 0.087262
C22   C     C_R   0.490706 0.037738 0.527730 0.089742
C23   C     C_R   0.718115 0.501357 0.500355 0.904643
C24   C     C_R   0.281875 0.498633 0.499704 0.885915
C25   C     C_R   0.566839 0.054461 0.599299 -0.229376
C26   C     C_R   0.374312 0.926884 0.438762 -0.213240
C27   C     C_R   0.628286 0.990608 0.634992 -0.098437
C28   C     C_R   0.330738 0.996704 0.390997 -0.095316
C29   C     C_1   0.839502 0.503490 0.500924 -0.164294
C30   C     C_1   0.160503 0.496556 0.499159 -0.191194
C31   C     C_1   0.941207 0.501832 0.500508 0.023178
C32   C     C_1   0.058812 0.498249 0.499575 0.018196
C33   C     C_R   0.499766 0.408229 0.758322 -0.176483
C34   C     C_R   0.507128 0.598216 0.243058 -0.146749
C35   C     C_R   0.623233 0.345466 0.867529 -0.171504
C36   C     C_R   0.462022 0.709626 0.123023 -0.141257
C37   C     C_R   0.565001 0.342116 0.786550 0.011720
C38   C     C_R   0.461768 0.676651 0.214429 -0.013584
C39   C     C_R   0.481851 0.466595 0.816791 -0.229969
C40   C     C_R   0.550885 0.555628 0.180514 -0.258604
C41   C     C_R   0.553901 0.480689 0.890564 0.068818
C42   C     C_R   0.555215 0.590531 0.089241 0.058168
H1    H     H_    0.584297 0.117660 0.627459 0.180662
H2    H     H_    0.342013 0.858733 0.420250 0.167098
H3    H     H_    0.578008 0.492462 0.203777 0.165283
H4    H     H_    0.416034 0.505329 0.799503 0.172200
H5    H     H_    0.670893 0.293219 0.889128 0.181272
H6    H     H_    0.422998 0.767240 0.101151 0.208586
H7    H     H_    0.689157 0.008622 0.687678 0.193726
H8    H     H_    0.264469 0.976618 0.342287 0.199249
H9    H     H_    0.544823 0.226085 0.542533 0.144761
H10   H     H_    0.416301 0.757985 0.489225 0.135952
N1    N     N_R   0.566020 0.731700 0.552730 -0.103277
N2    N     N_R   0.433980 0.268300 0.447270 -0.106382
O1    O     O_R   0.466720 0.383110 0.605620 -0.626232
O2    O     O_R   0.533280 0.616890 0.394380 -0.621775
O3    O     O_R   0.509090 0.531900 0.639510 -0.596667
O4    O     O_R   0.490910 0.468100 0.360490 -0.582126
O5    O     O_R   0.644370 0.425610 0.483050 -0.602432
O6    O     O_R   0.355630 0.574390 0.516950 -0.617705
O7    O     O_R   0.686740 0.574390 0.516930 -0.577051
O8    O     O_R   0.313260 0.425610 0.483070 -0.585643
Zn1   Zn    Zn3+2 0.471710 0.400660 0.477370 0.966980
Zn2   Zn    Zn3+2 0.528290 0.599340 0.522630 0.970230
N3    N     N_2   0.769556 0.366096 0.020385 -0.265455
H11   H     H_    0.821186 0.357254 0.969116 0.222000
C43   C     C_3   0.715559 0.280730 0.080213 -0.636360
H12   H     H_    0.643748 0.234653 0.046797 0.217130
H13   H     H_    0.676853 0.296427 0.140834 0.261535
H14   H     H_    0.784933 0.243292 0.100915 0.237720
N4    N     N_2   0.454130 0.774887 0.939573 -0.308888
H15   H     H_    0.379803 0.768027 0.900928 0.285272
C44   C     C_3   0.550650 0.857153 0.910767 -0.711441
H16   H     H_    0.513984 0.919089 0.896421 0.247995
H17   H     H_    0.596496 0.849949 0.849365 0.240918
H18   H     H_    0.616616 0.868565 0.964075 0.241680
C45   C     C_2   0.403738 0.720009 0.277074 0.395691
H19   H     H_    0.370273 0.682318 0.342304 0.070932
O9    O     O_2   0.390435 0.798432 0.255691 -0.569346
C46   C     C_2   0.573762 0.269165 0.733767 0.374541
H20   H     H_    0.503730 0.244430 0.689122 0.082389
O10   O     O_2   0.658199 0.233960 0.741539 -0.591670
C47   C     C_2   0.773116 0.517769 0.117050 0.402851
H21   H     H_    0.786129 0.584518 0.139772 0.072506
O11   O     O_2   0.834314 0.466430 0.148824 -0.540388
C48   C     C_2   0.508834 0.667392 0.810090 0.348000
H22   H     H_    0.570450 0.652500 0.765415 0.099027
O12   O     O_2   0.435001 0.707199 0.778193 -0.575056
N5    N     N_2   0.304989 0.319806 0.337300 -0.268942
H23   H     H_    0.321978 0.336763 0.269480 0.205844
C49   C     C_3   0.180146 0.306588 0.362274 -0.715961
H24   H     H_    0.121271 0.250033 0.331362 0.206882
H25   H     H_    0.153597 0.372132 0.339497 0.244584
H26   H     H_    0.165455 0.288353 0.435674 0.262392
N6    N     N_2   0.761292 0.714781 0.599043 -0.263463
H27   H     H_    0.841914 0.756164 0.570708 0.216394
C50   C     C_3   0.776186 0.657508 0.682200 -0.770760
H28   H     H_    0.779236 0.694971 0.739691 0.192815
H29   H     H_    0.861051 0.636362 0.678443 0.238200
H30   H     H_    0.703203 0.592815 0.694125 0.268046
C51   C     C_2   0.813769 0.889977 0.661162 0.341746
H31   H     H_    0.854658 0.845845 0.707287 0.087626
O13   O     O_2   0.869960 0.971032 0.637987 -0.546754
C52   C     C_2   0.277587 0.149351 0.264092 0.358605
H32   H     H_    0.214312 0.187958 0.238235 0.081598
O14   O     O_2   0.307702 0.100139 0.216705 -0.542447

loop_
_geom_bond_atom_site_label_1
_geom_bond_atom_site_label_2
_ccdc_geom_bond_type
C7    C47   S    
C21   C26   A    
C4    C36   A    
C51   H31   S    
C44   H16   S    
N6    H27   S    
C16   H9    S    
C35   H5    S    
C25   H1    S    
C52   O14   D    
C50   H28   S    
C26   H2    S    
C39   C41   A    
C45   H19   S    
C23   O5    A    
C11   C19   A    
C33   C39   A    
C13   N6    S    
C34   C40   A    
C15   N1    A    
C35   C37   A    
C12   C52   S    
C5    C6    A    
N1    Zn2   S    
C48   O12   D    
N2    Zn1   S    
C7    C9    A    
C28   H8    S    
C47   H21   S    
N3    C43   S    
C22   C25   A    
O1    Zn1   S    
O2    Zn2   S    
N5    C49   S    
C19   C27   A    
C18   C20   A    
C10   N4    S    
C2    C34   S    
C40   C42   A    
C51   O13   D    
C18   C22   A    
C21   C22   A    
C44   H17   S    
C52   H32   S    
C50   H29   S    
C13   N1    A    
C45   O9    D    
C40   H3    S    
C37   C46   S    
C1    C33   S    
C43   H12   S    
C46   O10   D    
C49   H24   S    
N4    C44   S    
C48   H22   S    
C20   C28   A    
C33   C37   A    
C43   H13   S    
O7    Zn2   S    
C14   N5    S    
O8    Zn1   S    
C3    C9    A    
C1    O3    A    
C49   H25   S    
C31   C32   S    
C3    C35   A    
C24   O6    A    
C12   C20   A    
C2    O4    A    
C11   C51   S    
C15   H10   S    
C39   H4    S    
C16   C18   A    
C14   N2    A    
C12   C14   A    
C44   H18   S    
C24   C30   S    
C4    C10   A    
C23   C29   S    
C50   H30   S    
O3    Zn2   S    
O4    Zn1   S    
C15   C17   A    
C5    C41   A    
C3    C41   A    
C24   O8    A    
C47   O11   D    
C34   C38   A    
C26   C28   A    
C46   H20   S    
C5    C8    A    
N6    C50   S    
C6    C7    A    
C38   C45   S    
C25   C27   A    
O5    Zn1   S    
O6    Zn2   S    
C43   H14   S    
C16   N2    A    
C36   C38   A    
C1    O1    A    
N4    H15   S    
C29   C31   T    
C2    O2    A    
C49   H26   S    
C30   C32   T    
C11   C13   A    
C4    C42   A    
C17   C19   A    
C36   H6    S    
C8    C48   S    
C9    N3    S    
C23   O7    A    
C8    C10   A    
N3    H11   S    
C6    C42   A    
N5    H23   S    
C27   H7    S    
C17   C21   A    
