data_mof_unit_36270.cif
_audit_creation_date              2012-12-10T17:51:24-0500
_audit_creation_method            fapswitch 2.2
_symmetry_space_group_name_H-M    P1
_symmetry_Int_Tables_number       1
_space_group_crystal_system       triclinic
_cell_length_a                    9.877694
_cell_length_b                    10.727511
_cell_length_c                    16.821408
_cell_angle_alpha                 91.869095
_cell_angle_beta                  85.271757
_cell_angle_gamma                 89.489129
_cell_volume                      1775.31654132

loop_
_atom_site_label
_atom_site_type_symbol
_atom_type_description
_atom_site_fract_x
_atom_site_fract_y
_atom_site_fract_z
_atom_type_partial_charge
C1    C     C_R   0.498998 0.740100 0.494977 0.878442
C2    C     C_R   0.529565 0.512959 0.260853 -0.138035
C3    C     C_R   0.241667 0.891047 0.481416 -0.152412
C4    C     C_R   0.480809 0.504939 0.653269 0.914789
C5    C     C_R   0.120221 0.953458 0.506143 -0.142547
C6    C     C_R   0.122980 0.066589 0.548478 -0.098817
C7    C     C_R   0.247143 0.122915 0.558757 -0.122182
C8    C     C_R   0.370590 0.065529 0.526800 0.095079
C9    C     C_R   0.368623 0.941296 0.499439 0.111602
C10   C     C_R   0.494190 0.874022 0.491831 -0.113367
C11   C     C_R   0.617677 0.936058 0.494336 -0.208543
C12   C     C_R   0.345469 0.524237 0.786299 0.125237
C13   C     C_R   0.618548 0.063022 0.504520 -0.199171
C14   C     C_R   0.495866 0.128656 0.518273 -0.127321
C15   C     C_R   0.844664 0.667825 0.602462 -0.300391
C16   C     C_R   0.498862 0.261111 0.508170 0.887536
C17   C     C_R   0.907304 0.749122 0.653717 -0.282415
C18   C     C_R   0.047189 0.746872 0.655013 0.663507
C19   C     C_R   0.125045 0.664254 0.604378 -0.279662
C20   C     C_R   0.064798 0.581574 0.551154 0.076325
C21   C     C_R   0.920143 0.582383 0.550663 0.188615
C22   C     C_R   0.935936 0.421102 0.451534 -0.118021
C23   C     C_R   0.418272 0.532113 0.139656 -0.152243
C24   C     C_R   0.079316 0.421330 0.451424 -0.105132
C25   C     C_R   0.518747 0.500349 0.346883 0.917666
C26   C     C_R   0.467519 0.540815 0.738163 -0.161005
C27   C     C_R   0.574016 0.607349 0.768774 -0.313440
C28   C     C_R   0.561828 0.656247 0.845853 0.602781
C29   C     C_R   0.444675 0.634306 0.895660 -0.131477
C30   C     C_R   0.334172 0.570740 0.865603 0.017554
C31   C     C_R   0.411949 0.506436 0.219834 -0.199703
C32   C     C_R   0.654799 0.540665 0.220031 -0.287292
C33   C     C_R   0.661109 0.566378 0.139395 0.679755
C34   C     C_R   0.541977 0.565884 0.099788 0.047833
C35   C     C_2   0.451350 0.651230 0.981582 0.637378
C36   C     C_2   0.549072 0.588870 0.014932 -0.218221
F1    F     F_    0.782344 0.594634 0.100518 -0.638590
F2    F     F_    0.108219 0.825721 0.705250 -0.640858
F3    F     F_    0.348898 0.712103 0.026602 -0.650430
F4    F     F_    0.667911 0.719345 0.873593 -0.634659
H1    H     H_    0.667616 0.622782 0.733091 0.193463
H2    H     H_    0.846555 0.813627 0.692984 0.209549
H3    H     H_    0.314643 0.483015 0.249800 0.178671
H4    H     H_    0.231785 0.668261 0.608464 0.233333
H5    H     H_    0.139608 0.357114 0.411826 0.150804
H6    H     H_    0.746896 0.545466 0.250722 0.189333
H7    H     H_    0.631533 0.543069 0.977823 0.174862
H8    H     H_    0.326678 0.524219 0.108728 0.194418
H9    H     H_    0.170329 0.632399 0.936829 0.281655
H10   H     H_    0.238583 0.495683 0.963952 0.199774
H11   H     H_    0.215045 0.379539 0.791002 0.207567
H12   H     H_    0.714455 0.886831 0.487407 0.173282
H13   H     H_    0.149248 0.514561 0.760412 0.225305
H14   H     H_    0.233583 0.806041 0.446103 0.173064
H15   H     H_    0.023951 0.912579 0.493912 0.135564
H16   H     H_    0.028979 0.112676 0.571037 0.140102
H17   H     H_    0.245458 0.210920 0.592131 0.164838
H18   H     H_    0.715619 0.109689 0.500200 0.169258
H19   H     H_    0.888018 0.356739 0.412025 0.147920
H20   H     H_    0.737051 0.673952 0.605833 0.232000
N1    N     N_R   0.857140 0.501200 0.500750 -0.108230
N2    N     N_R   0.142740 0.501280 0.500770 -0.109069
N3    N     N_3   0.212852 0.546960 0.915488 -0.418797
N4    N     N_3   0.235372 0.456551 0.755587 -0.426832
O1    O     O_R   0.385310 0.683220 0.500000 -0.651560
O2    O     O_R   0.614640 0.683250 0.500010 -0.639416
O3    O     O_R   0.371780 0.500010 0.615800 -0.615148
O4    O     O_R   0.601110 0.500030 0.615800 -0.636149
O5    O     O_R   0.385360 0.316750 0.499990 -0.628745
O6    O     O_R   0.614690 0.316780 0.500000 -0.617195
O7    O     O_R   0.398890 0.499970 0.384200 -0.619034
O8    O     O_R   0.628220 0.499990 0.384200 -0.615736
Zn1   Zn    Zn3+2 0.346870 0.499980 0.499990 0.938613
Zn2   Zn    Zn3+2 0.653130 0.500020 0.500010 0.944374

loop_
_geom_bond_atom_site_label_1
_geom_bond_atom_site_label_2
_ccdc_geom_bond_type
O6    Zn2   S    
C4    O3    A    
C4    C26   S    
N2    Zn1   S    
O5    Zn1   S    
C6    C7    A    
C25   O7    A    
C1    C10   S    
N1    Zn2   S    
O8    Zn2   S    
C9    C10   A    
C27   H1    S    
C35   F3    S    
C35   C36   D    
C23   C34   A    
C32   H6    S    
C32   C33   A    
C29   C35   S    
C17   C18   A    
C18   F2    S    
O1    Zn1   S    
C7    C8    A    
C22   H19   S    
C25   O8    A    
C30   N3    S    
C20   C21   A    
C22   N1    A    
H10   N3    S    
C11   C13   A    
C26   C27   A    
C29   C30   A    
C31   H3    S    
H9    N3    S    
C24   H5    S    
C22   C24   A    
C2    C32   A    
C28   C29   A    
C3    C9    A    
C12   C26   A    
C7    H17   S    
C1    O2    A    
C33   C34   A    
C2    C25   S    
C34   C36   S    
C20   N2    A    
C5    C6    A    
C12   N4    S    
C3    H14   S    
C14   C16   S    
C1    O1    A    
C10   C11   A    
C16   O5    A    
O3    Zn1   S    
O4    Zn2   S    
O2    Zn2   S    
C23   H8    S    
C15   C21   A    
C16   O6    A    
C19   H4    S    
C36   H7    S    
C15   C17   A    
C18   C19   A    
C15   H20   S    
O7    Zn1   S    
C27   C28   A    
C13   H18   S    
C28   F4    S    
C17   H2    S    
C2    C31   A    
C24   N2    A    
C11   H12   S    
C8    C14   A    
C12   C30   A    
C13   C14   A    
C4    O4    A    
H13   N4    S    
C5    H15   S    
C21   N1    A    
C33   F1    S    
H11   N4    S    
C19   C20   A    
C6    H16   S    
C8    C9    A    
C3    C5    A    
C23   C31   A    
