data_mof_unit_42383.cif
_audit_creation_date              2013-03-05T15:56:02-0500
_audit_creation_method            fapswitch 2.2
_symmetry_space_group_name_H-M    P1
_symmetry_Int_Tables_number       1
_space_group_crystal_system       triclinic
_cell_length_a                    12.325331
_cell_length_b                    13.046586
_cell_length_c                    17.338053
_cell_angle_alpha                 105.042158
_cell_angle_beta                  74.961308
_cell_angle_gamma                 116.286633
_cell_volume                      2380.18711075

loop_
_atom_site_label
_atom_site_type_symbol
_atom_site_description
_atom_site_fract_x
_atom_site_fract_y
_atom_site_fract_z
_atom_type_partial_charge
O1    O     O_R   0.025490 0.682370 0.523640 -0.522437
O2    O     O_R   0.194150 0.640180 0.491890 -0.613927
C1    C     C_R   0.144026 0.714823 0.508057 0.798108
O3    O     O_R   0.905900 0.523560 0.631310 -0.593334
O4    O     O_R   0.074570 0.481370 0.599560 -0.602301
C2    C     C_R   0.989167 0.505688 0.652239 0.788911
Cu1   Cu    Cu3+1 0.900140 0.524980 0.518800 0.970369
Cu2   Cu    Cu3+1 0.099860 0.475020 0.481200 0.965093
O5    O     O_R   0.805850 0.359820 0.508110 -0.598274
O6    O     O_R   0.974510 0.317630 0.476360 -0.527340
O7    O     O_R   0.925430 0.518630 0.400440 -0.590739
O8    O     O_R   0.094100 0.476440 0.368690 -0.603909
C3    C     C_R   0.856306 0.285149 0.487479 0.849010
C4    C     C_R   0.011699 0.495657 0.347833 0.788175
C5    C     C_R   0.989375 0.516582 0.738147 -0.024649
C6    C     C_R   0.086389 0.510591 0.762124 -0.198995
C7    C     C_R   0.088242 0.522460 0.843611 -0.139374
C8    C     C_R   0.992149 0.538952 0.902206 0.188181
C9    C     C_R   0.897305 0.548721 0.878664 -0.159345
C10   C     C_R   0.895490 0.537114 0.796939 -0.178119
C11   C     C_R   0.925792 0.499695 0.156918 -0.140160
C12   C     C_R   0.922822 0.504086 0.238147 -0.198859
C13   C     C_R   0.109888 0.470884 0.203691 -0.178437
C14   C     C_R   0.112850 0.466651 0.122264 -0.160113
C15   C     C_R   0.022266 0.483197 0.098691 0.188469
C16   C     C_2   0.987633 0.544167 0.988188 -0.224843
C17   C     C_2   0.029848 0.481524 0.012817 -0.221846
C18   C     C_R   0.015348 0.490672 0.262175 -0.021092
H1    H     H_    0.161353 0.497359 0.718095 0.160976
H2    H     H_    0.847687 0.517437 0.281938 0.149756
H3    H     H_    0.181745 0.459256 0.220753 0.152791
H4    H     H_    0.073140 0.428680 0.969095 0.152004
H5    H     H_    0.823288 0.562666 0.923438 0.128370
H6    H     H_    0.851735 0.507801 0.140008 0.126872
H7    H     H_    0.820448 0.543534 0.779896 0.153515
H8    H     H_    0.944055 0.596884 0.031729 0.150403
H9    H     H_    0.165201 0.519332 0.860480 0.128359
H10   H     H_    0.186959 0.452423 0.077762 0.128427
C19   C     C_R   0.730995 0.964196 0.397258 0.158965
H11   H     H_    0.545916 0.770822 0.343280 0.178751
C20   C     C_R   0.775743 0.160817 0.471760 -0.201893
C21   C     C_R   0.180622 0.924145 0.563116 0.364670
C22   C     C_R   0.262819 0.038253 0.581912 -0.172081
C23   C     C_R   0.387636 0.071060 0.554475 -0.260774
C24   C     C_R   0.434833 0.990891 0.503681 0.117498
C25   C     C_R   0.350407 0.877264 0.477876 0.047085
C26   C     C_R   0.562970 0.020155 0.476794 0.051334
C27   C     C_R   0.604162 0.937947 0.421799 0.074408
C28   C     C_R   0.517956 0.832187 0.389680 -0.196986
C29   C     C_R   0.393706 0.803819 0.415575 -0.180005
C30   C     C_R   0.651253 0.129051 0.502942 -0.305641
C31   C     C_R   0.816966 0.077062 0.420618 0.306548
C32   C     C_R   0.224410 0.840424 0.513723 -0.235923
H12   H     H_    0.625751 0.193179 0.546748 0.176363
H13   H     H_    0.443561 0.161058 0.572691 0.152799
H14   H     H_    0.229594 0.102478 0.619299 0.181166
H15   H     H_    0.332153 0.724135 0.384606 0.170214
C33   C     C_R   0.639934 0.673568 0.630947 -0.280044
H16   H     H_    0.815005 0.691879 0.646628 0.168367
H17   H     H_    0.437337 0.708374 0.657201 0.158754
H18   H     H_    0.635222 0.740847 0.682099 0.154105
N1    N     N_R   0.749710 0.562810 0.547300 -0.189844
C34   C     C_R   0.252581 0.354157 0.388051 0.136586
C35   C     C_R   0.351966 0.322466 0.363651 -0.223304
C36   C     C_R   0.450729 0.377346 0.405713 -0.206742
C37   C     C_R   0.451574 0.465563 0.473052 -0.002099
C38   C     C_R   0.347025 0.494764 0.496040 0.284423
C39   C     C_R   0.551651 0.525743 0.518375 -0.039163
C40   C     C_R   0.544842 0.613636 0.585116 0.151983
C41   C     C_R   0.442976 0.641127 0.606183 -0.281202
C42   C     C_R   0.346470 0.582996 0.562923 -0.186061
C43   C     C_R   0.658871 0.502994 0.500955 0.007468
C44   C     C_R   0.741791 0.646318 0.611133 0.138286
N2    N     N_R   0.249640 0.437820 0.453210 -0.219941
H19   H     H_    0.671962 0.437997 0.451143 0.126183
H20   H     H_    0.177325 0.312078 0.354436 0.184719
H21   H     H_    0.525181 0.349410 0.384086 0.140122
H22   H     H_    0.352610 0.255288 0.311713 0.162803
H23   H     H_    0.273005 0.610585 0.584466 0.204667
N3    N     N_R   0.944922 0.106033 0.391021 0.110281
O9    O     O_R   0.013919 0.105576 0.436272 -0.334214
O10   O     O_R   0.989726 0.121602 0.316266 -0.417840
N4    N     N_2   0.771321 0.876911 0.348739 -0.447519
H24   H     H_    0.850181 0.905937 0.307105 0.301633
C45   C     C_3   0.773149 0.799116 0.394155 -0.607467
H25   H     H_    0.842510 0.847357 0.434956 0.286348
H26   H     H_    0.797451 0.729626 0.351661 0.215299
H27   H     H_    0.681507 0.757679 0.430729 0.229802
N5    N     N_R   0.053114 0.895792 0.594761 0.121494
O11   O     O_R   0.018388 0.920976 0.672233 -0.389250
O12   O     O_R   0.978153 0.872000 0.545648 -0.354827

loop_
_geom_bond_atom_site_label_1
_geom_bond_atom_site_label_2
_geom_bond_distance
_ccdc_geom_bond_type
C37   C39   1.442364 A    
C9    C10   1.390411 A    
C8    C16   1.462105 S    
C3    C20   1.475073 S    
Cu1   Cu2   2.697628 S    
C24   C25   1.418319 A    
Cu1   O7    1.979379 S    
C16   C17   1.339450 D    
O3    Cu1   1.975455 S    
C21   C32   1.419323 A    
O4    C2    1.299751 A    
O7    C4    1.299784 A    
C34   H20   1.079295 S    
C5    C6    1.402253 A    
C8    C9    1.398570 A    
O5    C3    1.305393 A    
C2    C5    1.459631 S    
C10   H7    1.083098 S    
C26   C27   1.420403 A    
C6    C7    1.385872 A    
C14   H10   1.083609 S    
C13   C14   1.390002 A    
N1    C44   1.354130 A    
C41   C42   1.386098 A    
N5    O12   1.300810 A    
H16   C44   1.081473 S    
C20   C31   1.411901 A    
C39   C43   1.421085 A    
C33   H18   1.083846 S    
C24   C26   1.426045 A    
C37   C38   1.433174 A    
C12   C18   1.402103 A    
C11   C12   1.386098 A    
C43   H19   1.076905 S    
C42   H23   1.064127 S    
C45   H26   1.110745 S    
C5    C10   1.403753 A    
C36   H21   1.078070 S    
C14   C15   1.398662 A    
O3    C2    1.299400 A    
C9    H5    1.083594 S    
C39   C40   1.416702 A    
C26   C30   1.400141 A    
C11   H6    1.082024 S    
C6    H1    1.083088 S    
C45   H25   1.110666 S    
O1    C1    1.301314 A    
C13   H3    1.083132 S    
C22   C23   1.385250 A    
Cu1   N1    2.033209 S    
N4    H24   1.030053 S    
H17   C41   1.084573 S    
Cu2   O8    1.975455 S    
Cu2   N2    2.021263 S    
C7    C8    1.403207 A    
N1    C43   1.369567 A    
C38   N2    1.389408 A    
C7    H9    1.082311 S    
C13   C18   1.403576 A    
N3    O10   1.300760 A    
C27   C28   1.397359 A    
N4    C45   1.447402 S    
O8    C4    1.299344 A    
C36   C37   1.409290 A    
C21   C22   1.390153 A    
C23   C24   1.415224 A    
C45   H27   1.111570 S    
C16   H8    1.085676 S    
Cu1   O5    1.927298 S    
C11   C15   1.403702 A    
C12   H2    1.083407 S    
C17   H4    1.085981 S    
O1    Cu1   1.943803 S    
C29   H15   1.080609 S    
C35   H22   1.082544 S    
O2    Cu2   1.927297 S    
N3    O9    1.300741 A    
O6    C3    1.299662 A    
O4    Cu2   1.979379 S    
C33   C40   1.401995 A    
C34   N2    1.357478 A    
C15   C17   1.462427 S    
C25   C29   1.409358 A    
C30   H12   1.074634 S    
C35   C36   1.394250 A    
C21   N5    1.432026 S    
O2    C1    1.307639 A    
C19   N4    1.427797 S    
C1    C32   1.485075 S    
C23   H13   1.075727 S    
C25   C32   1.421976 A    
C19   C31   1.409349 A    
C38   C42   1.407061 A    
C40   C41   1.389712 A    
C34   C35   1.392592 A    
C22   H14   1.083616 S    
Cu2   O6    1.943805 S    
C28   C29   1.382466 A    
C4    C18   1.459348 S    
N5    O11   1.300954 A    
C31   N3    1.430432 S    
C20   C30   1.393184 A    
H11   C28   1.083099 S    
C33   C44   1.388749 A    
C19   C27   1.413642 A    
