data_mof_unit_33203.cif
_audit_creation_date              2012-12-11T15:57:03-0500
_audit_creation_method            fapswitch 2.2
_symmetry_space_group_name_H-M    P1
_symmetry_Int_Tables_number       1
_space_group_crystal_system       triclinic
_cell_length_a                    17.383437
_cell_length_b                    24.329049
_cell_length_c                    14.916681
_cell_angle_alpha                 90.000105
_cell_angle_beta                  125.897274
_cell_angle_gamma                 90.000916
_cell_volume                      5110.40458712

loop_
_atom_site_label
_atom_site_type_symbol
_atom_type_description
_atom_site_fract_x
_atom_site_fract_y
_atom_site_fract_z
_atom_type_partial_charge
C1    C     C_R   0.308756 0.124553 0.907407 -0.127651
C2    C     C_R   0.549804 0.154025 0.908255 0.069096
C3    C     C_R   0.812634 0.362252 0.000829 -0.014013
C4    C     C_R   0.567047 0.000000 0.369187 -0.008908
C5    C     C_R   0.067083 0.500005 0.369203 -0.008937
C6    C     C_R   0.190791 0.999559 0.637366 0.031015
C7    C     C_R   0.690721 0.500431 0.637429 0.031048
C8    C     C_R   0.523743 0.045890 0.756426 -0.139194
C9    C     C_R   0.523741 0.954107 0.756427 -0.139031
C10   C     C_R   0.023724 0.545899 0.756410 -0.139021
C11   C     C_R   0.023734 0.454114 0.756408 -0.139211
C12   C     C_R   0.769346 0.954003 0.246967 -0.141599
C13   C     C_R   0.049805 0.345977 0.908250 0.069099
C14   C     C_R   0.769102 0.046437 0.247684 -0.128643
C15   C     C_R   0.269098 0.453571 0.247634 -0.128759
C16   C     C_R   0.269335 0.546001 0.246922 -0.141435
C17   C     C_1   0.470982 0.827254 0.800983 -0.044406
C18   C     C_1   0.470984 0.172712 0.800916 -0.044375
C19   C     C_1   0.970984 0.327290 0.800909 -0.044371
C20   C     C_1   0.970951 0.672744 0.800994 -0.044380
C21   C     C_R   0.049792 0.654037 0.908301 0.068881
C22   C     C_R   0.555502 0.999998 0.731744 -0.024427
C23   C     C_R   0.055484 0.500011 0.731722 -0.024418
C24   C     C_R   0.824325 0.000415 0.271533 0.022856
C25   C     C_R   0.324311 0.499597 0.271430 0.022767
C26   C     C_R   0.608380 0.186915 0.999848 -0.061072
C27   C     C_R   0.608406 0.813096 0.999938 -0.061261
C28   C     C_R   0.108394 0.686906 0.999934 -0.061242
C29   C     C_R   0.308872 0.875283 0.907485 -0.127215
C30   C     C_R   0.108383 0.313088 0.999841 -0.061077
C31   C     C_3   0.033569 0.949056 0.486671 -0.166703
C32   C     C_3   0.020772 0.035861 0.517096 -0.154675
C33   C     C_3   0.520822 0.463830 0.516728 -0.154944
C34   C     C_3   0.533285 0.550837 0.487180 -0.166629
C35   C     C_3   0.954915 0.985734 0.471574 -0.136144
C36   C     C_3   0.454757 0.513867 0.471653 -0.135926
C37   C     C_3   0.925528 0.000648 0.355468 0.188862
C38   C     C_3   0.425500 0.499372 0.355430 0.188848
C39   C     C_3   0.003239 0.963899 0.369346 -0.160510
C40   C     C_R   0.808877 0.624722 0.907490 -0.127185
C41   C     C_3   0.990951 0.050952 0.400427 -0.166812
C42   C     C_3   0.491119 0.449157 0.399929 -0.166814
C43   C     C_3   0.503090 0.536414 0.369746 -0.160685
C44   C     C_3   0.071234 0.014324 0.416732 -0.147998
C45   C     C_3   0.571285 0.486081 0.416669 -0.147827
C46   C     C_R   0.402661 0.875364 0.093257 -0.141208
C47   C     C_R   0.402569 0.124569 0.093197 -0.141107
C48   C     C_R   0.902568 0.375436 0.093200 -0.141113
C49   C     C_R   0.902667 0.624636 0.093262 -0.141227
C50   C     C_3   0.099008 0.999301 0.531892 0.190836
C51   C     C_R   0.808753 0.375448 0.907411 -0.127624
C52   C     C_3   0.598933 0.500685 0.531949 0.190835
C53   C     C_3   0.261085 0.818470 0.110684 -0.408928
C54   C     C_3   0.260828 0.181413 0.110479 -0.408988
C55   C     C_3   0.760871 0.318574 0.110517 -0.408997
C56   C     C_3   0.761179 0.681569 0.110747 -0.408957
C57   C     C_3   0.698569 0.272146 0.106272 -0.395082
C58   C     C_3   0.698769 0.727932 0.106463 -0.395130
C59   C     C_3   0.198691 0.772095 0.106408 -0.395112
C60   C     C_3   0.198528 0.227843 0.106232 -0.395073
C61   C     C_3   0.792269 0.263846 0.990640 -0.395564
C62   C     C_R   0.644349 0.153407 0.091389 -0.180150
C63   C     C_3   0.792280 0.736278 0.990594 -0.396000
C64   C     C_3   0.292329 0.763722 0.990691 -0.395978
C65   C     C_3   0.292306 0.236162 0.990691 -0.395557
C66   C     C_3   0.147630 0.825523 0.904637 -0.419312
C67   C     C_3   0.147500 0.174446 0.904407 -0.420414
C68   C     C_3   0.647490 0.325574 0.904455 -0.420382
C69   C     C_3   0.647627 0.674449 0.904715 -0.419300
C70   C     C_3   0.254037 0.818967 0.001803 0.407282
C71   C     C_3   0.253890 0.180930 0.001666 0.407815
C72   C     C_3   0.753888 0.319076 0.001676 0.407806
C73   C     C_R   0.644402 0.846622 0.091452 -0.179752
C74   C     C_3   0.754050 0.681037 0.001817 0.407306
C75   C     C_3   0.657675 0.236709 0.000532 0.401887
C76   C     C_3   0.657755 0.763337 0.000655 0.402415
C77   C     C_3   0.157743 0.736665 0.000646 0.402377
C78   C     C_3   0.157677 0.263294 0.000522 0.401877
C79   C     C_3   0.740579 0.215698 0.998260 -0.402232
C80   C     C_3   0.740583 0.784396 0.998271 -0.402463
C81   C     C_3   0.240614 0.715605 0.998347 -0.402440
C82   C     C_3   0.240612 0.284309 0.998308 -0.402230
C83   C     C_3   0.592656 0.274443 0.898254 -0.392872
C84   C     C_R   0.144397 0.653381 0.091449 -0.179776
C85   C     C_3   0.592748 0.725564 0.898445 -0.393753
C86   C     C_3   0.092753 0.774412 0.898391 -0.393729
C87   C     C_3   0.092670 0.225575 0.898214 -0.392858
C88   C     C_3   0.621762 0.051549 0.644935 -0.405165
C89   C     C_3   0.621745 0.948443 0.644922 -0.405039
C90   C     C_3   0.121634 0.551609 0.644838 -0.405046
C91   C     C_3   0.121875 0.448504 0.645020 -0.405134
C92   C     C_R   0.549769 0.045632 0.305337 -0.147562
C93   C     C_R   0.549774 0.954369 0.305339 -0.148427
C94   C     C_R   0.049797 0.545633 0.305346 -0.148442
C95   C     C_R   0.144350 0.346594 0.091385 -0.180158
C96   C     C_R   0.049786 0.454372 0.305347 -0.147566
C97   C     C_3   0.624273 0.051661 0.543500 -0.403600
C98   C     C_3   0.624246 0.948329 0.543479 -0.403888
C99   C     C_3   0.124120 0.551731 0.543388 -0.403937
C100  C     C_3   0.124440 0.448400 0.543618 -0.403579
C101  C     C_3   0.465365 0.000002 0.532654 -0.388398
C102  C     C_3   0.965367 0.499932 0.532635 -0.388440
C103  C     C_3   0.567424 0.999998 0.641836 0.405262
C104  C     C_3   0.067419 0.500015 0.641825 0.405266
C105  C     C_3   0.572367 0.999999 0.471075 0.404776
C106  C     C_R   0.549802 0.845964 0.908303 0.068910
C107  C     C_3   0.072392 0.500010 0.471085 0.404784
C108  C     C_3   0.468386 0.000007 0.432954 -0.401882
C109  C     C_3   0.968405 0.499904 0.432946 -0.401836
C110  C     C_R   0.239816 0.953749 0.697205 -0.141674
C111  C     C_R   0.239921 0.045738 0.696142 -0.152580
C112  C     C_R   0.739887 0.454255 0.696178 -0.152489
C113  C     C_R   0.739774 0.546246 0.697236 -0.141803
C114  C     C_R   0.312636 0.137753 0.000822 -0.014016
C115  C     C_R   0.312783 0.862111 0.000917 -0.013632
C116  C     C_R   0.812793 0.637895 0.000926 -0.013635
H1    H     H_    0.252404 0.133019 0.821966 0.090173
H2    H     H_    0.971744 0.092575 0.362806 0.102713
H3    H     H_    0.531181 0.911592 0.742739 0.103156
H4    H     H_    0.031163 0.588416 0.742735 0.103150
H5    H     H_    0.031170 0.411603 0.742692 0.103157
H6    H     H_    0.792763 0.911703 0.262447 0.099155
H7    H     H_    0.791773 0.088859 0.263350 0.093058
H8    H     H_    0.291787 0.411153 0.263317 0.093159
H9    H     H_    0.292750 0.588302 0.262408 0.099122
H10   H     H_    0.687188 0.165758 0.177184 0.097443
H11   H     H_    0.687378 0.834340 0.177290 0.097630
H12   H     H_    0.187379 0.665665 0.177287 0.097630
H13   H     H_    0.472058 0.407632 0.361867 0.102777
H14   H     H_    0.187196 0.334243 0.177179 0.097448
H15   H     H_    0.905727 0.974071 0.493010 0.109796
H16   H     H_    0.405472 0.525199 0.493131 0.109819
H17   H     H_    0.493031 0.565816 0.306776 0.106492
H18   H     H_    0.122072 0.025914 0.397837 0.107199
H19   H     H_    0.622208 0.474820 0.397717 0.107190
H20   H     H_    0.335376 0.810917 0.183312 0.147448
H21   H     H_    0.335113 0.188894 0.183181 0.147264
H22   H     H_    0.835163 0.311080 0.183193 0.147266
H23   H     H_    0.835482 0.689158 0.183325 0.147459
H24   H     H_    0.238406 0.858776 0.123197 0.151479
H25   H     H_    0.252624 0.866592 0.822143 0.089941
H26   H     H_    0.238007 0.141124 0.122862 0.151431
H27   H     H_    0.738080 0.358861 0.122949 0.151432
H28   H     H_    0.738566 0.641264 0.123360 0.151470
H29   H     H_    0.139616 0.789839 0.106250 0.153630
H30   H     H_    0.139406 0.210150 0.106041 0.153773
H31   H     H_    0.639470 0.289838 0.106125 0.153777
H32   H     H_    0.639727 0.710179 0.106360 0.153643
H33   H     H_    0.743391 0.247383 0.182848 0.143572
H34   H     H_    0.743542 0.752722 0.183008 0.143880
H35   H     H_    0.243457 0.747324 0.182979 0.143880
H36   H     H_    0.752630 0.633424 0.822153 0.089915
H37   H     H_    0.243338 0.252595 0.182826 0.143574
H38   H     H_    0.869796 0.259792 0.056966 0.153314
H39   H     H_    0.869824 0.740377 0.056810 0.153332
H40   H     H_    0.369862 0.759641 0.056970 0.153316
H41   H     H_    0.369828 0.240208 0.057048 0.153301
H42   H     H_    0.791544 0.191601 0.074542 0.158829
H43   H     H_    0.791560 0.808504 0.074532 0.158835
H44   H     H_    0.291571 0.691509 0.074633 0.158809
H45   H     H_    0.291567 0.308396 0.074610 0.158809
H46   H     H_    0.136807 0.830321 0.823956 0.145606
H47   H     H_    0.752399 0.366977 0.821974 0.090153
H48   H     H_    0.136766 0.169693 0.823766 0.145005
H49   H     H_    0.636728 0.330343 0.823800 0.144994
H50   H     H_    0.636748 0.669611 0.824008 0.145584
H51   H     H_    0.432570 0.867845 0.179046 0.090290
H52   H     H_    0.432444 0.132098 0.178974 0.090196
H53   H     H_    0.932444 0.367912 0.178979 0.090204
H54   H     H_    0.932579 0.632150 0.179054 0.090305
H55   H     H_    0.118145 0.862927 0.917199 0.160094
H56   H     H_    0.117918 0.137040 0.916819 0.159826
H57   H     H_    0.617934 0.362976 0.916916 0.159837
H58   H     H_    0.051796 0.907257 0.523487 0.102881
H59   H     H_    0.618184 0.637057 0.917374 0.160107
H60   H     H_    0.028503 0.786852 0.892864 0.155616
H61   H     H_    0.028398 0.213148 0.892652 0.155600
H62   H     H_    0.528400 0.286867 0.892728 0.155591
H63   H     H_    0.528515 0.713130 0.892962 0.155595
H64   H     H_    0.569911 0.252609 0.821078 0.167590
H65   H     H_    0.569961 0.747369 0.821226 0.167676
H66   H     H_    0.070002 0.752583 0.821206 0.167654
H67   H     H_    0.069956 0.247422 0.821062 0.167584
H68   H     H_    0.782275 0.262064 0.909787 0.157509
H69   H     H_    0.029459 0.065126 0.579585 0.106703
H70   H     H_    0.782149 0.738044 0.909663 0.157337
H71   H     H_    0.282272 0.761934 0.909804 0.157335
H72   H     H_    0.282347 0.237956 0.909859 0.157514
H73   H     H_    0.713938 0.187905 0.926279 0.150603
H74   H     H_    0.713868 0.812188 0.926271 0.150452
H75   H     H_    0.213938 0.687802 0.926372 0.150455
H76   H     H_    0.213999 0.312111 0.926348 0.150605
H77   H     H_    0.586720 0.090092 0.643129 0.147065
H78   H     H_    0.586696 0.909902 0.643115 0.147024
H79   H     H_    0.086511 0.590126 0.642982 0.147022
H80   H     H_    0.529592 0.434310 0.578906 0.106643
H81   H     H_    0.086898 0.409937 0.643246 0.147066
H82   H     H_    0.695356 0.051792 0.722375 0.153151
H83   H     H_    0.695342 0.948196 0.722357 0.153030
H84   H     H_    0.195233 0.551906 0.722267 0.153043
H85   H     H_    0.195457 0.448311 0.722483 0.153138
H86   H     H_    0.699125 0.052362 0.570763 0.152683
H87   H     H_    0.699095 0.947613 0.570733 0.152093
H88   H     H_    0.198963 0.552527 0.570629 0.152080
H89   H     H_    0.199307 0.447785 0.570928 0.152680
H90   H     H_    0.589392 0.089987 0.496111 0.145950
H91   H     H_    0.551332 0.592542 0.524423 0.102900
H92   H     H_    0.589337 0.910009 0.496077 0.145976
H93   H     H_    0.089085 0.590014 0.495913 0.146001
H94   H     H_    0.089699 0.410038 0.496299 0.145936
H95   H     H_    0.425379 0.036864 0.528520 0.156553
H96   H     H_    0.425373 0.963139 0.528507 0.157184
H97   H     H_    0.925303 0.536775 0.528411 0.157186
H98   H     H_    0.925444 0.463050 0.528557 0.156537
H99   H     H_    0.563409 0.088068 0.331439 0.083940
H100  H     H_    0.563428 0.911934 0.331448 0.083885
H101  H     H_    0.063465 0.588069 0.331451 0.083902
H102  H     H_    0.993261 0.934753 0.306064 0.106519
H103  H     H_    0.063416 0.411936 0.331453 0.083929
H104  H     H_    0.430166 0.036910 0.381210 0.154629
H105  H     H_    0.430143 0.963113 0.381184 0.154849
H106  H     H_    0.930052 0.536749 0.381068 0.154848
H107  H     H_    0.930301 0.462955 0.381301 0.154615
H108  H     H_    0.226008 0.911696 0.668271 0.093427
H109  H     H_    0.225281 0.087652 0.666296 0.099370
H110  H     H_    0.725248 0.412342 0.666327 0.099309
H111  H     H_    0.725945 0.588296 0.668286 0.093492
H112  H     H_    0.531187 0.088403 0.742732 0.103158
N1    N     N_R   0.392450 0.103580 0.942190 -0.035084
N2    N     N_R   0.525490 0.971610 0.207550 -0.031581
N3    N     N_R   0.025490 0.528390 0.207550 -0.031582
N4    N     N_R   0.025490 0.471610 0.207550 -0.031689
N5    N     N_R   0.317450 0.971190 0.792000 -0.036588
N6    N     N_R   0.317450 0.028810 0.792000 -0.036186
N7    N     N_R   0.817450 0.471190 0.792000 -0.036182
N8    N     N_R   0.817450 0.528810 0.792000 -0.036573
N9    N     N_R   0.473900 0.028390 0.792280 -0.036278
N10   N     N_R   0.473900 0.971610 0.792280 -0.036340
N11   N     N_R   0.973900 0.528390 0.792280 -0.036345
N12   N     N_R   0.392450 0.896420 0.942190 -0.035355
N13   N     N_R   0.973900 0.471610 0.792280 -0.036282
N14   N     N_R   0.682310 0.971180 0.208170 -0.038162
N15   N     N_R   0.682310 0.028820 0.208170 -0.038365
N16   N     N_R   0.182310 0.471180 0.208170 -0.038372
N17   N     N_R   0.182310 0.528820 0.208170 -0.038178
N18   N     N_R   0.606470 0.103570 0.057210 -0.041790
N19   N     N_R   0.606470 0.896430 0.057210 -0.041464
N20   N     N_R   0.106470 0.603570 0.057210 -0.041464
N21   N     N_R   0.106470 0.396430 0.057210 -0.041783
N22   N     N_R   0.549740 0.896000 0.943240 -0.053827
N23   N     N_R   0.892450 0.603580 0.942190 -0.035346
N24   N     N_R   0.549740 0.104000 0.943240 -0.053783
N25   N     N_R   0.049740 0.396000 0.943240 -0.053780
N26   N     N_R   0.049740 0.604000 0.943240 -0.053825
N27   N     N_1   0.407303 0.812520 0.714708 -0.110312
N28   N     N_1   0.407305 0.187428 0.714626 -0.110290
N29   N     N_1   0.907304 0.312574 0.714619 -0.110280
N30   N     N_1   0.907255 0.687476 0.714730 -0.110303
N31   N     N_R   0.892450 0.396420 0.942190 -0.035089
N32   N     N_R   0.450490 0.896000 0.057360 -0.035559
N33   N     N_R   0.450490 0.104000 0.057360 -0.035607
N34   N     N_R   0.950490 0.396000 0.057360 -0.035608
N35   N     N_R   0.950490 0.604000 0.057360 -0.035558
N36   N     N_R   0.525490 0.028390 0.207550 -0.031692
Ni1   Ni    Ni4+2 0.433780 0.065390 0.868430 0.224558
Ni2   Ni    Ni4+2 0.433780 0.934610 0.868430 0.224729
Ni3   Ni    Ni4+2 0.933780 0.565390 0.868430 0.224741
Ni4   Ni    Ni4+2 0.933780 0.434610 0.868430 0.224569
Ni5   Ni    Ni4+2 0.565800 0.934190 0.131570 0.203172
Ni6   Ni    Ni4+2 0.565800 0.065810 0.131570 0.203715
Ni7   Ni    Ni4+2 0.065800 0.434190 0.131570 0.203709
Ni8   Ni    Ni4+2 0.065800 0.565810 0.131570 0.203173

loop_
_geom_bond_atom_site_label_1
_geom_bond_atom_site_label_2
_ccdc_geom_bond_type
C78   C87   S    
C84   H12   S    
C47   C114  A    
N21   N25   A    
C47   H52   S    
C67   H56   S    
C35   H15   S    
C99   H88   S    
C113  N8    A    
N16   Ni7   S    
C6    C110  A    
C6    C111  A    
N21   Ni7   S    
C39   H102  S    
C97   H86   S    
N31   N34   A    
C110  H108  S    
C61   H38   S    
C59   C77   S    
C79   H42   S    
C5    C94   A    
C53   C59   S    
C58   C76   S    
C54   C60   S    
C8    N9    A    
C47   N33   A    
C33   C52   S    
C66   H46   S    
C98   C105  S    
C83   H64   S    
C33   C42   S    
C5    C96   A    
C35   C37   S    
C61   C79   S    
C7    C52   S    
C38   C42   S    
C36   H16   S    
C87   H67   S    
C49   H54   S    
N19   Ni5   S    
N20   N26   A    
C9    C22   A    
C113  H111  S    
C54   H21   S    
C28   C84   A    
C13   N25   A    
C14   C24   A    
C53   H24   S    
C3    C48   A    
C16   C25   A    
C33   C36   S    
N16   N17   A    
C40   H36   S    
C92   H99   S    
N9    Ni1   S    
C11   C23   A    
C34   C52   S    
C88   H82   S    
N32   Ni5   S    
C43   H17   S    
C69   H50   S    
C81   H75   S    
N31   Ni4   S    
N1    Ni1   S    
N5    Ni2   S    
C60   H37   S    
C67   H48   S    
C102  H98   S    
C54   C71   S    
C33   H80   S    
C65   C71   S    
C61   H68   S    
C57   H33   S    
C95   H14   S    
C8    C22   A    
N7    N8    A    
C48   H53   S    
C51   H47   S    
C57   C75   S    
C32   C41   S    
C64   C70   S    
C41   H2    S    
C66   C70   S    
C16   H9    S    
C91   C104  S    
C29   N12   A    
C86   H60   S    
C55   C72   S    
C109  H107  S    
C110  N5    A    
C85   H63   S    
C97   C105  S    
C68   H49   S    
C100  H94   S    
C101  C108  S    
C96   N4    A    
C29   C115  A    
C65   H72   S    
C74   C116  S    
C10   N11   A    
C101  C103  S    
C81   H44   S    
N9    N10   A    
C89   C103  S    
C93   H100  S    
C44   H18   S    
C107  C109  S    
C11   N13   A    
C95   N21   A    
C11   H5    S    
C53   H20   S    
C60   H30   S    
C53   C70   S    
C70   C115  S    
C94   N3    A    
C26   C75   S    
C60   C78   S    
C91   C100  S    
C63   C80   S    
C56   C58   S    
C101  H96   S    
C46   N32   A    
C89   H83   S    
C105  C108  S    
N2    N36   A    
N26   Ni3   S    
C45   H19   S    
C56   C74   S    
C15   H8    S    
C90   H79   S    
C111  H109  S    
N14   Ni5   S    
N12   Ni2   S    
C66   H55   S    
N10   Ni2   S    
N17   Ni8   S    
C55   H27   S    
N22   Ni2   S    
C12   H6    S    
C65   H41   S    
C46   H51   S    
N5    N6    A    
C111  N6    A    
C62   H10   S    
C40   N23   A    
C3    C51   A    
N34   Ni7   S    
N6    Ni1   S    
N18   N24   A    
C45   C52   S    
C18   N28   T    
C16   N17   A    
C94   H101  S    
C101  H95   S    
C22   C103  S    
C14   N15   A    
C71   C114  S    
C91   H85   S    
C42   C45   S    
C56   H28   S    
C32   C35   S    
C19   N29   T    
C30   C95   A    
C28   C77   S    
C69   C85   S    
C2    N24   A    
C25   C38   S    
C87   H61   S    
C78   C82   S    
C102  H97   S    
C23   C104  S    
N20   Ni8   S    
C77   C81   S    
C58   H32   S    
C68   C72   S    
C63   H70   S    
C29   H25   S    
N3    Ni8   S    
C20   C21   S    
N14   N15   A    
N13   Ni4   S    
N11   Ni3   S    
C69   C74   S    
N11   N13   A    
C1    H1    S    
N12   N32   A    
C7    C113  A    
C102  C104  S    
C98   H87   S    
C43   C45   S    
C90   C104  S    
N33   Ni6   S    
C92   N36   A    
C32   H69   S    
C46   C115  A    
C61   C72   S    
N35   Ni8   S    
N2    Ni5   S    
C21   C28   A    
C77   C86   S    
N25   Ni4   S    
C12   N14   A    
C98   H92   S    
C55   C57   S    
C97   H90   S    
C41   C44   S    
C31   C35   S    
C1    C114  A    
C31   C50   S    
C27   C76   S    
C112  N7    A    
N8    Ni3   S    
N23   Ni3   S    
C90   C99   S    
C9    N10   A    
C88   C103  S    
N4    Ni7   S    
C91   H81   S    
C7    C112  A    
C5    C107  S    
N19   N22   A    
C44   C50   S    
N7    Ni4   S    
C56   H23   S    
C51   N31   A    
C15   N16   A    
C17   N27   T    
C100  C107  S    
C85   H65   S    
C14   H7    S    
C6    C50   S    
C83   H62   S    
C82   H76   S    
C68   C83   S    
C80   H74   S    
C88   H77   S    
C34   C43   S    
C76   C80   S    
C34   H91   S    
C2    C18   S    
N18   Ni6   S    
C2    C26   A    
C66   C86   S    
C100  H89   S    
C112  H110  S    
C39   C44   S    
C73   N19   A    
C82   H45   S    
C59   H35   S    
C10   C23   A    
C24   C37   S    
C96   H103  S    
C99   C107  S    
C4    C105  S    
C12   C24   A    
C67   C87   S    
C27   C106  A    
C89   C98   S    
C84   N20   A    
C68   H57   S    
C54   H26   S    
C106  N22   A    
C57   H31   S    
C3    C72   S    
C26   C62   A    
C88   C97   S    
C63   H39   S    
C38   C43   S    
C37   C39   S    
C73   H11   S    
C17   C106  S    
C36   C38   S    
C108  H105  S    
C75   C83   S    
C65   C82   S    
C40   C116  A    
C8    H112  S    
C93   N2    A    
C9    H3    S    
C89   H78   S    
C80   H43   S    
C48   N34   A    
C34   C36   S    
C31   C39   S    
C64   H40   S    
C32   C50   S    
C42   H13   S    
C67   C71   S    
C108  H104  S    
C37   C41   S    
C64   C81   S    
N15   Ni6   S    
C64   H71   S    
C62   N18   A    
C49   N35   A    
C55   H22   S    
C4    C93   A    
C30   C78   S    
C1    N1    A    
N24   Ni1   S    
C49   C116  A    
C90   H84   S    
C13   C30   A    
C63   C74   S    
C15   C25   A    
C79   H73   S    
N23   N35   A    
N3    N4    A    
C86   H66   S    
C13   C19   S    
C102  C109  S    
N1    N33   A    
C69   H59   S    
C27   C73   A    
C21   N26   A    
C75   C79   S    
C76   C85   S    
C31   H58   S    
C10   H4    S    
C109  H106  S    
C58   H34   S    
N36   Ni6   S    
C20   N30   T    
C4    C92   A    
C59   H29   S    
C99   H93   S    
