data_mof_unit_40192.cif
_audit_creation_date              2012-12-10T16:37:27-0500
_audit_creation_method            fapswitch 2.2
_symmetry_space_group_name_H-M    P1
_symmetry_Int_Tables_number       1
_space_group_crystal_system       triclinic
_cell_length_a                    16.947014
_cell_length_b                    16.80729
_cell_length_c                    16.635366
_cell_angle_alpha                 65.79745
_cell_angle_beta                  65.744301
_cell_angle_gamma                 65.822712
_cell_volume                      3770.9872209

loop_
_atom_site_label
_atom_site_type_symbol
_atom_type_description
_atom_site_fract_x
_atom_site_fract_y
_atom_site_fract_z
_atom_type_partial_charge
C1    C     C_R   0.402645 0.077080 0.647223 -0.211769
C2    C     C_R   0.401385 0.647554 0.077903 -0.210498
C3    C     C_R   0.963416 0.596186 0.332861 -0.229072
C4    C     C_R   0.077507 0.396685 0.652216 -0.228065
C5    C     C_R   0.975305 0.177846 0.431911 0.936854
C6    C     C_R   0.040938 0.820564 0.560895 0.926094
C7    C     C_R   0.177272 0.431185 0.976505 0.951794
C8    C     C_R   0.822703 0.568646 0.023599 0.925486
C9    C     C_R   0.440344 0.957038 0.179369 0.920542
C10   C     C_R   0.560274 0.041854 0.820522 0.914345
C11   C     C_R   0.561002 0.820590 0.040469 0.919920
C12   C     C_R   0.601097 0.916214 0.353727 -0.214334
C13   C     C_R   0.439165 0.179377 0.959289 0.912676
C14   C     C_R   0.041111 0.560877 0.820021 0.935868
C15   C     C_R   0.959208 0.439593 0.179764 0.934557
C16   C     C_R   0.822669 0.023430 0.569072 0.965903
C17   C     C_R   0.178046 0.974893 0.431430 0.927728
C18   C     C_R   0.447150 0.086644 0.695368 -0.165943
C19   C     C_R   0.555862 0.908630 0.304556 -0.160038
C20   C     C_R   0.069896 0.711378 0.440793 -0.160392
C21   C     C_R   0.054573 0.262392 0.495210 -0.176983
C22   C     C_R   0.733269 0.510028 0.943937 -0.165519
C23   C     C_R   0.047623 0.671265 0.397985 -0.239299
C24   C     C_R   0.266525 0.489149 0.056899 -0.163402
C25   C     C_R   0.269899 0.049046 0.492124 -0.171720
C26   C     C_R   0.734815 0.941544 0.511990 -0.168883
C27   C     C_R   0.553362 0.303313 0.914985 -0.166272
C28   C     C_R   0.446586 0.696719 0.084852 -0.164964
C29   C     C_R   0.937558 0.554042 0.294729 -0.161027
C30   C     C_R   0.084111 0.442895 0.700913 -0.168811
C31   C     C_R   0.546478 0.008018 0.549455 0.028576
C32   C     C_R   0.457754 0.983707 0.452752 0.029408
C33   C     C_R   0.052383 0.536568 0.528880 0.031398
C34   C     C_R   0.073366 0.303661 0.539292 -0.226115
C35   C     C_R   0.013525 0.450801 0.440682 0.031126
C36   C     C_R   0.544654 0.548720 0.010736 0.031501
C37   C     C_R   0.455105 0.450891 0.989731 0.030120
C38   C     C_R   0.597875 0.962923 0.479896 0.046439
C39   C     C_R   0.406670 0.028422 0.522556 0.050101
C40   C     C_R   0.059528 0.442820 0.566437 0.048032
C41   C     C_R   0.004020 0.545079 0.404642 0.043536
C42   C     C_R   0.448896 0.572164 0.041664 0.043457
C43   C     C_R   0.550864 0.427513 0.958748 0.043187
C44   C     C_R   0.553440 0.953224 0.429138 0.042597
C45   C     C_R   0.689921 0.464528 0.929492 -0.217109
C46   C     C_R   0.450854 0.038677 0.572796 0.043451
C47   C     C_R   0.404094 0.521093 0.033519 0.044877
C48   C     C_R   0.595644 0.478471 0.967020 0.046233
C49   C     C_R   0.048499 0.398598 0.516893 0.051383
C50   C     C_R   0.032996 0.585405 0.443496 0.048144
C51   C     C_R   0.541646 0.059115 0.671221 0.048496
C52   C     C_R   0.461143 0.935663 0.329412 0.046086
C53   C     C_R   0.067032 0.673013 0.534891 0.031839
C54   C     C_R   0.005324 0.313044 0.430285 0.028070
C55   C     C_R   0.685048 0.570483 0.998289 0.022644
C56   C     C_R   0.309828 0.534876 0.071176 -0.211028
C57   C     C_R   0.314757 0.428716 0.002487 0.009126
C58   C     C_R   0.317446 0.995749 0.431007 0.013851
C59   C     C_R   0.686071 0.996802 0.571726 0.008628
C60   C     C_R   0.458663 0.327639 0.942415 0.048021
C61   C     C_R   0.541340 0.672296 0.057474 0.032657
C62   C     C_R   0.954602 0.458692 0.323971 0.026128
C63   C     C_R   0.072072 0.537523 0.666939 0.027838
C64   C     C_R   0.588950 0.066801 0.719981 -0.227039
C65   C     C_R   0.412683 0.930030 0.280138 -0.224563
C66   C     C_R   0.069447 0.720865 0.587565 -0.186114
C67   C     C_R   0.312703 0.064898 0.536906 -0.212696
C68   C     C_R   0.969970 0.273212 0.395775 -0.200205
C69   C     C_R   0.727413 0.605850 0.029963 -0.198511
C70   C     C_R   0.272340 0.393152 0.971004 -0.171869
C71   C     C_R   0.274105 0.966361 0.394427 -0.171605
C72   C     C_R   0.727837 0.029209 0.607049 -0.179520
C73   C     C_R   0.410421 0.279071 0.935808 -0.225072
C74   C     C_R   0.589876 0.720919 0.063729 -0.177256
C75   C     C_R   0.938602 0.411815 0.279740 -0.172690
C76   C     C_R   0.070446 0.588620 0.718534 -0.183154
C77   C     C_R   0.676258 0.071802 0.676440 0.122949
C78   C     C_R   0.692031 0.925918 0.466403 -0.212693
C79   C     C_R   0.325053 0.925230 0.323890 0.125247
C80   C     C_R   0.085046 0.673617 0.673310 0.112069
C81   C     C_R   0.928424 0.325968 0.326374 0.104855
C82   C     C_R   0.676652 0.676595 0.070321 0.118753
C83   C     C_R   0.323330 0.322801 0.930023 0.124824
C84   C     C_R   0.591216 0.022354 0.596517 0.080980
C85   C     C_R   0.412374 0.970295 0.405451 0.078407
C86   C     C_R   0.064597 0.582136 0.576701 0.069117
C87   C     C_R   0.989844 0.407838 0.399254 0.071931
C88   C     C_R   0.590093 0.596290 0.023285 0.076482
C89   C     C_R   0.598458 0.352277 0.922296 -0.212780
C90   C     C_R   0.409737 0.403286 0.977127 0.079864
C91   C     C_3   0.756318 0.098050 0.755447 -0.648859
C92   C     C_3   0.243295 0.902973 0.243642 -0.659406
C93   C     C_3   0.203186 0.724558 0.667692 -0.732136
C94   C     C_3   0.889834 0.252191 0.250615 -0.645646
C95   C     C_3   0.754528 0.755155 0.099276 -0.658631
C96   C     C_3   0.242642 0.244202 0.904672 -0.658173
H1    H     H_    0.329928 0.099055 0.671655 0.131547
H2    H     H_    0.328624 0.671747 0.100023 0.133600
H3    H     H_    0.947817 0.669613 0.307681 0.135004
H4    H     H_    0.083731 0.325045 0.685181 0.132588
H5    H     H_    0.655555 0.194431 0.695739 0.205188
H6    H     H_    0.715416 0.123490 0.816634 0.202120
H7    H     H_    0.778483 0.022266 0.778636 0.249495
H8    H     H_    0.816915 0.122978 0.722166 0.229344
H9    H     H_    0.344223 0.804445 0.301963 0.207905
H10   H     H_    0.182174 0.878980 0.276575 0.215840
H11   H     H_    0.221951 0.978763 0.221491 0.252975
H12   H     H_    0.673878 0.894383 0.329322 0.133074
H13   H     H_    0.283355 0.878391 0.181831 0.204710
H14   H     H_    0.066422 0.760339 0.745373 0.256520
H15   H     H_    0.222952 0.744209 0.711243 0.231896
H16   H     H_    0.202717 0.779688 0.601626 0.236857
H17   H     H_    0.254179 0.660591 0.653793 0.239405
H18   H     H_    0.816505 0.278377 0.377601 0.221457
H19   H     H_    0.866449 0.190123 0.284864 0.216536
H20   H     H_    0.858177 0.295743 0.194254 0.234291
H21   H     H_    0.964583 0.230431 0.221233 0.246795
H22   H     H_    0.726798 0.631239 0.181476 0.213807
H23   H     H_    0.046941 0.706224 0.327236 0.134188
H24   H     H_    0.713803 0.812454 0.129711 0.217465
H25   H     H_    0.817515 0.722169 0.120463 0.203908
H26   H     H_    0.773565 0.782029 0.022839 0.253774
H27   H     H_    0.344199 0.302292 0.806730 0.205079
H28   H     H_    0.282811 0.183648 0.878879 0.204640
H29   H     H_    0.181841 0.277267 0.879994 0.216245
H30   H     H_    0.220801 0.221417 0.981298 0.252294
H31   H     H_    0.406786 0.118943 0.749771 0.147170
H32   H     H_    0.595765 0.878219 0.248793 0.152089
H33   H     H_    0.091164 0.771649 0.397507 0.170058
H34   H     H_    0.110388 0.259287 0.588787 0.130219
H35   H     H_    0.080182 0.190132 0.514351 0.166381
H36   H     H_    0.804881 0.498314 0.909479 0.177654
H37   H     H_    0.194922 0.500704 0.091430 0.176731
H38   H     H_    0.199095 0.081556 0.505151 0.159648
H39   H     H_    0.806400 0.907646 0.500797 0.176083
H40   H     H_    0.593600 0.248443 0.883839 0.149750
H41   H     H_    0.406370 0.751743 0.115786 0.149995
H42   H     H_    0.902123 0.597333 0.243497 0.155763
H43   H     H_    0.102652 0.401944 0.763613 0.169101
H44   H     H_    0.732421 0.419653 0.887018 0.138220
H45   H     H_    0.267352 0.579778 0.113642 0.137518
H46   H     H_    0.269732 0.107567 0.581520 0.129557
H47   H     H_    0.734702 0.883006 0.421919 0.136455
H48   H     H_    0.671208 0.328047 0.900217 0.135149
N1    N     N_2   0.704603 0.133417 0.690605 -0.297820
N2    N     N_2   0.295627 0.865406 0.308268 -0.299775
N3    N     N_2   0.114739 0.710437 0.715761 -0.278163
N4    N     N_2   0.861840 0.301922 0.316088 -0.302557
N5    N     N_2   0.703523 0.690464 0.133720 -0.304076
N6    N     N_2   0.295019 0.308013 0.868233 -0.298156
O1    O     O_R   0.982940 0.138950 0.510160 -0.648657
O2    O     O_R   0.982940 0.510160 0.138950 -0.651857
O3    O     O_R   0.861050 0.017060 0.489840 -0.645805
O4    O     O_R   0.138950 0.982940 0.510160 -0.657091
O5    O     O_R   0.867700 0.025880 0.612340 -0.606448
O6    O     O_R   0.132300 0.974120 0.387660 -0.616957
O7    O     O_R   0.025880 0.612340 0.867700 -0.611026
O8    O     O_R   0.974120 0.387660 0.132300 -0.616626
O9    O     O_R   0.612340 0.867700 0.025880 -0.616322
O10   O     O_R   0.387660 0.132300 0.974120 -0.617984
O11   O     O_R   0.387660 0.974120 0.132300 -0.618089
O12   O     O_R   0.017060 0.861050 0.489840 -0.649102
O13   O     O_R   0.612340 0.025880 0.867700 -0.618468
O14   O     O_R   0.132300 0.387660 0.974120 -0.616611
O15   O     O_R   0.867700 0.612340 0.025880 -0.623552
O16   O     O_R   0.974120 0.132300 0.387660 -0.619530
O17   O     O_R   0.025880 0.867700 0.612340 -0.630208
O18   O     O_R   0.138950 0.510160 0.982940 -0.639266
O19   O     O_R   0.861050 0.489840 0.017060 -0.642157
O20   O     O_R   0.510160 0.982940 0.138950 -0.623854
O21   O     O_R   0.489840 0.017060 0.861050 -0.624926
O22   O     O_R   0.489840 0.861050 0.017060 -0.633114
O23   O     O_R   0.510160 0.138950 0.982940 -0.626951
O24   O     O_R   0.017060 0.489840 0.861050 -0.650486
Zn1   Zn    Zn3+2 0.004880 0.004880 0.583590 0.905479
Zn2   Zn    Zn3+2 0.995120 0.995120 0.416410 0.897115
Zn3   Zn    Zn3+2 0.004880 0.583590 0.004880 0.914183
Zn4   Zn    Zn3+2 0.995120 0.416410 0.995120 0.898994
Zn5   Zn    Zn3+2 0.583590 0.004880 0.004880 0.911535
Zn6   Zn    Zn3+2 0.416410 0.995120 0.995120 0.907900

loop_
_geom_bond_atom_site_label_1
_geom_bond_atom_site_label_2
_ccdc_geom_bond_type
C24   H37   S    
C15   C75   S    
C7    O18   A    
C10   O13   A    
C65   C79   A    
O15   Zn3   S    
C64   C77   A    
C19   H32   S    
C36   C42   A    
C16   C72   S    
C20   H33   S    
C36   C48   A    
C7    C70   S    
C71   C79   A    
C11   O9    A    
O21   Zn6   S    
C36   C88   A    
C2    H2    S    
C13   O23   A    
C29   H42   S    
O3    Zn2   S    
H5    N1    S    
C8    C69   S    
C26   C78   A    
O4    Zn1   S    
C27   H40   S    
C52   C85   A    
C54   C68   A    
C27   C60   A    
C23   H23   S    
C54   C87   A    
C94   H21   S    
C92   H13   S    
O12   Zn2   S    
C63   C76   A    
O23   Zn5   S    
O18   Zn3   S    
C60   C73   A    
C55   C88   A    
C32   C39   A    
O2    Zn3   S    
C3    C29   A    
O10   Zn6   S    
C26   H39   S    
C29   C62   A    
C35   C87   A    
C19   C52   A    
C80   N3    S    
C21   H35   S    
C4    C40   A    
C24   C57   A    
C31   C46   A    
C25   C67   A    
C35   C49   A    
C27   C89   A    
C53   C86   A    
C95   N5    S    
C57   C70   A    
C37   C47   A    
C43   C48   A    
C91   H8    S    
C13   O10   A    
C59   C72   A    
C83   N6    S    
C28   C61   A    
O22   Zn6   S    
H27   N6    S    
C11   O22   A    
H9    N2    S    
C30   C63   A    
C9    O20   A    
C74   C82   A    
C5    C68   S    
C35   C41   A    
C17   O4    A    
C15   O2    A    
C18   C51   A    
C79   N2    S    
C94   N4    S    
C33   C40   A    
O1    Zn1   S    
C57   C90   A    
C96   H28   S    
C14   O7    A    
C92   N2    S    
C6    O12   A    
C59   C84   A    
C15   O8    A    
C1    H1    S    
C12   H12   S    
C94   H20   S    
C75   C81   A    
C23   C50   A    
C93   H17   S    
C21   C34   A    
C38   C78   A    
C10   O21   A    
C45   H44   S    
C31   C84   A    
C14   C76   S    
C41   C50   A    
C37   C43   A    
H22   N5    S    
C33   C86   A    
C38   C44   A    
C72   C77   A    
C25   H38   S    
C61   C88   A    
C18   H31   S    
C92   H11   S    
C20   C23   A    
C81   N4    S    
C96   N6    S    
C16   O5    A    
C1    C18   A    
C96   H30   S    
O7    Zn3   S    
C5    O16   A    
O11   Zn6   S    
C9    O11   A    
C70   C83   A    
C34   H34   S    
C55   C69   A    
C93   H15   S    
C39   C46   A    
C56   H45   S    
C37   C90   A    
C95   H26   S    
C92   H10   S    
C13   C73   S    
C17   C71   S    
C4    H4    S    
C63   C86   A    
O13   Zn5   S    
C61   C74   A    
C62   C75   A    
C25   C58   A    
C68   C81   A    
C91   H6    S    
H14   N3    S    
C58   C85   A    
C77   N1    S    
O19   Zn4   S    
C91   N1    S    
O14   Zn4   S    
C8    O19   A    
O17   Zn1   S    
C26   C59   A    
C45   C48   A    
O5    Zn1   S    
O24   Zn4   S    
C6    O17   A    
C3    C41   A    
C34   C49   A    
C30   H43   S    
C22   H36   S    
C39   C67   A    
C10   C64   S    
C51   C64   A    
C76   C80   A    
C91   H7    S    
C20   C53   A    
C11   C74   S    
O6    Zn2   S    
C94   H19   S    
C22   C55   A    
C60   C90   A    
C95   H24   S    
C24   C56   A    
C89   H48   S    
C66   C80   A    
C62   C87   A    
O16   Zn2   S    
C5    O1    A    
C31   C38   A    
O20   Zn5   S    
C33   C50   A    
H18   N4    S    
C14   O24   A    
C53   C66   A    
C78   H47   S    
C17   O6    A    
C69   C82   A    
C95   H25   S    
C21   C54   A    
C2    C42   A    
C32   C85   A    
C12   C19   A    
C96   H29   S    
C93   N3    S    
C42   C47   A    
C43   C89   A    
O8    Zn4   S    
C1    C46   A    
C9    C65   S    
C82   N5    S    
C8    O15   A    
C93   H16   S    
C3    H3    S    
C6    C66   S    
C22   C45   A    
O9    Zn5   S    
C32   C44   A    
C12   C44   A    
C28   H41   S    
C16   O3    A    
C58   C71   A    
C2    C28   A    
C7    O14   A    
C67   H46   S    
C51   C84   A    
C73   C83   A    
C4    C30   A    
C52   C65   A    
C40   C49   A    
C47   C56   A    
