data_mof_unit_17965.cif
_audit_creation_date              2012-12-11T16:24:24-0500
_audit_creation_method            fapswitch 2.2
_symmetry_space_group_name_H-M    P1
_symmetry_Int_Tables_number       1
_space_group_crystal_system       triclinic
_cell_length_a                    14.758064
_cell_length_b                    14.769589
_cell_length_c                    33.269129
_cell_angle_alpha                 96.089995
_cell_angle_beta                  96.250666
_cell_angle_gamma                 61.193172
_cell_volume                      6304.52989174

loop_
_atom_site_label
_atom_site_type_symbol
_atom_type_description
_atom_site_fract_x
_atom_site_fract_y
_atom_site_fract_z
_atom_type_partial_charge
C1    C     C_R   0.390943 0.699587 0.446119 0.546121
C2    C     C_1   0.314519 0.339927 0.229092 -0.014813
C3    C     C_1   0.319931 0.344051 0.265436 -0.014514
C4    C     C_R   0.405879 0.386340 0.433999 0.546405
C5    C     C_R   0.291299 0.294342 0.101793 0.019510
C6    C     C_R   0.757625 0.372147 0.410174 0.020064
C7    C     C_R   0.788499 0.435794 0.393596 -0.179050
C8    C     C_R   0.818501 0.415715 0.354042 -0.138554
C9    C     C_R   0.818559 0.331400 0.330276 -0.009105
C10   C     C_R   0.798058 0.261713 0.347971 -0.100840
C11   C     C_R   0.768951 0.280522 0.387858 0.249109
C12   C     C_R   0.330213 0.347532 0.308728 0.040294
C13   C     C_R   0.836372 0.312381 0.204872 0.347069
C14   C     C_R   0.829853 0.322155 0.286413 0.351081
C15   C     C_R   0.835830 0.390809 0.142170 -0.119738
C16   C     C_R   0.700756 0.409817 0.447448 0.556537
C17   C     C_R   0.865393 0.379475 0.102886 -0.130048
C18   C     C_R   0.909580 0.198199 0.099235 -0.131359
C19   C     C_R   0.879916 0.209576 0.138611 -0.119991
C20   C     C_R   0.847613 0.304816 0.161062 0.034260
C21   C     C_R   0.907322 0.281935 0.081852 0.021775
C22   C     C_R   0.370728 0.754740 0.409143 0.022029
C23   C     C_R   0.412581 0.265195 0.328346 -0.104988
C24   C     C_R   0.276572 0.784591 0.385924 -0.132885
C25   C     C_R   0.266241 0.812931 0.346432 -0.121692
C26   C     C_R   0.349762 0.812194 0.329529 0.035358
C27   C     C_R   0.440376 0.791937 0.354027 -0.119890
C28   C     C_R   0.393500 0.701312 0.561257 0.542572
C29   C     C_R   0.450814 0.763360 0.393559 -0.130976
C30   C     C_R   0.342901 0.829631 0.204504 0.348083
C31   C     C_R   0.345541 0.822856 0.285780 0.348046
C32   C     C_R   0.258122 0.832573 0.135346 -0.119511
C33   C     C_R   0.238596 0.862841 0.095756 -0.130453
C34   C     C_R   0.432493 0.274278 0.370097 -0.111440
C35   C     C_R   0.381456 0.902047 0.104984 -0.131634
C36   C     C_R   0.401059 0.871640 0.144636 -0.120739
C37   C     C_R   0.336296 0.841472 0.160737 0.035307
C38   C     C_R   0.296823 0.902674 0.080910 0.021765
C39   C     C_R   0.371656 0.369239 0.585146 0.022604
C40   C     C_R   0.407375 0.388875 0.549019 0.543862
C41   C     C_R   0.285153 0.448718 0.604000 -0.131691
C42   C     C_R   0.266084 0.439502 0.643098 -0.122237
C43   C     C_R   0.333317 0.350754 0.663895 0.034903
C44   C     C_R   0.414072 0.267661 0.643595 -0.121325
C45   C     C_R   0.394084 0.253001 0.165853 -0.108032
C46   C     C_R   0.432983 0.276745 0.604539 -0.130471
C47   C     C_R   0.318806 0.348201 0.788604 0.346630
C48   C     C_R   0.325625 0.348104 0.707463 0.346747
C49   C     C_R   0.218546 0.403524 0.850531 -0.122182
C50   C     C_R   0.207309 0.383865 0.889264 -0.131754
C51   C     C_R   0.386351 0.249086 0.893072 -0.130299
C52   C     C_R   0.701334 0.413631 0.562684 0.538384
C53   C     C_R   0.397538 0.268682 0.854424 -0.121138
C54   C     C_R   0.312364 0.342618 0.832053 0.034471
C55   C     C_R   0.289761 0.303023 0.910009 0.022182
C56   C     C_R   0.385031 0.234606 0.124015 -0.124734
C57   C     C_R   0.754132 0.380620 0.602928 0.020320
C58   C     C_R   0.777857 0.447935 0.629607 -0.126510
C59   C     C_R   0.806068 0.427436 0.670400 -0.110770
C60   C     C_R   0.811369 0.339392 0.684899 0.041065
C61   C     C_R   0.794192 0.268748 0.658157 -0.111349
C62   C     C_R   0.766015 0.288991 0.617350 -0.127023
C63   C     C_R   0.886169 0.212657 0.822767 -0.110800
C64   C     C_R   0.370282 0.366283 0.392538 0.018442
C65   C     C_R   0.913800 0.201347 0.864164 -0.127474
C66   C     C_R   0.871548 0.382255 0.873455 -0.126190
C67   C     C_R   0.209650 0.377678 0.121806 -0.125413
C68   C     C_R   0.843785 0.393356 0.832117 -0.111013
C69   C     C_R   0.853996 0.307906 0.806581 0.041647
C70   C     C_1   0.838708 0.316635 0.763563 -0.022418
C71   C     C_1   0.827131 0.325654 0.727594 -0.022704
C72   C     C_R   0.910214 0.285233 0.889683 0.019625
C73   C     C_R   0.376411 0.754816 0.601998 0.019811
C74   C     C_R   0.280986 0.790377 0.619050 -0.126588
C75   C     C_R   0.271470 0.819568 0.660292 -0.111138
C76   C     C_R   0.283193 0.445681 0.372892 -0.127588
C77   C     C_R   0.356913 0.813880 0.684893 0.041648
C78   C     C_R   0.218908 0.395762 0.163682 -0.108036
C79   C     C_R   0.450299 0.784794 0.667814 -0.111522
C80   C     C_R   0.460004 0.755763 0.626514 -0.127826
C81   C     C_R   0.397047 0.883824 0.832811 -0.111246
C82   C     C_R   0.377193 0.911356 0.873626 -0.126181
C83   C     C_R   0.227880 0.882081 0.862722 -0.126719
C84   C     C_R   0.248020 0.854472 0.821955 -0.111096
C85   C     C_R   0.330849 0.858082 0.806763 0.040310
C86   C     C_1   0.343197 0.842233 0.764015 -0.023218
C87   C     C_1   0.350498 0.830171 0.727971 -0.022891
C88   C     C_R   0.263585 0.436391 0.331105 -0.108890
C89   C     C_R   0.309936 0.331386 0.185789 0.041513
C90   C     C_R   0.290352 0.914022 0.888709 0.019561
C91   C     C_R   0.963402 0.264294 0.045487 0.546013
C92   C     C_R   0.272734 0.259458 0.060030 0.544180
C93   C     C_R   0.259236 0.959661 0.043777 0.545735
C94   C     C_R   0.962615 0.267607 0.930718 0.542417
C95   C     C_R   0.270852 0.264054 0.945383 0.545381
C96   C     C_R   0.256082 0.965067 0.928945 0.543009
C97   C     C_3   0.827087 0.135244 0.421561 -0.004157
C98   C     C_3   0.794049 0.067534 0.440635 -0.358248
Cr1   Cr    Cr6+3 0.576280 0.580550 0.506370 1.009148
Cr2   Cr    Cr6+3 0.346780 0.572400 0.496520 1.009391
Cr3   Cr    Cr6+3 0.576960 0.347070 0.497150 1.027339
Cr4   Cr    Cr6+3 0.087320 0.083240 0.984860 1.012965
Cr5   Cr    Cr6+3 0.087720 0.316210 0.996740 1.012957
Cr6   Cr    Cr6+3 0.317350 0.090340 0.995890 1.012918
H1    H     H_    0.449266 0.169982 0.109496 0.129573
H2    H     H_    0.173705 0.861139 0.077706 0.130164
H3    H     H_    0.464990 0.203100 0.182855 0.118528
H4    H     H_    0.194570 0.830316 0.328538 0.134766
H5    H     H_    0.505589 0.792055 0.341983 0.135595
H6    H     H_    0.208263 0.807490 0.146651 0.135188
H7    H     H_    0.428193 0.931687 0.094237 0.129961
H8    H     H_    0.462796 0.877988 0.163336 0.134864
H9    H     H_    0.236061 0.520732 0.589673 0.128688
H10   H     H_    0.499534 0.213687 0.590599 0.128294
H11   H     H_    0.132031 0.427167 0.901684 0.130263
H12   H     H_    0.861370 0.445745 0.089986 0.130462
H13   H     H_    0.202443 0.504333 0.657811 0.131607
H14   H     H_    0.465963 0.197365 0.658561 0.132223
H15   H     H_    0.464318 0.195999 0.311131 0.120779
H16   H     H_    0.151876 0.461933 0.834200 0.132125
H17   H     H_    0.451682 0.187266 0.908595 0.129598
H18   H     H_    0.471530 0.221960 0.841306 0.133192
H19   H     H_    0.943833 0.125492 0.875648 0.127840
H20   H     H_    0.894112 0.146123 0.803172 0.110893
H21   H     H_    0.798422 0.200228 0.669139 0.110630
H22   H     H_    0.748170 0.235645 0.597638 0.123687
H23   H     H_    0.836262 0.469568 0.341438 0.145977
H24   H     H_    0.769085 0.519260 0.619535 0.126242
H25   H     H_    0.818581 0.467498 0.819817 0.110751
H26   H     H_    0.867898 0.448282 0.892270 0.127082
H27   H     H_    0.500102 0.211818 0.384320 0.148638
H28   H     H_    0.819523 0.482428 0.690942 0.112315
H29   H     H_    0.426614 0.935838 0.892781 0.128417
H30   H     H_    0.461510 0.886572 0.821272 0.112621
H31   H     H_    0.516815 0.780298 0.686687 0.110305
H32   H     H_    0.534673 0.728258 0.614380 0.126734
H33   H     H_    0.215242 0.790518 0.601016 0.125717
H34   H     H_    0.798690 0.195458 0.330309 0.145678
H35   H     H_    0.196542 0.834317 0.801956 0.113239
H36   H     H_    0.160360 0.883504 0.873332 0.127466
H37   H     H_    0.198771 0.842291 0.673302 0.110058
H38   H     H_    0.233915 0.517524 0.389309 0.128148
H39   H     H_    0.153548 0.456829 0.178986 0.117927
H40   H     H_    0.136428 0.424968 0.105569 0.130136
H41   H     H_    0.199485 0.500350 0.316047 0.116919
H42   H     H_    0.783073 0.505205 0.410207 0.139917
H43   H     H_    0.864166 0.166625 0.446025 0.122205
H44   H     H_    0.884715 0.086187 0.398995 0.122437
H45   H     H_    0.808986 0.465796 0.158425 0.137211
H46   H     H_    0.757789 0.033912 0.416980 0.152930
H47   H     H_    0.862693 0.003641 0.455597 0.085990
H48   H     H_    0.737292 0.114367 0.463633 0.161688
H49   H     H_    0.941039 0.122172 0.083601 0.131504
H50   H     H_    0.888521 0.142214 0.152227 0.137205
H51   H     H_    0.213013 0.779900 0.397293 0.127397
H52   H     H_    0.524081 0.741559 0.410881 0.129308
N1    N     N_R   0.828385 0.397070 0.227907 -0.230065
N2    N     N_R   0.422331 0.829047 0.269205 -0.230407
N3    N     N_R   0.420663 0.833083 0.229343 -0.230100
N4    N     N_R   0.239944 0.422834 0.766827 -0.236488
N5    N     N_R   0.243625 0.423196 0.727046 -0.236415
N6    N     N_R   0.404285 0.273650 0.729276 -0.235026
N7    N     N_R   0.400789 0.273510 0.768991 -0.235197
N8    N     N_R   0.824817 0.402021 0.267841 -0.224931
N9    N     N_R   0.837692 0.237379 0.263402 -0.231965
N10   N     N_R   0.841615 0.232277 0.223413 -0.229671
N11   N     N_R   0.266435 0.823138 0.221120 -0.229941
N12   N     N_R   0.267919 0.819452 0.260916 -0.229702
O1    O     O_R   0.679450 0.499830 0.463150 -0.531045
O2    O     O_R   0.340240 0.172500 0.045430 -0.519571
O3    O     O_R   0.309670 0.000990 0.032050 -0.501933
O4    O     O_R   0.480650 0.664000 0.464630 -0.501187
O5    O     O_R   0.168330 0.982130 0.939200 -0.520421
O6    O     O_R   0.000140 0.178170 0.944610 -0.502112
O7    O     O_R   0.983010 0.336750 0.948660 -0.519903
O8    O     O_R   0.181800 0.312190 0.959860 -0.502233
O9    O     O_R   0.338500 0.175680 0.956950 -0.519652
O10   O     O_R   0.308050 0.003930 0.950020 -0.501573
O11   O     O_3   0.164130 0.163270 0.992500 -0.236379
O12   O     O_R   0.356040 0.477400 0.534170 -0.502668
O13   O     O_R   0.323930 0.675950 0.455370 -0.520794
O14   O     O_R   0.354700 0.475360 0.451930 -0.504676
O15   O     O_R   0.494470 0.320860 0.448390 -0.499351
O16   O     O_R   0.662580 0.357570 0.460050 -0.447722
O17   O     O_R   0.680900 0.502040 0.551870 -0.521356
O18   O     O_R   0.481990 0.666040 0.546870 -0.502235
O19   O     O_R   0.325370 0.678160 0.544080 -0.520120
O20   O     O_3   0.739047 0.215716 0.402642 -0.538967
O21   O     O_R   0.495910 0.323070 0.537100 -0.524611
O22   O     O_R   0.663920 0.359620 0.542290 -0.508627
O23   O     O_3   0.500010 0.500010 0.500010 -0.239505
O24   O     O_R   0.170070 0.978950 0.027680 -0.519489
O25   O     O_R   0.001760 0.175230 0.026640 -0.501358
O26   O     O_R   0.984760 0.333570 0.037150 -0.519673
O27   O     O_R   0.183410 0.309240 0.041890 -0.501486

loop_
_geom_bond_atom_site_label_1
_geom_bond_atom_site_label_2
_ccdc_geom_bond_type
C97   O20   S    
C66   C68   A    
C63   C65   A    
C58   H24   S    
N9    N10   A    
C22   C29   A    
C27   C29   A    
C18   C21   A    
C41   C42   A    
C5    C56   A    
C35   C36   A    
Cr1   O17   S    
C5    C67   A    
C92   O27   A    
C63   H20   S    
C13   N10   A    
C81   H30   S    
C39   C41   A    
C98   H48   S    
C53   C54   A    
Cr4   O5    S    
C12   C23   A    
C26   C27   A    
C32   H6    S    
C83   C84   A    
C36   C37   A    
C47   C54   S    
C30   N11   A    
C18   C19   A    
Cr3   O21   S    
C53   H18   S    
C98   H46   S    
C91   O25   A    
Cr6   O11   S    
C48   N6    A    
C67   H40   S    
C49   C54   A    
C97   C98   S    
C51   C55   A    
C50   H11   S    
C73   C74   A    
C49   H16   S    
C3    C12   S    
C75   H37   S    
C40   O12   A    
C16   O1    A    
C95   O9    A    
C66   C72   A    
C40   O21   A    
C63   C69   A    
C84   H35   S    
C92   O2    A    
C8    C9    A    
C36   H8    S    
Cr4   O24   S    
C88   H41   S    
C96   O10   A    
C70   C71   T    
Cr5   O26   S    
Cr2   O14   S    
C9    C10   A    
C76   C88   A    
C39   C46   A    
C61   C62   A    
Cr3   O15   S    
C24   H51   S    
C94   O7    A    
C98   H47   S    
C7    H42   S    
C47   N7    A    
C59   C60   A    
Cr4   O11   S    
C97   H43   S    
C15   C20   A    
C67   C78   A    
Cr5   O27   S    
C28   C73   S    
C13   N1    A    
C83   H36   S    
C44   C46   A    
C81   C82   A    
C47   N4    A    
C77   C79   A    
C78   C89   A    
C30   N3    A    
C74   H33   S    
Cr6   O10   S    
C59   H28   S    
C74   C75   A    
C12   C88   A    
C11   O20   S    
C5    C92   S    
C7    C8    A    
Cr2   O19   S    
C84   C85   A    
C45   C56   A    
C55   C95   S    
Cr3   O22   S    
C52   C57   S    
C28   O19   A    
N11   N12   A    
C62   H22   S    
C91   O26   A    
C1    O13   A    
C86   C87   T    
C68   C69   A    
Cr1   O4    S    
C60   C71   S    
C57   C62   A    
C25   C26   A    
C85   C86   S    
C17   C21   A    
C30   C37   S    
C60   C61   A    
C51   C53   A    
C2    C89   S    
C95   O8    A    
C28   O18   A    
C8    H23   S    
Cr6   O9    S    
C44   H14   S    
C23   C34   A    
C35   C38   A    
C17   H12   S    
Cr5   O7    S    
C64   C76   A    
C9    C14   S    
C52   O22   A    
C32   C37   A    
C24   C25   A    
C14   N9    A    
Cr2   O13   S    
C75   C77   A    
N1    N8    A    
C77   C87   S    
C18   H49   S    
C94   O6    A    
Cr6   O3    S    
C34   H27   S    
C29   H52   S    
C6    C11   A    
C43   C44   A    
N2    N3    A    
C51   H17   S    
C97   H44   S    
C22   C24   A    
Cr2   O23   S    
C52   O17   A    
Cr2   O12   S    
Cr4   O25   S    
C15   H45   S    
C35   H7    S    
Cr6   O2    S    
N6    N7    A    
C21   C91   S    
C93   O24   A    
C15   C17   A    
C83   C90   A    
C93   O3    A    
Cr3   O16   S    
C45   C89   A    
C13   C20   S    
C26   C31   S    
C33   H2    S    
C33   C38   A    
C46   H10   S    
C41   H9    S    
Cr3   O23   S    
C80   H32   S    
C16   O16   A    
C42   H13   S    
C90   C96   S    
C6    C7    A    
Cr1   O1    S    
Cr4   O6    S    
C65   C72   A    
C79   H31   S    
C4    C64   S    
C1    O4    A    
C50   C55   A    
C82   C90   A    
C43   C48   S    
N4    N5    A    
C19   C20   A    
C2    C3    T    
C58   C59   A    
C72   C94   S    
C78   H39   S    
C32   C33   A    
Cr1   O23   S    
C57   C58   A    
C82   H29   S    
C38   C93   S    
Cr5   O8    S    
C73   C80   A    
Cr5   O11   S    
C65   H19   S    
C4    O15   A    
C14   N8    A    
C68   H25   S    
C48   N5    A    
C69   C70   S    
C56   H1    S    
C31   N2    A    
C10   C11   A    
C6    C16   S    
C79   C80   A    
C39   C40   S    
C1    C22   S    
C31   N12   A    
C27   H5    S    
C49   C50   A    
C42   C43   A    
C19   H50   S    
C23   H15   S    
C61   H21   S    
C96   O5    A    
C10   H34   S    
C4    O14   A    
C34   C64   A    
Cr1   O18   S    
C81   C85   A    
C45   H3    S    
C25   H4    S    
C66   H26   S    
C76   H38   S    
