data_mof_unit_64908.cif
_audit_creation_date              2012-12-11T19:09:51-0500
_audit_creation_method            fapswitch 2.2
_symmetry_space_group_name_H-M    P1
_symmetry_Int_Tables_number       1
_space_group_crystal_system       triclinic
_cell_length_a                    8.281096
_cell_length_b                    15.375795
_cell_length_c                    26.95159
_cell_angle_alpha                 99.195057
_cell_angle_beta                  93.521879
_cell_angle_gamma                 79.968663
_cell_volume                      3333.82611589

loop_
_atom_site_label
_atom_site_type_symbol
_atom_type_description
_atom_site_fract_x
_atom_site_fract_y
_atom_site_fract_z
_atom_type_partial_charge
Ba1   Ba    Ba6+2 0.860050 0.456430 0.522540 1.913625
Ba2   Ba    Ba6+2 0.329780 0.543490 0.477450 1.931447
C1    C     C_3   0.790968 0.122055 0.667685 -0.193652
C2    C     C_R   0.868005 0.569976 0.173962 0.757529
C3    C     C_2   0.750383 0.535593 0.269251 0.588767
C4    C     C_3   0.177214 0.271679 0.659027 0.388812
C5    C     C_3   0.734686 0.584575 0.322542 -0.150489
C6    C     C_1   0.997656 0.489010 0.340813 -0.022606
C7    C     C_2   0.033295 0.474890 0.292144 -0.127326
C8    C     C_2   0.903105 0.500506 0.252370 0.122961
C9    C     C_R   0.023250 0.506276 0.099337 -0.165313
C10   C     C_R   0.114141 0.442588 0.126922 0.008571
C11   C     C_R   0.251850 0.386288 0.105012 -0.004207
C12   C     C_3   0.692239 0.208624 0.652637 0.292523
C13   C     C_R   0.894688 0.568287 0.122432 -0.232235
C14   C     C_2   0.876460 0.553512 0.357035 -0.344574
C15   C     C_2   0.333267 0.451493 0.636902 0.375756
C16   C     C_3   0.146944 0.260346 0.712690 -0.276596
C17   C     C_R   0.261546 0.470984 0.981597 0.032250
C18   C     C_R   0.991260 0.559172 0.967098 0.072144
C19   C     C_R   0.146793 0.516180 0.949269 0.069023
C20   C     C_R   0.423218 0.441194 0.965471 -0.101518
C21   C     C_R   0.469952 0.452989 0.918225 -0.039697
C22   C     C_R   0.351320 0.490284 0.883757 -0.057551
C23   C     C_3   0.467322 0.734512 0.636843 0.721163
C24   C     C_R   0.187773 0.517981 0.898802 -0.068361
C25   C     C_R   0.065642 0.548482 0.863636 -0.045805
C26   C     C_R   0.105100 0.534906 0.811874 0.606617
C27   C     C_R   0.389376 0.500859 0.834646 0.612260
C28   C     C_3   0.245042 0.266705 0.408731 0.930444
C29   C     C_2   0.423863 0.420450 0.725210 -0.143737
C30   C     C_3   0.451713 0.397055 0.669450 -0.168779
C31   C     C_1   0.219421 0.518162 0.656393 -0.047167
C32   C     C_2   0.211632 0.545583 0.705842 -0.128829
C33   C     C_2   0.307383 0.491365 0.743589 0.211006
C34   C     C_3   0.496252 0.778494 0.691342 0.387097
C35   C     C_R   0.211231 0.458194 0.029247 0.073482
C36   C     C_R   0.063975 0.509597 0.049030 -0.006970
C37   C     C_R   0.959457 0.565885 0.019279 -0.148047
C38   C     C_R   0.302347 0.395673 0.057830 -0.080446
C39   C     C_R   0.801142 0.630168 0.094165 0.639907
C40   C     C_3   0.311179 0.168771 0.388617 -0.251101
C41   C     C_R   0.872733 0.592693 0.931981 -0.052509
C42   C     C_R   0.907562 0.587724 0.881292 -0.068850
C43   C     C_R   0.830944 0.628306 0.043506 0.531767
C44   C     C_R   0.366539 0.179428 0.541733 -0.012542
C45   C     C_3   0.951009 0.780972 0.343942 0.187308
C46   C     C_R   0.581389 0.210423 0.491574 -0.063397
C47   C     C_R   0.743192 0.770620 0.476824 0.266622
C48   C     C_R   0.836649 0.827618 0.461471 -0.067877
C49   C     C_R   0.782102 0.920054 0.468943 -0.036309
C50   C     C_R   0.635451 0.958787 0.494521 -0.018104
C51   C     C_R   0.549506 0.898919 0.513963 -0.168453
C52   C     C_3   0.975796 0.738289 0.590382 0.344346
C53   C     C_R   0.576040 0.054441 0.504048 -0.030154
C54   C     C_R   0.439465 0.087411 0.536346 -0.198908
C55   C     C_R   0.376386 0.026071 0.560334 -0.108534
C56   C     C_3   0.874555 0.866898 0.323527 1.042296
C57   C     C_R   0.418469 0.935306 0.545465 0.620465
C58   C     C_R   0.643746 0.118402 0.481893 0.553652
C59   C     C_R   0.442962 0.239275 0.520708 -0.303757
C60   C     C_R   0.604791 0.804367 0.504604 0.014153
C61   C     C_3   0.920224 0.838646 0.611527 -0.281669
C62   C     C_3   0.731198 0.305746 0.363673 0.664300
C63   C     C_3   0.659778 0.300776 0.309767 1.148689
C64   C     C_1   0.178921 0.118136 0.370372 0.491995
C65   C     C_1   0.965218 0.899123 0.579968 0.255033
C66   C     C_1   0.988099 0.864783 0.662487 0.497129
C67   C     C_3   0.452655 0.759138 0.319432 0.239886
C68   C     C_1   0.723508 0.398548 0.387002 0.082931
C69   C     C_1   0.689248 0.052090 0.663181 0.156962
C70   C     C_1   0.514328 0.638386 0.632244 0.195267
C71   C     C_1   0.668506 0.758009 0.708970 0.237955
C72   C     C_1   0.852436 0.136170 0.720139 0.351793
C73   C     C_1   0.020175 0.714457 0.302169 0.320011
C74   C     C_1   0.433189 0.823462 0.366202 0.294778
C75   C     C_1   0.420468 0.884920 0.268571 0.413198
C76   C     C_1   0.503532 0.354621 0.755626 0.331573
C77   C     C_1   0.638449 0.418704 0.905167 0.351669
C78   C     C_3   0.364346 0.801999 0.275181 -0.230346
C79   C     C_1   0.780577 0.630045 0.849491 0.461935
C80   C     C_1   0.293018 0.048206 0.607266 0.413609
C81   C     C_R   0.065358 0.436651 0.175749 0.632858
F1    F     F_    0.890946 0.263146 0.362104 -0.689700
F2    F     F_    0.743197 0.694687 0.020580 -0.649875
F3    F     F_    0.353241 0.432116 0.586647 -0.719742
F4    F     F_    0.758871 0.093381 0.446530 -0.660461
F5    F     F_    0.798544 0.681554 0.470671 -0.747013
F6    F     F_    0.332571 0.883679 0.565890 -0.665666
F7    F     F_    0.139624 0.270769 0.446987 -0.695083
F8    F     F_    0.688497 0.213255 0.285786 -0.599217
F9    F     F_    0.492273 0.330625 0.309648 -0.695495
F10   F     F_    0.303375 0.756402 0.624789 -0.684940
F11   F     F_    0.397620 0.750401 0.723187 -0.676644
F12   F     F_    0.779112 0.847747 0.280563 -0.701116
F13   F     F_    0.777548 0.923367 0.359177 -0.681001
F14   F     F_    0.617702 0.544081 0.236889 -0.652154
F15   F     F_    0.677565 0.692711 0.115169 -0.581630
H1    H     H_    0.654834 0.196464 0.612109 -0.017309
H2    H     H_    0.462235 0.852142 0.693641 0.096851
H3    H     H_    0.216003 0.303017 0.739821 0.044863
H4    H     H_    0.852831 0.753687 0.359822 -0.106991
H5    H     H_    0.972138 0.902056 0.313975 0.011974
H6    H     H_    0.584881 0.741426 0.311011 0.030581
H7    H     H_    0.230623 0.818263 0.280944 0.056339
H8    H     H_    0.129397 0.342288 0.654966 0.025536
H9    H     H_    0.384881 0.753676 0.239926 0.179156
H10   H     H_    0.160983 0.456911 0.282247 0.200014
H11   H     H_    0.324351 0.336255 0.124980 0.145490
H12   H     H_    0.380428 0.136066 0.418851 0.003510
H13   H     H_    0.517396 0.411498 0.990177 0.069220
H14   H     H_    0.409906 0.350546 0.043455 0.082277
H15   H     H_    0.747966 0.618743 0.942561 0.151809
H16   H     H_    0.311083 0.255155 0.653529 -0.127056
H17   H     H_    0.138678 0.609815 0.719435 0.170810
H18   H     H_    0.882165 0.589160 0.394574 0.185415
H19   H     H_    0.385124 0.307980 0.522603 0.171521
H20   H     H_    0.866390 0.959159 0.458609 0.205097
H21   H     H_    0.016217 0.282024 0.721495 0.162837
H22   H     H_    0.186875 0.190123 0.718735 0.140150
H23   H     H_    0.395043 0.165060 0.357464 0.130351
H24   H     H_    0.348132 0.300378 0.423956 -0.132386
H25   H     H_    0.871289 0.711037 0.569888 -0.043097
H26   H     H_    0.075058 0.729940 0.563453 0.109961
H27   H     H_    0.785364 0.851962 0.613596 0.047064
H28   H     H_    0.896299 0.098188 0.642739 0.116178
H29   H     H_    0.718759 0.342176 0.288373 -0.149263
H30   H     H_    0.581506 0.227246 0.675572 -0.035271
N1    N     N_R   0.943427 0.500706 0.199639 -0.426685
N2    N     N_1   0.900414 0.146820 0.761544 -0.241309
N3    N     N_1   0.076054 0.663189 0.268909 -0.242733
N4    N     N_1   0.416709 0.874878 0.402586 -0.264112
N5    N     N_1   0.462966 0.950636 0.263379 -0.120167
N6    N     N_1   0.566924 0.301821 0.779849 -0.262942
N7    N     N_1   0.773187 0.390931 0.894784 -0.255792
N8    N     N_1   0.679179 0.664422 0.824184 -0.173239
N9    N     N_1   0.230829 0.058853 0.645537 -0.266983
N10   N     N_R   0.266934 0.510498 0.797392 -0.414527
N11   N     N_1   0.075223 0.077778 0.356086 -0.148419
N12   N     N_1   0.000560 0.949055 0.556365 -0.247080
N13   N     N_1   0.041408 0.885522 0.702491 -0.197572
N14   N     N_1   0.714364 0.468433 0.410593 -0.222638
N15   N     N_1   0.610471 0.996314 0.660662 -0.299448
N16   N     N_1   0.557210 0.562618 0.626680 -0.239834
N17   N     N_1   0.803594 0.741527 0.723016 -0.224685
O1    O     O_2   0.906490 0.548660 0.619040 -0.465813
O2    O     O_2   0.174594 0.822221 0.472356 -0.431588
O3    O     O_3   0.080815 0.799341 0.378240 -0.628336
O4    O     O_3   0.138490 0.548590 0.558860 -0.419067
O5    O     O_3   0.572560 0.389970 0.472910 -0.481482
O6    O     O_2   0.345680 0.723560 0.528460 -0.379931
O7    O     O_3   0.561851 0.766821 0.604761 -0.703161
O8    O     O_2   0.449554 0.516343 0.327986 -0.410382
O9    O     O_3   0.380221 0.684337 0.324314 -0.562194
O10   O     O_2   0.131662 0.374285 0.196685 -0.539383
O11   O     O_2   0.531091 0.501649 0.824999 -0.576644
O12   O     O_3   0.643534 0.260403 0.391223 -0.606491
O13   O     O_2   0.781829 0.635273 0.196363 -0.451357
O14   O     O_2   0.994897 0.542132 0.779841 -0.570602
O15   O     O_3   0.686290 0.382320 0.585720 -0.414901
O16   O     O_2   0.769770 0.449347 0.678161 -0.430440
O17   O     O_3   0.030196 0.691553 0.630551 -0.599475
O18   O     O_3   0.789812 0.276281 0.661140 -0.588219
O19   O     O_2   0.844020 0.276410 0.471510 -0.337979
O20   O     O_3   0.101490 0.335510 0.560360 -0.417021
O21   O     O_2   0.025530 0.177934 0.528181 -0.412555
O22   O     O_3   0.096027 0.214548 0.624195 -0.587206
O23   O     O_2   0.283210 0.451320 0.380930 -0.441803
O24   O     O_3   0.051220 0.451340 0.441130 -0.437122
O25   O     O_3   0.503420 0.617610 0.414270 -0.439861
O26   O     O_3   0.164437 0.308306 0.369421 -0.568477
O27   O     O_3   0.617160 0.609950 0.527080 -0.412395
O28   O     O_3   0.088220 0.664410 0.439630 -0.437601
P1    P     P_3+3 0.071960 0.575810 0.612130 1.111644
P2    P     P_3+3 0.664360 0.290070 0.457280 1.151504
P3    P     P_3+3 0.151640 0.222684 0.563652 1.056516
P4    P     P_3+3 0.117760 0.424110 0.387870 1.132428
P5    P     P_3+3 0.043360 0.779611 0.438310 1.061642
P6    P     P_3+3 0.672688 0.377736 0.649816 1.065978
P7    P     P_3+3 0.533696 0.724899 0.540290 1.134872
P8    P     P_3+3 0.522161 0.601488 0.348361 1.068029

loop_
_geom_bond_atom_site_label_1
_geom_bond_atom_site_label_2
_ccdc_geom_bond_type
Ba2   O5    S    
C63   F9    S    
C53   C54   A    
C23   F10   S    
C16   H22   S    
C1    C69   S    
C28   F7    S    
C51   C57   A    
C1    H28   S    
C12   H1    S    
C38   H14   S    
O20   P3    S    
C27   N10   Am   
C78   H9    S    
C24   C25   A    
C75   N5    T    
C67   C74   S    
C23   O7    S    
C63   H29   S    
C48   P5    S    
C22   C24   A    
C81   N1    Am   
C35   C38   A    
C33   N10   S    
C60   P7    S    
C36   C37   A    
C32   C33   S    
C55   C57   A    
C81   O10   D    
C52   C61   S    
O23   P4    D    
C55   C80   S    
O9    P8    S    
O1    P1    D    
C49   H20   S    
C12   H30   S    
C54   C55   A    
O19   P2    D    
C63   F8    S    
O4    P1    S    
C57   F6    S    
C12   O18   S    
C1    C72   S    
C56   F13   S    
C22   C27   A    
C4    H16   S    
C11   C38   A    
C11   H11   S    
C17   C35   A    
C4    O22   S    
C9    C13   A    
C6    P4    S    
C58   F4    S    
C2    O13   D    
C64   N11   T    
C28   H24   S    
Ba1   O19   S    
C6    C7    D    
C62   O12   S    
C21   C22   A    
C30   P6    S    
Ba1   O4    S    
Ba2   P4    S    
C62   C68   S    
O16   P6    D    
C7    C8    S    
C50   C53   A    
C37   C43   A    
C46   P2    S    
O27   P7    S    
Ba2   O4    S    
O5    P2    S    
C6    C14   D    
C45   H4    S    
C53   C58   A    
C47   F5    S    
Ba1   O1    S    
C15   C31   D    
C14   H18   S    
O24   P4    S    
C19   C24   A    
C73   N3    T    
C46   C58   A    
C4    C16   S    
C61   C65   S    
Ba1   P1    S    
C68   N14   T    
C5    P8    S    
C44   C59   A    
C59   H19   S    
C49   C50   A    
Ba1   O5    S    
C17   C20   A    
C26   N10   Am   
C13   C39   A    
C42   C79   S    
C3    C5    S    
C18   C37   A    
Ba2   O24   S    
C32   H17   S    
C78   H7    S    
C26   O14   D    
C15   F3    S    
C10   C81   A    
C71   N17   T    
C7    H10   S    
C16   H3    S    
O7    P7    S    
C9    C36   A    
C43   F2    S    
C56   F12   S    
O15   P6    S    
C35   C36   A    
C65   N12   T    
C51   C60   A    
C29   C30   S    
Ba1   O20   S    
C48   C49   A    
C4    H8    S    
C66   N13   T    
C34   H2    S    
C23   C70   S    
C52   O17   S    
C31   P1    S    
C76   N6    T    
C61   H27   S    
C1    C12   S    
O12   P2    S    
C27   O11   D    
C5    C14   S    
Ba2   O25   S    
C20   H13   S    
C72   N2    T    
O25   P8    S    
O18   P6    S    
C44   P3    S    
C52   H25   S    
Ba2   O23   S    
C18   C41   A    
C16   H21   S    
C50   C51   A    
C79   N8    T    
C69   N15   T    
C67   H6    S    
Ba2   O6    S    
C70   N16   T    
C52   H26   S    
C45   O3    S    
Ba1   P2    S    
O3    P5    S    
C47   C60   A    
C17   C19   A    
C39   F15   S    
Ba1   O15   S    
O26   P4    S    
O8    P8    D    
C9    C10   A    
C2    N1    Am   
O17   P1    S    
C80   N9    T    
C77   N7    T    
C61   C66   S    
Ba1   O27   S    
O21   P3    D    
C67   O9    S    
C62   F1    S    
C21   C77   S    
C62   C63   S    
C2    C13   A    
C40   H12   S    
C8    N1    S    
C45   C73   S    
C3    C8    D    
Ba2   O28   S    
C41   H15   S    
C45   C56   S    
C74   N4    T    
O2    P5    D    
C46   C59   A    
C75   C78   S    
O28   P5    S    
C41   C42   A    
Ba1   Ba2   S    
Ba1   O24   S    
C31   C32   D    
C3    F14   S    
C29   C33   D    
C28   O26   S    
C34   C71   S    
C23   C34   S    
O6    P7    D    
C34   F11   S    
C18   C19   A    
C47   C48   A    
C44   C54   A    
C25   C26   A    
C40   C64   S    
C15   C30   S    
C39   C43   A    
C20   C21   A    
C28   C40   S    
C67   C78   S    
C56   H5    S    
C10   C11   A    
C25   C42   A    
C29   C76   S    
C40   H23   S    
Ba2   O27   S    
O22   P3    S    
