data_mof_unit_53165.cif
_audit_creation_date              2012-12-11T14:44:32-0500
_audit_creation_method            fapswitch 2.2
_symmetry_space_group_name_H-M    P1
_symmetry_Int_Tables_number       1
_space_group_crystal_system       triclinic
_cell_length_a                    24.919672
_cell_length_b                    16.671329
_cell_length_c                    15.584669
_cell_angle_alpha                 90.001009
_cell_angle_beta                  49.921139
_cell_angle_gamma                 90.001215
_cell_volume                      4954.06630342

loop_
_atom_site_label
_atom_site_type_symbol
_atom_type_description
_atom_site_fract_x
_atom_site_fract_y
_atom_site_fract_z
_atom_type_partial_charge
C1    C     C_R   0.334425 0.114672 0.801190 -0.168669
C2    C     C_R   0.651882 0.856614 0.234061 -0.175338
C3    C     C_R   0.665574 0.114680 0.198816 -0.168681
C4    C     C_R   0.348112 0.856618 0.765946 -0.175326
C5    C     C_R   0.834425 0.614671 0.801192 -0.168681
C6    C     C_R   0.151884 0.356616 0.234058 -0.175337
C7    C     C_R   0.165575 0.614677 0.198813 -0.168667
C8    C     C_R   0.848111 0.356620 0.765948 -0.175315
C9    C     C_3   0.301144 0.295585 0.393560 -0.165231
C10   C     C_3   0.754610 0.795165 0.604512 -0.166634
C11   C     C_3   0.699015 0.295273 0.606344 -0.165272
C12   C     C_3   0.245357 0.795213 0.395504 -0.166648
C13   C     C_3   0.801135 0.795567 0.393566 -0.165226
C14   C     C_3   0.254600 0.295150 0.604518 -0.166641
C15   C     C_3   0.198884 0.795530 0.606421 -0.165249
C16   C     C_3   0.745224 0.295415 0.395577 -0.166653
C17   C     C_2   0.694653 0.160932 0.017677 0.196807
C18   C     C_2   0.344730 0.748388 0.883258 0.188073
C19   C     C_2   0.305339 0.160893 0.982352 0.196755
C20   C     C_2   0.655248 0.748366 0.116776 0.188027
C21   C     C_2   0.194657 0.660915 0.017664 0.196785
C22   C     C_2   0.844728 0.248389 0.883258 0.188090
C23   C     C_2   0.805340 0.660888 0.982355 0.196733
C24   C     C_2   0.155258 0.248377 0.116758 0.188047
C25   C     C_2   0.762273 0.137882 0.951744 -0.159735
C26   C     C_2   0.317089 0.690584 0.861694 -0.168925
C27   C     C_2   0.237713 0.137871 0.048260 -0.159755
C28   C     C_2   0.682915 0.690584 0.138317 -0.168924
C29   C     C_2   0.262279 0.637875 0.951742 -0.159744
C30   C     C_2   0.817086 0.190587 0.861695 -0.168922
C31   C     C_2   0.737713 0.637869 0.048262 -0.159757
C32   C     C_2   0.182911 0.190585 0.138310 -0.168927
C33   C     C_R   0.586933 0.150472 0.591488 -0.154316
C34   C     C_R   0.383196 0.893763 0.409997 -0.164349
C35   C     C_R   0.413046 0.150459 0.408514 -0.154410
C36   C     C_R   0.616802 0.893761 0.590003 -0.164354
C37   C     C_R   0.086945 0.650465 0.591487 -0.154392
C38   C     C_R   0.883204 0.393739 0.409993 -0.164314
C39   C     C_R   0.913048 0.650460 0.408514 -0.154403
C40   C     C_R   0.116803 0.393763 0.590003 -0.164356
C41   C     C_R   0.663410 0.147635 0.405161 -0.122039
C42   C     C_R   0.310548 0.891383 0.595650 -0.138740
C43   C     C_R   0.336568 0.147618 0.594847 -0.121979
C44   C     C_R   0.689452 0.891385 0.404350 -0.138737
C45   C     C_R   0.163424 0.647624 0.405156 -0.121987
C46   C     C_R   0.810557 0.391351 0.595647 -0.138806
C47   C     C_R   0.836569 0.647619 0.594847 -0.121987
C48   C     C_R   0.189452 0.391386 0.404350 -0.138725
C49   C     C_R   0.577854 0.109322 0.196481 0.044846
C50   C     C_R   0.434135 0.862400 0.773394 0.064950
C51   C     C_R   0.422144 0.109311 0.803526 0.044825
C52   C     C_R   0.565859 0.862395 0.226615 0.064953
C53   C     C_R   0.077855 0.609318 0.196478 0.044840
C54   C     C_R   0.934135 0.362400 0.773394 0.064944
C55   C     C_R   0.922145 0.609310 0.803526 0.044844
C56   C     C_R   0.065862 0.362399 0.226607 0.064968
C57   C     C_R   0.353322 0.133721 0.864879 -0.006077
C58   C     C_R   0.624443 0.818704 0.190877 -0.006727
C59   C     C_R   0.646674 0.133739 0.135137 -0.006115
C60   C     C_R   0.375547 0.818713 0.809137 -0.006757
C61   C     C_R   0.853322 0.633719 0.864880 -0.006075
C62   C     C_R   0.124447 0.318709 0.190869 -0.006742
C63   C     C_R   0.146676 0.633732 0.135130 -0.006099
C64   C     C_R   0.875547 0.318713 0.809137 -0.006761
C65   C     C_R   0.637757 0.194055 0.497315 0.030755
C66   C     C_R   0.316935 0.874111 0.504003 0.041028
C67   C     C_R   0.362202 0.194023 0.502693 0.030811
C68   C     C_R   0.683064 0.874112 0.495997 0.041012
C69   C     C_R   0.137784 0.694035 0.497310 0.030798
C70   C     C_R   0.816951 0.374059 0.503996 0.041050
C71   C     C_R   0.862205 0.694025 0.502692 0.030806
C72   C     C_R   0.183065 0.374115 0.495997 0.041020
C73   C     C_3   0.342505 0.327962 0.429004 -0.157735
C74   C     C_3   0.713854 0.762590 0.568590 -0.153358
C75   C     C_3   0.657434 0.327776 0.571362 -0.157815
C76   C     C_3   0.286147 0.762621 0.431356 -0.153374
C77   C     C_3   0.842508 0.827951 0.428983 -0.157744
C78   C     C_3   0.213856 0.262581 0.568569 -0.153347
C79   C     C_3   0.157477 0.827932 0.571074 -0.157752
C80   C     C_3   0.786192 0.262723 0.431067 -0.153479
C81   C     C_3   0.775489 0.871044 0.531511 -0.146828
C82   C     C_3   0.279619 0.220716 0.466665 -0.132582
C83   C     C_3   0.224475 0.871064 0.468558 -0.146802
C84   C     C_3   0.720575 0.220600 0.532889 -0.132445
C85   C     C_3   0.275477 0.371040 0.531537 -0.146825
C86   C     C_3   0.779608 0.720710 0.466691 -0.132578
C87   C     C_3   0.724314 0.371112 0.468911 -0.146727
C88   C     C_3   0.220415 0.720702 0.533242 -0.132550
C89   C     C_3   0.735447 0.837162 0.495630 0.184233
C90   C     C_3   0.320286 0.253420 0.502305 0.184278
C91   C     C_3   0.264549 0.837164 0.504370 0.184232
C92   C     C_3   0.679686 0.253430 0.497710 0.184289
C93   C     C_3   0.235448 0.337165 0.495629 0.184230
C94   C     C_3   0.820288 0.753421 0.502304 0.184281
C95   C     C_3   0.764564 0.337113 0.504360 0.184240
C96   C     C_3   0.179701 0.753431 0.497700 0.184281
H1    H     H_    0.281702 0.114162 0.830013 0.116759
H2    H     H_    0.699492 0.841446 0.218995 0.127469
H3    H     H_    0.718298 0.114170 0.169989 0.116777
H4    H     H_    0.300501 0.841453 0.781017 0.127491
H5    H     H_    0.781702 0.614160 0.830015 0.116757
H6    H     H_    0.199494 0.341450 0.218990 0.127477
H7    H     H_    0.218298 0.614167 0.169987 0.116769
H8    H     H_    0.800499 0.341456 0.781021 0.127492
H9    H     H_    0.559900 0.167764 0.677008 0.100569
H10   H     H_    0.399880 0.899474 0.327055 0.093520
H11   H     H_    0.440080 0.167752 0.322994 0.100581
H12   H     H_    0.600116 0.899468 0.672948 0.093524
H13   H     H_    0.059910 0.667759 0.677008 0.100579
H14   H     H_    0.899886 0.399451 0.327052 0.093503
H15   H     H_    0.940081 0.667752 0.322993 0.100581
H16   H     H_    0.100117 0.399469 0.672948 0.093524
H17   H     H_    0.706948 0.161179 0.318534 0.097317
H18   H     H_    0.263053 0.891990 0.682464 0.090912
H19   H     H_    0.293034 0.161155 0.681477 0.097259
H20   H     H_    0.736947 0.891992 0.317536 0.090911
H21   H     H_    0.206959 0.661164 0.318527 0.097272
H22   H     H_    0.763059 0.391954 0.682459 0.090939
H23   H     H_    0.793036 0.661157 0.681477 0.097264
H24   H     H_    0.236947 0.391994 0.317536 0.090908
H25   H     H_    0.772219 0.934046 0.557565 0.109475
H26   H     H_    0.281648 0.158077 0.440340 0.113489
H27   H     H_    0.227721 0.934077 0.442560 0.109480
H28   H     H_    0.718708 0.157883 0.558844 0.113476
H29   H     H_    0.272197 0.434038 0.557612 0.109482
H30   H     H_    0.781628 0.658066 0.440388 0.113485
H31   H     H_    0.727429 0.434185 0.443203 0.109467
H32   H     H_    0.218419 0.658047 0.559490 0.113488
H33   H     H_    0.396307 0.353359 0.372627 0.110775
H34   H     H_    0.660367 0.736243 0.625294 0.111313
H35   H     H_    0.603586 0.353041 0.628040 0.110745
H36   H     H_    0.339641 0.736294 0.374607 0.111311
H37   H     H_    0.896313 0.853341 0.372589 0.110773
H38   H     H_    0.160372 0.236227 0.625255 0.111317
H39   H     H_    0.103666 0.853301 0.627514 0.110768
H40   H     H_    0.839724 0.236502 0.374080 0.111280
H41   H     H_    0.319416 0.296123 0.307167 0.108563
H42   H     H_    0.736693 0.794330 0.690731 0.111367
H43   H     H_    0.680883 0.295569 0.692655 0.108669
H44   H     H_    0.263252 0.794412 0.309299 0.111376
H45   H     H_    0.819399 0.796092 0.307178 0.108565
H46   H     H_    0.236674 0.294302 0.690742 0.111366
H47   H     H_    0.180641 0.796018 0.692796 0.108592
H48   H     H_    0.763002 0.294792 0.309441 0.111406
H49   H     H_    0.325159 0.692066 0.784430 0.125801
H50   H     H_    0.778255 0.090554 0.978881 0.118824
H51   H     H_    0.674879 0.692095 0.215548 0.125833
H52   H     H_    0.221723 0.090574 0.021093 0.118854
H53   H     H_    0.825158 0.192068 0.784431 0.125790
H54   H     H_    0.278264 0.590560 0.978892 0.118831
H55   H     H_    0.174860 0.192083 0.215555 0.125824
H56   H     H_    0.721721 0.590579 0.021091 0.118868
N1    N     N_R   0.389620 0.081040 0.705440 -0.041358
N2    N     N_R   0.610380 0.918960 0.294560 -0.043368
N3    N     N_R   0.610380 0.081040 0.294560 -0.041354
N4    N     N_R   0.389620 0.918960 0.705440 -0.043370
N5    N     N_R   0.889620 0.581040 0.705440 -0.041358
N6    N     N_R   0.110380 0.418960 0.294560 -0.043370
N7    N     N_R   0.110380 0.581040 0.294560 -0.041360
N8    N     N_R   0.889620 0.418960 0.705440 -0.043369
N9    N     N_R   0.582320 0.079840 0.556630 -0.041516
N10   N     N_R   0.417680 0.920160 0.443370 -0.038780
N11   N     N_R   0.417680 0.079840 0.443370 -0.041502
N12   N     N_R   0.582320 0.920160 0.556630 -0.038780
N13   N     N_R   0.082320 0.579840 0.556630 -0.041506
N14   N     N_R   0.917680 0.420160 0.443370 -0.038777
N15   N     N_R   0.917680 0.579840 0.443370 -0.041506
N16   N     N_R   0.082320 0.420160 0.556630 -0.038780
N17   N     N_R   0.627920 0.078930 0.443400 -0.036810
N18   N     N_R   0.372080 0.921070 0.556600 -0.034463
N19   N     N_R   0.372080 0.078930 0.556600 -0.036803
N20   N     N_R   0.627920 0.921070 0.443400 -0.034462
N21   N     N_R   0.127920 0.578930 0.443400 -0.036805
N22   N     N_R   0.872080 0.421070 0.556600 -0.034456
N23   N     N_R   0.872080 0.578930 0.556600 -0.036804
N24   N     N_R   0.127920 0.421070 0.443400 -0.034464
N25   N     N_R   0.555090 0.077730 0.294590 -0.050612
N26   N     N_R   0.444910 0.922270 0.705410 -0.055003
N27   N     N_R   0.444910 0.077730 0.705410 -0.050613
N28   N     N_R   0.555090 0.922270 0.294590 -0.055005
N29   N     N_R   0.055090 0.577730 0.294590 -0.050614
N30   N     N_R   0.944910 0.422270 0.705410 -0.055003
N31   N     N_R   0.944910 0.577730 0.705410 -0.050614
N32   N     N_R   0.055090 0.422270 0.294590 -0.055006
Ni1   Ni    Ni4+2 0.382970 0.000000 0.629840 0.207293
Ni2   Ni    Ni4+2 0.617030 0.000000 0.370160 0.207285
Ni3   Ni    Ni4+2 0.882970 0.500000 0.629840 0.207297
Ni4   Ni    Ni4+2 0.117030 0.500000 0.370160 0.207288
Ni5   Ni    Ni4+2 0.514540 0.000000 0.629840 0.197206
Ni6   Ni    Ni4+2 0.485460 0.000000 0.370160 0.197209
Ni7   Ni    Ni4+2 0.014540 0.500000 0.629840 0.197206
Ni8   Ni    Ni4+2 0.985460 0.500000 0.370160 0.197211
N33   N     N_3   0.546779 0.091667 0.147060 -0.219332
H57   H     H_    0.530998 0.145928 0.135942 0.089669
H58   H     H_    0.501793 0.057053 0.202959 0.093789
N34   N     N_3   0.466370 0.856676 0.822522 -0.222043
H59   H     H_    0.506693 0.814517 0.776754 0.098757
H60   H     H_    0.486672 0.912659 0.818281 0.094665
N35   N     N_3   0.453222 0.091652 0.852939 -0.219328
H61   H     H_    0.469001 0.145912 0.864068 0.089652
H62   H     H_    0.498211 0.057045 0.797030 0.093798
N36   N     N_3   0.533621 0.856668 0.177491 -0.222048
H63   H     H_    0.493292 0.814516 0.223269 0.098760
H64   H     H_    0.513327 0.912653 0.181722 0.094662
N37   N     N_3   0.046779 0.591661 0.147061 -0.219330
H65   H     H_    0.030999 0.645922 0.135938 0.089662
H66   H     H_    0.001791 0.557050 0.202963 0.093793
N38   N     N_3   0.966371 0.356674 0.822520 -0.222044
H67   H     H_    0.006694 0.314516 0.776751 0.098760
H68   H     H_    0.986672 0.412657 0.818282 0.094664
N39   N     N_3   0.953224 0.591650 0.852937 -0.219330
H69   H     H_    0.969006 0.645910 0.864061 0.089654
H70   H     H_    0.998212 0.557042 0.797028 0.093794
N40   N     N_3   0.033631 0.356679 0.177473 -0.222046
H71   H     H_    0.993311 0.314515 0.223228 0.098741
H72   H     H_    0.013327 0.412661 0.181723 0.094663
N41   N     N_2   0.333298 0.749300 0.985629 -0.100151
H73   H     H_    0.333388 0.806008 0.012006 0.173626
C97   C     C_3   0.375758 0.693438 0.990458 -0.951114
H74   H     H_    0.359558 0.694928 0.075565 0.241679
H75   H     H_    0.432017 0.710075 0.928235 0.252605
H76   H     H_    0.369017 0.631294 0.973452 0.252108
N42   N     N_2   0.672425 0.222873 0.983295 -0.100939
H77   H     H_    0.628130 0.253032 0.048984 0.161043
C98   C     C_3   0.668658 0.199978 0.897667 -0.959290
H78   H     H_    0.654086 0.253051 0.873534 0.238772
H79   H     H_    0.628420 0.152665 0.929667 0.253441
H80   H     H_    0.719920 0.177435 0.821581 0.256272
N43   N     N_2   0.666635 0.749240 0.014443 -0.100162
H81   H     H_    0.666541 0.805937 0.988046 0.173630
C99   C     C_3   0.624144 0.693366 0.009703 -0.951127
H82   H     H_    0.640313 0.694821 0.924618 0.241693
H83   H     H_    0.567891 0.710015 0.071949 0.252601
H84   H     H_    0.630884 0.631231 0.026735 0.252117
N44   N     N_2   0.327576 0.222788 0.016780 -0.100957
H85   H     H_    0.371878 0.252951 0.951117 0.161023
C100  C     C_3   0.331326 0.199828 0.102407 -0.959168
H86   H     H_    0.345875 0.252877 0.126617 0.238789
H87   H     H_    0.371573 0.152521 0.070369 0.253421
H88   H     H_    0.280064 0.177248 0.178453 0.256271
N45   N     N_2   0.833299 0.249297 0.985625 -0.100155
H89   H     H_    0.833394 0.306004 0.012000 0.173624
C101  C     C_3   0.875754 0.193430 0.990451 -0.951147
H90   H     H_    0.859559 0.194919 0.075553 0.241702
H91   H     H_    0.932014 0.210060 0.928224 0.252609
H92   H     H_    0.869005 0.131287 0.973452 0.252114
N46   N     N_2   0.172427 0.722835 0.983259 -0.100949
H93   H     H_    0.128128 0.752996 0.048936 0.161032
C102  C     C_3   0.168670 0.699912 0.897627 -0.959197
H94   H     H_    0.154116 0.752976 0.873451 0.238782
H95   H     H_    0.128424 0.652606 0.929644 0.253420
H96   H     H_    0.219931 0.677347 0.821564 0.256271
N47   N     N_2   0.166667 0.249269 0.014406 -0.100157
H97   H     H_    0.166578 0.305972 0.988017 0.173631
C103  C     C_3   0.124191 0.193402 0.009621 -0.951135
H98   H     H_    0.140379 0.194871 0.924523 0.241686
H99   H     H_    0.067936 0.210049 0.071849 0.252600
H100  H     H_    0.130927 0.131263 0.026648 0.252115
N48   N     N_2   0.827580 0.722776 0.016788 -0.100959
H101  H     H_    0.871881 0.752942 0.951126 0.161027
C104  C     C_3   0.831336 0.699805 0.102406 -0.959155
H102  H     H_    0.845887 0.752849 0.126620 0.238786
H103  H     H_    0.871583 0.652497 0.070358 0.253423
H104  H     H_    0.780074 0.677222 0.178452 0.256268

loop_
_geom_bond_atom_site_label_1
_geom_bond_atom_site_label_2
_ccdc_geom_bond_type
C12   H44   S    
C65   C92   S    
C88   C96   S    
N21   Ni4   S    
C21   C29   D    
N2    N28   A    
C36   H12   S    
C53   C63   A    
C10   C74   S    
C85   H29   S    
N42   H77   S    
C18   C26   D    
C73   C90   S    
C80   C84   S    
C69   C96   S    
C34   C66   A    
N14   Ni8   S    
C87   H31   S    
C33   C65   A    
C40   H16   S    
C71   C94   S    
C44   H20   S    
N37   H65   S    
C19   C57   S    
C4    H4    S    
N15   Ni8   S    
N2    Ni2   S    
C102  H94   S    
N16   Ni7   S    
N36   H64   S    
C77   H37   S    
N42   C98   S    
C74   C89   S    
N15   N23   A    
C50   N26   A    
N17   Ni2   S    
C98   H79   S    
C53   N29   A    
C104  H103  S    
C34   N10   A    
C104  H102  S    
N29   Ni8   S    
N40   H72   S    
N12   Ni5   S    
N23   Ni3   S    
C86   H30   S    
C10   C94   S    
C78   C93   S    
N13   N21   A    
C101  H90   S    
C3    H3    S    
C55   C61   A    
C77   C94   S    
C88   H32   S    
C98   H80   S    
C46   H22   S    
C38   N14   A    
N45   H89   S    
C44   N20   A    
C11   H43   S    
C14   C90   S    
C42   N18   A    
C43   H19   S    
C29   H54   S    
C85   C93   S    
C42   H18   S    
C15   C79   S    
N20   Ni2   S    
C27   H52   S    
C101  H91   S    
C55   N39   S    
C87   C95   S    
C13   C86   S    
C16   C87   S    
C53   N37   S    
N44   H85   S    
C54   N30   A    
C25   H50   S    
C51   C57   A    
C35   C67   A    
C38   H14   S    
C86   C94   S    
C76   C88   S    
C37   H13   S    
C9    C82   S    
C81   C89   S    
C103  H99   S    
C47   H23   S    
C103  H100  S    
C23   N48   S    
N35   H61   S    
C2    N2    A    
C7    H7    S    
C100  H86   S    
C18   C60   S    
C48   H24   S    
N44   C100  S    
C50   N34   S    
C79   H39   S    
C48   C72   A    
C51   N27   A    
N8    N30   A    
N1    Ni1   S    
C75   H35   S    
N24   Ni4   S    
C49   N25   A    
N9    N17   A    
N37   H66   S    
C52   C58   A    
C7    N7    A    
C73   H33   S    
C102  H95   S    
N14   N22   A    
N36   H63   S    
N19   Ni1   S    
C45   C69   A    
C14   C78   S    
C34   H10   S    
C35   H11   S    
C47   N23   A    
C28   C31   S    
C33   H9    S    
C21   N46   S    
C1    H1    S    
C97   H74   S    
N47   C103  S    
N26   Ni5   S    
C43   N19   A    
N40   H71   S    
N38   H67   S    
C30   H53   S    
C41   C65   A    
N11   N19   A    
C20   C28   D    
N33   H58   S    
N41   H73   S    
N4    Ni1   S    
C41   N17   A    
C67   C90   S    
C35   N11   A    
C12   C83   S    
C19   N44   S    
C16   C80   S    
C23   C31   D    
N7    Ni4   S    
C48   N24   A    
C26   H49   S    
C33   N9    A    
C24   C32   D    
C43   C67   A    
N43   H81   S    
C17   N42   S    
C1    C57   A    
N22   Ni3   S    
C97   H75   S    
C8    H8    S    
C37   C69   A    
C78   C82   S    
N39   H69   S    
N10   N18   A    
C77   C81   S    
C101  H92   S    
C73   C85   S    
C4    C60   A    
C46   N22   A    
C98   H78   S    
N46   C102  S    
C5    C61   A    
N1    N27   A    
C99   H83   S    
C55   N31   A    
C82   C90   S    
C74   C86   S    
C80   C95   S    
C1    N1    A    
C78   H38   S    
C7    C63   A    
C49   N33   S    
C51   N35   S    
C75   C92   S    
C8    C64   A    
C15   H47   S    
C72   C93   S    
C75   C87   S    
C38   C70   A    
N39   H70   S    
C17   C59   S    
C16   C92   S    
C40   C72   A    
C54   N38   S    
C100  H87   S    
C13   C77   S    
C14   H46   S    
C40   N16   A    
C56   C62   A    
C44   C68   A    
C84   H28   S    
C3    N3    A    
C47   C71   A    
C20   C58   S    
N48   H101  S    
C4    N4    A    
C9    C93   S    
C12   C76   S    
N10   Ni6   S    
C46   C70   A    
C19   C27   D    
C68   C89   S    
C42   C66   A    
C45   H21   S    
C25   C30   S    
N16   N24   A    
C3    C59   A    
N32   Ni8   S    
C102  H96   S    
C24   C62   S    
C20   N43   S    
C22   C30   D    
N4    N26   A    
C16   H48   S    
C27   C32   S    
C9    H41   S    
C56   N40   S    
C13   H45   S    
C9    C73   S    
N25   Ni6   S    
N5    Ni3   S    
C14   C85   S    
C41   H17   S    
N34   H59   S    
N48   C104  S    
N3    Ni2   S    
N6    Ni4   S    
C6    N6    A    
C104  H104  S    
C37   N13   A    
N46   H93   S    
C2    C58   A    
C66   C91   S    
N31   Ni7   S    
C11   C84   S    
N41   C97   S    
C84   C92   S    
C10   C81   S    
C5    N5    A    
N27   Ni5   S    
C49   C59   A    
C5    H5    S    
C17   C25   D    
C13   C89   S    
C6    C62   A    
N9    Ni5   S    
C74   H34   S    
C52   N28   A    
C50   C60   A    
C79   C96   S    
N43   C99   S    
N28   Ni6   S    
C97   H76   S    
C79   C83   S    
C31   H56   S    
C76   H36   S    
N8    Ni3   S    
N47   H97   S    
C32   H55   S    
C54   C64   A    
C83   C91   S    
N18   Ni1   S    
C39   H15   S    
C80   H40   S    
N13   Ni7   S    
C70   C95   S    
N11   Ni6   S    
C52   N36   S    
C6    H6    S    
C56   N32   A    
C39   N15   A    
C24   N47   S    
N35   H62   S    
C21   C63   S    
N34   H60   S    
N12   N20   A    
C99   H84   S    
C76   C91   S    
C15   C91   S    
N7    N29   A    
N3    N25   A    
C45   N21   A    
C23   C61   S    
C11   C95   S    
C2    H2    S    
C26   C29   S    
N38   H68   S    
N33   H57   S    
N30   Ni7   S    
C100  H88   S    
C81   H25   S    
C99   H82   S    
C36   N12   A    
C39   C71   A    
C12   C96   S    
C11   C75   S    
C10   H42   S    
C22   C64   S    
N45   C101  S    
C18   N41   S    
N6    N32   A    
C36   C68   A    
C82   H26   S    
C22   N45   S    
C83   H27   S    
C103  H98   S    
N5    N31   A    
C15   C88   S    
C28   H51   S    
C8    N8    A    
