data_mof_unit_61298.cif
_audit_creation_date              2012-12-10T21:14:40-0500
_audit_creation_method            fapswitch 2.2
_symmetry_space_group_name_H-M    P1
_symmetry_Int_Tables_number       1
_space_group_crystal_system       triclinic
_cell_length_a                    17.657643
_cell_length_b                    16.837315
_cell_length_c                    11.553841
_cell_angle_alpha                 89.999794
_cell_angle_beta                  92.022504
_cell_angle_gamma                 89.999886
_cell_volume                      3432.90135696

loop_
_atom_site_label
_atom_site_type_symbol
_atom_type_description
_atom_site_fract_x
_atom_site_fract_y
_atom_site_fract_z
_atom_type_partial_charge
C1    C     C_R   0.353744 0.500000 0.511064 0.961522
C2    C     C_R   0.646257 0.500000 0.488944 0.961512
C3    C     C_R   0.768505 0.572848 0.460770 0.269679
C4    C     C_R   0.231488 0.427152 0.539126 0.269670
C5    C     C_R   0.231503 0.572849 0.539284 0.269674
C6    C     C_R   0.768521 0.427151 0.460940 0.269671
C7    C     C_R   0.728511 0.500000 0.469582 -0.287973
C8    C     C_R   0.271494 0.500000 0.530457 -0.287988
C9    C     C_R   0.886163 0.500018 0.482030 0.015375
C10   C     C_R   0.113842 0.500019 0.518087 0.015372
C11   C     C_1   0.966447 0.500028 0.494770 0.015343
C12   C     C_1   0.033556 0.500028 0.505363 0.015343
C13   C     C_R   0.499829 0.500000 0.281579 0.921091
C14   C     C_R   0.500171 0.500000 0.718421 0.921080
C15   C     C_R   0.452127 0.832977 0.423021 0.168791
C16   C     C_R   0.547857 0.167022 0.577001 0.168803
C17   C     C_R   0.547873 0.832977 0.576979 0.168792
C18   C     C_R   0.452143 0.167022 0.422999 0.168800
C19   C     C_R   0.452969 0.748699 0.424017 0.335315
C20   C     C_R   0.547016 0.251300 0.576005 0.335328
C21   C     C_R   0.547031 0.748698 0.575983 0.335317
C22   C     C_R   0.452983 0.251301 0.423996 0.335323
C23   C     C_1   0.500000 0.963621 0.500000 0.197773
C24   C     C_1   0.500000 0.036379 0.500000 0.197775
C25   C     C_1   0.499878 0.500000 0.161295 -0.092851
C26   C     C_1   0.500122 0.500000 0.838705 -0.092845
C27   C     C_1   0.499949 0.500000 0.059249 0.063304
C28   C     C_1   0.500051 0.500000 0.940751 0.063305
C29   C     C_R   0.500000 0.875950 0.500000 -0.144949
C30   C     C_R   0.500000 0.124050 0.500000 -0.144960
C31   C     C_R   0.847784 0.572993 0.473226 0.102799
C32   C     C_R   0.152213 0.427030 0.526662 0.102761
C33   C     C_R   0.152222 0.572994 0.526867 0.102803
C34   C     C_R   0.847794 0.427029 0.473444 0.102748
N1    N     N_R   0.500000 0.707230 0.500000 -0.174972
N2    N     N_R   0.500000 0.292770 0.500000 -0.174985
O1    O     O_R   0.389110 0.566570 0.499990 -0.563153
O2    O     O_R   0.610890 0.433430 0.500010 -0.563167
O3    O     O_R   0.610890 0.566570 0.500010 -0.563156
O4    O     O_R   0.389110 0.433430 0.499990 -0.563163
O5    O     O_R   0.500000 0.566540 0.334450 -0.585309
O6    O     O_R   0.500000 0.433460 0.665550 -0.585326
O7    O     O_R   0.500000 0.566540 0.665550 -0.585309
O8    O     O_R   0.500000 0.433460 0.334450 -0.585328
Zn1   Zn    Zn3+2 0.500000 0.588860 0.500000 1.083548
Zn2   Zn    Zn3+2 0.500000 0.411140 0.500000 1.083531
Br1   Br    Br    0.385360 0.889559 0.316224 -0.284170
Br2   Br    Br    0.614600 0.110440 0.683833 -0.284163
Br3   Br    Br    0.614639 0.889558 0.683776 -0.284172
Br4   Br    Br    0.385399 0.110441 0.316168 -0.284162
Br5   Br    Br    0.386479 0.693433 0.316158 -0.324124
Br6   Br    Br    0.613488 0.306565 0.683892 -0.324134
Br7   Br    Br    0.613520 0.693432 0.683844 -0.324134
Br8   Br    Br    0.386509 0.306566 0.316112 -0.324125
C35   C     C_3   0.892698 0.649900 0.478115 -0.739899
H1    H     H_    0.857495 0.703955 0.483518 0.286597
H2    H     H_    0.930537 0.650385 0.556900 0.227519
H3    H     H_    0.927553 0.654619 0.400311 0.237864
C36   C     C_3   0.107300 0.350126 0.521548 -0.739910
H4    H     H_    0.142509 0.296098 0.515776 0.286589
H5    H     H_    0.072545 0.345230 0.599435 0.237947
H6    H     H_    0.069371 0.349795 0.442862 0.227466
C37   C     C_3   0.107306 0.649901 0.521996 -0.739895
H7    H     H_    0.142506 0.703957 0.516572 0.286594
H8    H     H_    0.069451 0.650383 0.443229 0.227508
H9    H     H_    0.072468 0.654620 0.599818 0.237872
C38   C     C_3   0.892706 0.350125 0.478589 -0.739878
H10   H     H_    0.857491 0.296100 0.484380 0.286589
H11   H     H_    0.927464 0.345214 0.400704 0.237952
H12   H     H_    0.930633 0.349804 0.557282 0.227461
Br9   Br    Br    0.717964 0.670151 0.410893 -0.410505
Br10  Br    Br    0.281994 0.329798 0.588868 -0.410450
Br11  Br    Br    0.282051 0.670155 0.589129 -0.410509
Br12  Br    Br    0.718026 0.329797 0.411178 -0.410446

loop_
_geom_bond_atom_site_label_1
_geom_bond_atom_site_label_2
_ccdc_geom_bond_type
C34   C38   S    
C5    C8    A    
C3    Br9   S    
C11   C12   T    
C37   H8    S    
N1    Zn1   S    
N2    Zn2   S    
C6    C7    A    
C21   N1    A    
C6    Br12  S    
C1    O1    A    
C21   Br7   S    
C1    C8    S    
C17   C29   A    
C4    C8    A    
C2    O2    A    
C26   C28   T    
C2    C7    S    
C1    O4    A    
C15   Br1   S    
O3    Zn1   S    
C38   H12   S    
C31   C35   S    
C16   Br2   S    
C35   H1    S    
C13   O5    A    
C37   H9    S    
C36   H4    S    
C22   Br8   S    
C35   H2    S    
C19   N1    A    
C14   O6    A    
C14   C26   S    
C3    C31   A    
O4    Zn2   S    
O7    Zn1   S    
C13   C25   S    
C4    C32   A    
C10   C12   S    
C10   C32   A    
C18   C30   A    
C23   C29   S    
C16   C20   A    
O8    Zn2   S    
C15   C29   A    
C10   C33   A    
C3    C7    A    
C9    C11   S    
C5    Br11  S    
C9    C34   A    
C18   C22   A    
C24   C30   S    
C33   C37   S    
C36   H5    S    
C25   C27   T    
C9    C31   A    
C23   C24   T    
O1    Zn1   S    
C37   H7    S    
C20   N2    A    
C19   Br5   S    
C4    Br10  S    
C22   N2    A    
C18   Br4   S    
C20   Br6   S    
C38   H10   S    
O6    Zn2   S    
C35   H3    S    
C17   Br3   S    
C27   C28   S    
O5    Zn1   S    
C36   H6    S    
C32   C36   S    
O2    Zn2   S    
C15   C19   A    
C16   C30   A    
C2    O3    A    
C13   O8    A    
C17   C21   A    
C6    C34   A    
C14   O7    A    
C38   H11   S    
C5    C33   A    
