data_mof_unit_54493.cif
_audit_creation_date              2012-12-11T15:31:39-0500
_audit_creation_method            fapswitch 2.2
_symmetry_space_group_name_H-M    P1
_symmetry_Int_Tables_number       1
_space_group_crystal_system       triclinic
_cell_length_a                    13.575639
_cell_length_b                    13.589845
_cell_length_c                    27.672362
_cell_angle_alpha                 90.377238
_cell_angle_beta                  90.175849
_cell_angle_gamma                 119.97277
_cell_volume                      4422.31457782

loop_
_atom_site_label
_atom_site_type_symbol
_atom_type_description
_atom_site_fract_x
_atom_site_fract_y
_atom_site_fract_z
_atom_type_partial_charge
C1    C     C_R   0.619429 0.898530 0.431210 0.545638
C2    C     C_R   0.174430 0.924144 0.264456 -0.124597
C3    C     C_R   0.159350 0.917599 0.214291 -0.115937
C4    C     C_R   0.599610 0.218357 0.431250 0.544030
C5    C     C_R   0.166250 0.742928 0.212495 -0.100525
C6    C     C_R   0.181697 0.748502 0.262901 0.014888
C7    C     C_R   0.184820 0.839878 0.289071 0.041097
C8    C     C_R   0.155366 0.827111 0.188215 0.021625
C9    C     C_1   0.129569 0.814047 0.137222 -0.060021
C10   C     C_1   0.206103 0.851866 0.340546 -0.069319
C11   C     C_1   0.099362 0.795229 0.095493 -0.013533
C12   C     C_R   0.595477 0.240077 0.208482 -0.116087
C13   C     C_1   0.634223 0.867511 0.383270 -0.027461
C14   C     C_R   0.619728 0.732650 0.269628 -0.127723
C15   C     C_R   0.623392 0.719057 0.219697 -0.114404
C16   C     C_R   0.279503 0.878844 0.430551 0.544370
C17   C     C_R   0.688125 0.918805 0.208539 -0.099634
C18   C     C_R   0.685259 0.933920 0.258734 0.013625
C19   C     C_R   0.650853 0.839448 0.289493 0.039715
C20   C     C_R   0.657693 0.812015 0.189074 0.021890
C21   C     C_1   0.672308 0.799880 0.138263 -0.058372
C22   C     C_1   0.642895 0.850754 0.341058 -0.076253
C23   C     C_R   0.583666 0.223745 0.258422 -0.118129
C24   C     C_1   0.691227 0.788279 0.096685 -0.012608
C25   C     C_R   0.640192 0.278790 0.615293 0.024381
C26   C     C_R   0.721959 0.264868 0.640727 -0.126447
C27   C     C_R   0.734245 0.283503 0.690027 -0.123995
C28   C     C_R   0.620512 0.900712 0.568977 0.543472
C29   C     C_R   0.668127 0.320466 0.714301 0.038048
C30   C     C_R   0.595387 0.346362 0.688065 -0.120983
C31   C     C_R   0.580666 0.324615 0.638700 -0.130092
C32   C     C_R   0.575328 0.300637 0.793759 -0.121887
C33   C     C_R   0.583774 0.322691 0.843104 -0.131117
C34   C     C_R   0.662175 0.307159 0.290191 0.031620
C35   C     C_R   0.786174 0.389032 0.839963 -0.126619
C36   C     C_R   0.778294 0.370009 0.790675 -0.124266
C37   C     C_R   0.673681 0.329660 0.766965 0.037079
C38   C     C_R   0.690348 0.372035 0.865928 0.023634
C39   C     C_R   0.223902 0.863563 0.614926 0.023897
C40   C     C_R   0.601779 0.223015 0.568450 0.542333
C41   C     C_R   0.242414 0.958308 0.642629 -0.126777
C42   C     C_R   0.216089 0.946439 0.691396 -0.122388
C43   C     C_R   0.168886 0.839382 0.712910 0.036577
C44   C     C_R   0.141720 0.743260 0.684321 -0.119234
C45   C     C_R   0.686147 0.339841 0.190048 0.033259
C46   C     C_R   0.169754 0.755368 0.635619 -0.127600
C47   C     C_R   0.173311 0.753765 0.791576 -0.120455
C48   C     C_R   0.146429 0.735852 0.840349 -0.129263
C49   C     C_R   0.083769 0.874635 0.837916 -0.126425
C50   C     C_R   0.108984 0.891190 0.789107 -0.122543
C51   C     C_R   0.150765 0.828445 0.765269 0.036275
C52   C     C_R   0.279722 0.881540 0.568189 0.542726
C53   C     C_R   0.097922 0.793445 0.863410 0.022953
C54   C     C_R   0.638859 0.862122 0.615651 0.022852
C55   C     C_R   0.546577 0.770666 0.638543 -0.125473
C56   C     C_1   0.693477 0.362183 0.139018 -0.060728
C57   C     C_R   0.553072 0.750777 0.687217 -0.121842
C58   C     C_R   0.652630 0.820595 0.713554 0.037061
C59   C     C_R   0.748238 0.905792 0.689727 -0.120309
C60   C     C_R   0.741250 0.926857 0.641080 -0.129124
C61   C     C_R   0.712289 0.902652 0.796312 -0.119768
C62   C     C_R   0.724651 0.889524 0.845326 -0.128114
C63   C     C_R   0.614212 0.684769 0.835133 -0.127317
C64   C     C_1   0.630290 0.263488 0.383499 -0.024699
C65   C     C_R   0.603551 0.697850 0.786031 -0.122794
C66   C     C_R   0.655598 0.806803 0.766011 0.035377
C67   C     C_1   0.648163 0.288484 0.341450 -0.071458
C68   C     C_R   0.678967 0.780423 0.864656 0.023805
C69   C     C_R   0.049460 0.761172 0.048191 0.546374
C70   C     C_R   0.714306 0.435744 0.049717 0.545579
C71   C     C_R   0.723421 0.770827 0.049458 0.546284
C72   C     C_R   0.043868 0.755881 0.910483 0.542146
C73   C     C_R   0.707902 0.428357 0.912609 0.541063
C74   C     C_R   0.717239 0.765086 0.911882 0.540563
C75   C     C_R   0.753697 0.406341 0.271788 -0.119481
C76   C     C_R   0.765546 0.422681 0.221802 -0.112259
C77   C     C_3   0.721402 0.051419 0.278477 -0.253400
C78   C     C_1   0.701187 0.389358 0.097208 -0.014467
C79   C     C_3   0.842769 0.107563 0.299031 -0.290215
C80   C     C_3   0.880387 0.226138 0.318977 -0.444969
C81   C     C_3   0.193084 0.655874 0.287882 -0.259519
C82   C     C_3   0.317845 0.694900 0.299827 -0.284083
C83   C     C_3   0.327836 0.603957 0.327886 -0.440274
C84   C     C_1   0.232779 0.862588 0.382683 -0.024299
Cr1   Cr    Cr6+3 0.417720 0.831920 0.499820 1.013212
Cr2   Cr    Cr6+3 0.668190 0.085770 0.500360 1.013145
Cr3   Cr    Cr6+3 0.414060 0.082260 0.499840 1.019492
Cr4   Cr    Cr6+3 0.908000 0.821090 0.979770 1.021027
Cr5   Cr    Cr6+3 0.912420 0.571130 0.979880 1.019613
Cr6   Cr    Cr6+3 0.657970 0.566940 0.980940 1.022032
H1    H     H_    0.815256 0.471022 0.295971 0.109487
H2    H     H_    0.546836 0.379259 0.705954 0.099614
H3    H     H_    0.835543 0.500649 0.207935 0.115247
H4    H     H_    0.518162 0.337161 0.619532 0.123175
H5    H     H_    0.284955 0.042983 0.627629 0.133166
H6    H     H_    0.208944 0.707083 0.774154 0.103571
H7    H     H_    0.158754 0.673381 0.859378 0.125059
H8    H     H_    0.238220 0.021911 0.712698 0.100229
H9    H     H_    0.090532 0.948999 0.769599 0.101193
H10   H     H_    0.045903 0.919935 0.854724 0.133860
H11   H     H_    0.101911 0.659273 0.699932 0.102839
H12   H     H_    0.601224 0.636347 0.205020 0.120474
H13   H     H_    0.154046 0.681099 0.614773 0.123320
H14   H     H_    0.466401 0.719100 0.619840 0.130829
H15   H     H_    0.533128 0.175898 0.184364 0.113634
H16   H     H_    0.749917 0.987664 0.781873 0.104620
H17   H     H_    0.774501 0.964329 0.867615 0.123091
H18   H     H_    0.478133 0.684619 0.704713 0.099589
H19   H     H_    0.559723 0.622572 0.763434 0.101262
H20   H     H_    0.579315 0.599555 0.849113 0.134105
H21   H     H_    0.827258 0.958343 0.709057 0.100906
H22   H     H_    0.813867 0.997239 0.624138 0.124048
H23   H     H_    0.716694 0.990840 0.184673 0.107546
H24   H     H_    0.512947 0.146303 0.272296 0.113118
H25   H     H_    0.178073 0.995134 0.284106 0.112185
H26   H     H_    0.149508 0.982366 0.195928 0.115113
H27   H     H_    0.161769 0.672355 0.192122 0.107481
H28   H     H_    0.593134 0.659818 0.292794 0.111057
H29   H     H_    0.878175 0.281215 0.290026 0.159560
H30   H     H_    0.824026 0.221277 0.348972 0.173176
H31   H     H_    0.968763 0.264848 0.333104 0.138237
H32   H     H_    0.847850 0.055228 0.328550 0.177979
H33   H     H_    0.902319 0.114325 0.270036 0.160981
H34   H     H_    0.769366 0.229747 0.623549 0.132755
H35   H     H_    0.718504 0.105877 0.249315 0.145583
H36   H     H_    0.660914 0.046202 0.306712 0.152081
H37   H     H_    0.279423 0.584937 0.362132 0.162527
H38   H     H_    0.294638 0.524960 0.305847 0.146582
H39   H     H_    0.418315 0.634686 0.336921 0.150751
H40   H     H_    0.366994 0.712721 0.265784 0.170225
H41   H     H_    0.356209 0.774139 0.321924 0.178815
H42   H     H_    0.141325 0.630405 0.321349 0.148907
H43   H     H_    0.158311 0.578761 0.264410 0.129610
H44   H     H_    0.492876 0.265147 0.776312 0.101853
H45   H     H_    0.508640 0.307732 0.862700 0.124662
H46   H     H_    0.790689 0.262524 0.709354 0.098616
H47   H     H_    0.855529 0.393422 0.770910 0.099789
H48   H     H_    0.869625 0.426916 0.856696 0.134188
O1    O     O_R   0.302900 0.805360 0.446400 -0.512382
O2    O     O_R   0.638120 0.455970 0.034270 -0.506134
O3    O     O_R   0.667540 0.672320 0.030160 -0.493703
O4    O     O_R   0.522090 0.841370 0.450730 -0.496001
O5    O     O_R   0.814460 0.840990 0.926980 -0.520285
O6    O     O_R   0.001710 0.811400 0.930110 -0.504658
O7    O     O_R   0.023410 0.659800 0.926210 -0.521463
O8    O     O_R   0.806940 0.473170 0.931090 -0.506149
O9    O     O_R   0.633420 0.451310 0.927930 -0.521946
O10   O     O_R   0.663190 0.668000 0.931580 -0.503824
O11   O     O_3   0.826130 0.653050 0.980200 -0.244589
O12   O     O_R   0.657980 0.180990 0.549630 -0.505970
O13   O     O_R   0.693280 0.995650 0.447220 -0.509286
O14   O     O_R   0.657260 0.178740 0.451050 -0.499371
O15   O     O_R   0.502640 0.195380 0.446850 -0.505353
O16   O     O_R   0.319630 0.976590 0.450330 -0.492936
O17   O     O_R   0.303680 0.807790 0.552740 -0.520337
O18   O     O_R   0.522820 0.843620 0.549310 -0.503876
O19   O     O_R   0.694060 0.998080 0.553560 -0.521441
O20   O     O_R   0.503420 0.197810 0.553190 -0.521606
O21   O     O_R   0.320350 0.978840 0.548910 -0.504043
O22   O     O_3   0.499990 0.999990 0.500010 -0.242301
O23   O     O_R   0.819150 0.845650 0.033320 -0.507089
O24   O     O_R   0.006060 0.815720 0.028680 -0.493581
O25   O     O_R   0.028100 0.664460 0.032550 -0.507257
O26   O     O_R   0.811290 0.477490 0.029660 -0.494582

loop_
_geom_bond_atom_site_label_1
_geom_bond_atom_site_label_2
_ccdc_geom_bond_type
C25   C31   A    
C7    C10   S    
C74   O5    A    
C80   H30   S    
C70   O2    A    
C27   C29   A    
C41   C42   A    
C2    C7    A    
C83   H38   S    
C75   C76   A    
C63   C65   A    
C81   C82   S    
C17   H23   S    
C39   C41   A    
C54   C60   A    
C52   O17   A    
Cr5   O7    S    
C48   H7    S    
C12   C23   A    
C26   C27   A    
C29   C30   A    
C73   O9    A    
C45   C76   A    
C27   H46   S    
C74   O10   A    
C36   C37   A    
C83   H39   S    
C3    H26   S    
Cr2   O12   S    
C25   C40   S    
C30   C31   A    
C49   C53   A    
C70   C78   S    
C68   C74   S    
C72   O7    A    
C16   C84   S    
C17   C20   A    
C56   C78   T    
Cr3   O22   S    
C18   C19   A    
Cr1   O17   S    
C41   H5    S    
Cr6   O10   S    
C1    O4    A    
C63   C68   A    
C61   C66   A    
C58   C66   S    
C35   C36   A    
C45   C56   S    
C8    C9    S    
C14   H28   S    
C59   H21   S    
C47   H6    S    
Cr3   O15   S    
C1    O13   A    
Cr1   O22   S    
C82   H40   S    
C36   H47   S    
Cr1   O1    S    
Cr5   O26   S    
C75   H1    S    
C34   C75   A    
C71   O3    A    
C52   O21   A    
Cr5   O11   S    
C4    O15   A    
C80   H29   S    
C59   C60   A    
C6    C81   S    
Cr5   O8    S    
C26   H34   S    
Cr6   O11   S    
Cr5   O25   S    
C44   C46   A    
C50   C51   A    
C80   H31   S    
C77   C79   S    
C15   C20   A    
C4    O14   A    
C79   H32   S    
C64   C67   T    
C19   C22   S    
C69   O24   A    
C30   H2    S    
C3    C8    A    
C28   C54   S    
C81   H42   S    
C47   C51   A    
C62   H17   S    
C25   C26   A    
C79   H33   S    
C55   H14   S    
Cr4   O11   S    
C5    H27   S    
Cr1   O18   S    
Cr1   O4    S    
C43   C44   A    
Cr4   O5    S    
Cr6   O9    S    
C60   H22   S    
Cr2   O14   S    
C76   H3    S    
C2    H25   S    
C33   H45   S    
C47   C48   A    
C23   C34   A    
C35   C38   A    
C17   C18   A    
C50   H9    S    
Cr3   O16   S    
C40   O12   A    
C32   C37   A    
C61   H16   S    
C9    C11   T    
C65   H19   S    
C39   C46   A    
C65   C66   A    
C55   C57   A    
C16   O16   A    
C49   C50   A    
C16   O1    A    
C1    C13   S    
C42   C43   A    
C77   H35   S    
C40   O20   A    
C72   O6    A    
C54   C55   A    
C71   O23   A    
C14   C19   A    
C12   H15   S    
C69   O25   A    
C83   H37   S    
C12   C45   A    
C70   O26   A    
C34   C67   S    
C5    C8    A    
Cr6   O2    S    
C44   H11   S    
C11   C69   S    
C81   H43   S    
C6    C7    A    
C48   C53   A    
C31   H4    S    
C46   H13   S    
C4    C64   S    
C33   C38   A    
Cr3   O20   S    
C62   C68   A    
C73   O8    A    
C32   C33   A    
C63   H20   S    
C42   H8    S    
C2    C3    A    
C58   C59   A    
C35   H48   S    
Cr2   O13   S    
C23   H24   S    
C32   H44   S    
C43   C51   S    
C57   C58   A    
C5    C6    A    
C18   C77   S    
Cr4   O24   S    
C10   C84   T    
C28   O19   A    
Cr3   O21   S    
C13   C22   T    
C39   C52   S    
C15   H12   S    
C61   C62   A    
Cr2   O19   S    
Cr6   O3    S    
C79   C80   S    
C57   H18   S    
C20   C21   S    
C82   C83   S    
C21   C24   T    
C29   C37   S    
C28   O18   A    
C14   C15   A    
C82   H41   S    
C53   C72   S    
Cr2   O22   S    
Cr4   O6    S    
C77   H36   S    
Cr4   O23   S    
C24   C71   S    
C49   H10   S    
C38   C73   S    
