data_mof_unit_59543.cif
_audit_creation_date              2012-10-26T20:31:21-0400
_audit_creation_method            fapswitch 2.2
_symmetry_space_group_name_H-M    P1
_symmetry_Int_Tables_number       1
_space_group_crystal_system       triclinic
_cell_length_a                    11.701903
_cell_length_b                    10.834301
_cell_length_c                    9.55988
_cell_angle_alpha                 89.541362
_cell_angle_beta                  90.21676
_cell_angle_gamma                 89.996827
_cell_volume                      1211.97261852

loop_
_atom_site_label
_atom_site_type_symbol
_atom_type_description
_atom_site_fract_x
_atom_site_fract_y
_atom_site_fract_z
_atom_type_partial_charge
C1    C     C_R   0.503065 0.262789 0.500410 0.547568
C2    C     C_R   0.427140 0.425849 0.075104 0.372588
C3    C     C_R   0.427072 0.427064 0.925412 0.000172
C4    C     C_R   0.284044 0.498551 0.499840 0.536401
C5    C     C_R   0.564646 0.583157 0.925986 0.138602
C6    C     C_3   0.691258 0.597671 0.920474 -0.269315
C7    C     C_3   0.691365 0.597539 0.079223 -0.279221
C8    C     C_R   0.497688 0.737291 0.499153 0.525918
C9    C     C_R   0.715987 0.499689 0.500218 0.545021
C10   C     C_1   0.162393 0.496524 0.499736 -0.030128
C11   C     C_1   0.059923 0.495834 0.500100 -0.052390
C12   C     C_R   0.507016 0.130092 0.500199 -0.000469
C13   C     C_1   0.940149 0.496765 0.500500 -0.053968
C14   C     C_1   0.837677 0.498161 0.500601 -0.035635
C15   C     C_R   0.466816 0.061625 0.612530 -0.016910
C16   C     C_3   0.231385 0.829229 0.646876 0.028885
C17   C     C_3   0.184635 0.898425 0.518119 -0.273268
C18   C     C_3   0.137463 0.810068 0.408985 -0.483951
C19   C     C_3   0.355283 0.230708 0.123489 0.000178
C20   C     C_3   0.241497 0.181088 0.068456 -0.278018
C21   C     C_3   0.237988 0.040310 0.075964 -0.458944
C22   C     C_R   0.545347 0.065084 0.382033 -0.178453
C23   C     C_R   0.541103 0.935609 0.380702 -0.162490
C24   C     C_R   0.495146 0.870142 0.495732 -0.011897
C25   C     C_R   0.451976 0.938588 0.606037 0.010195
C26   C     C_3   0.392414 0.932691 0.745635 0.139352
C27   C     C_3   0.415284 0.072827 0.753442 -0.211117
C28   C     C_R   0.564732 0.583119 0.073013 0.111019
Cu1   Cu    Cu3+1 0.499990 0.499980 0.640670 0.924547
Cu2   Cu    Cu3+1 0.500010 0.500020 0.359330 0.982442
H1    H     H_    0.579143 0.113693 0.291788 0.122903
H2    H     H_    0.735143 0.515861 0.876260 0.157720
H3    H     H_    0.159826 0.777313 0.695671 0.151044
H4    H     H_    0.295474 0.758934 0.618230 0.153249
H5    H     H_    0.115273 0.961776 0.551250 0.173760
H6    H     H_    0.252725 0.955170 0.469091 0.169594
H7    H     H_    0.205784 0.746931 0.372672 0.165913
H8    H     H_    0.104762 0.863435 0.317663 0.146223
H9    H     H_    0.065761 0.755713 0.453559 0.156896
H10   H     H_    0.373056 0.185033 0.225414 0.175749
H11   H     H_    0.425926 0.203992 0.051697 0.082084
H12   H     H_    0.716831 0.687847 0.873993 0.127221
H13   H     H_    0.170240 0.218216 0.132205 0.184730
H14   H     H_    0.228801 0.212011 0.958463 0.151065
H15   H     H_    0.311920 0.000208 0.020108 0.176505
H16   H     H_    0.157822 0.006333 0.027164 0.173674
H17   H     H_    0.240713 0.008755 0.186747 0.137589
H18   H     H_    0.735282 0.515611 0.125003 0.156036
H19   H     H_    0.717056 0.687618 0.124461 0.124992
H20   H     H_    0.574575 0.887320 0.290915 0.131421
H21   H     H_    0.438270 0.877464 0.826705 0.120391
H22   H     H_    0.337122 0.131203 0.751294 0.160410
H23   H     H_    0.479831 0.098214 0.833729 0.084783
H24   H     H_    0.368411 0.368595 0.868686 0.116621
N1    N     N_R   0.500710 0.500930 0.147930 -0.221454
N2    N     N_R   0.500710 0.500890 0.852020 -0.259304
O1    O     O_R   0.500000 0.319640 0.618810 -0.505867
O2    O     O_3   0.345788 0.358994 0.148176 -0.536576
O3    O     O_R   0.500010 0.319680 0.381230 -0.489391
O4    O     O_R   0.337190 0.499990 0.618790 -0.514972
O5    O     O_R   0.337200 0.500030 0.381210 -0.439685
O6    O     O_R   0.499990 0.680320 0.618770 -0.508381
O7    O     O_R   0.500000 0.680360 0.381190 -0.506633
O8    O     O_R   0.662800 0.499970 0.618790 -0.497175
O9    O     O_R   0.662810 0.500010 0.381210 -0.505933
O10   O     O_3   0.271764 0.914812 0.746185 -0.581915

loop_
_geom_bond_atom_site_label_1
_geom_bond_atom_site_label_2
_ccdc_geom_bond_type
C6    H2    S    
C9    C14   S    
C2    O2    S    
C6    C7    S    
C8    C24   S    
C17   H6    S    
C1    O1    A    
C16   H3    S    
C5    C28   A    
Cu2   N1    S    
Cu2   O9    S    
C5    N2    A    
C15   C27   S    
C19   C20   S    
C12   C15   A    
C23   C24   A    
C10   C11   T    
C7    H18   S    
C4    O4    A    
C27   H23   S    
C2    C3    A    
C18   H8    S    
Cu1   O8    S    
C25   C26   S    
C26   H21   S    
C24   C25   A    
C11   C13   S    
C26   C27   S    
Cu1   Cu2   S    
C1    C12   S    
Cu1   N2    S    
C18   H7    S    
Cu1   O1    S    
C17   C18   S    
C21   H15   S    
C2    N1    A    
C1    O3    A    
C19   O2    S    
C6    H12   S    
C5    C6    S    
C3    H24   S    
C9    O9    A    
C15   C25   A    
C20   H14   S    
C16   O10   S    
C19   H10   S    
C8    O7    A    
C4    C10   S    
C9    O8    A    
C12   C22   A    
C20   H13   S    
C27   H22   S    
C7    H19   S    
C20   C21   S    
C21   H16   S    
C3    N2    A    
Cu2   O5    S    
C18   H9    S    
Cu1   O6    S    
C23   H20   S    
Cu2   O3    S    
C17   H5    S    
C13   C14   T    
C16   H4    S    
C22   H1    S    
Cu2   O7    S    
Cu1   O4    S    
C4    O5    A    
C28   N1    A    
C22   C23   A    
C7    C28   S    
C19   H11   S    
C8    O6    A    
C16   C17   S    
C21   H17   S    
C26   O10   S    
