data_mof_unit_44791.cif
_audit_creation_date              2013-03-05T16:19:33-0500
_audit_creation_method            fapswitch 2.2
_symmetry_space_group_name_H-M    P1
_symmetry_Int_Tables_number       1
_space_group_crystal_system       triclinic
_cell_length_a                    8.382428
_cell_length_b                    19.073019
_cell_length_c                    26.778369
_cell_angle_alpha                 99.602269
_cell_angle_beta                  93.578704
_cell_angle_gamma                 86.634256
_cell_volume                      4207.98573838

loop_
_atom_site_label
_atom_site_type_symbol
_atom_site_description
_atom_site_fract_x
_atom_site_fract_y
_atom_site_fract_z
_atom_type_partial_charge
P1    P     P_3+3 0.926760 0.336170 0.451740 0.462037
O1    O     O_2   0.103290 0.325410 0.465600 -0.372836
O2    O     O_3   0.857760 0.414170 0.470020 -0.400089
O3    O     O_3   0.374170 0.371120 0.556000 -0.388970
O4    O     O_2   0.297707 0.241878 0.519249 -0.414332
O5    O     O_3   0.913170 0.318873 0.385362 -0.560787
O6    O     O_3   0.371973 0.263344 0.617293 -0.519536
H1    H     H_    0.424884 0.361932 0.657520 0.098017
C1    C     C_3   0.457226 0.282124 0.705601 -0.974965
H2    H     H_    0.337345 0.296941 0.720600 0.267268
H3    H     H_    0.481488 0.223700 0.702286 0.266902
P2    P     P_3+3 0.399470 0.558680 0.614150 0.544716
P3    P     P_3+3 0.948554 0.418548 0.647528 0.525233
O7    O     O_2   0.227790 0.537410 0.620340 -0.294462
O8    O     O_3   0.969630 0.407570 0.582610 -0.339887
O9    O     O_2   0.039175 0.485045 0.670479 -0.317312
O10   O     O_3   0.316838 0.647377 0.624019 -0.524683
O11   O     O_3   0.058668 0.347340 0.668800 -0.551694
C2    C     C_3   0.997016 0.283930 0.641432 0.352988
H4    H     H_    0.042143 0.274055 0.602541 0.135659
H5    H     H_    0.864083 0.286725 0.638364 -0.001844
C3    C     C_3   0.048999 0.220739 0.668189 -0.422502
H6    H     H_    0.180983 0.213947 0.670122 0.251139
C4    C     C_3   0.845101 0.693596 0.647493 0.609757
H7    H     H_    0.741162 0.723336 0.633415 -0.016484
C5    C     C_3   0.912543 0.739557 0.696317 -0.090271
H8    H     H_    0.826450 0.743627 0.726537 0.197364
H9    H     H_    0.023687 0.712703 0.710041 0.139089
Ba1   Ba    Ba6+2 0.160260 0.465850 0.521400 1.624616
C6    C     C_3   0.964070 0.377216 0.366228 0.428389
H10   H     H_    0.093041 0.383258 0.376260 0.065576
H11   H     H_    0.894810 0.426945 0.381050 0.132917
C7    C     C_3   0.937480 0.363524 0.308785 -0.934303
H12   H     H_    0.013777 0.316861 0.292301 0.250810
H13   H     H_    0.967908 0.410698 0.292769 0.223780
H14   H     H_    0.809817 0.352990 0.298200 0.284848
C8    C     C_3   0.424583 0.701188 0.638447 0.236168
H15   H     H_    0.540895 0.676817 0.646957 0.047758
C9    C     C_3   0.369984 0.750378 0.687509 0.338087
H16   H     H_    0.238693 0.758968 0.683337 0.095807
P4    P     P_3+3 0.883550 0.663840 0.548300 0.566630
O12   O     O_2   0.707020 0.674640 0.534420 -0.414438
O13   O     O_3   0.952550 0.585840 0.530020 -0.304239
O14   O     O_3   0.436140 0.628890 0.444040 -0.313186
O15   O     O_3   0.959731 0.684327 0.611735 -0.570296
P5    P     P_3+3 0.859052 0.590060 0.352404 0.533862
O16   O     O_3   0.350480 0.462320 0.439870 -0.421603
O17   O     O_3   0.840680 0.592440 0.417430 -0.396585
O18   O     O_2   0.764055 0.526679 0.324198 -0.292583
O19   O     O_3   0.760433 0.667136 0.336088 -0.432204
Ba2   Ba    Ba6+2 0.649930 0.534160 0.478640 1.649324
P6    P     P_3+3 0.418369 0.281656 0.558230 0.413566
C10   C     C_3   0.467454 0.305252 0.654297 0.418486
H17   H     H_    0.595152 0.299087 0.645014 0.013688
H18   H     H_    0.547731 0.309368 0.732831 0.272729
O20   O     O_3   0.459840 0.537690 0.560170 -0.357295
C11   C     C_3   0.473091 0.315182 0.405616 0.441121
H19   H     H_    0.593116 0.334516 0.418468 0.084041
H20   H     H_    0.389667 0.330128 0.436674 0.134961
C12   C     C_3   0.485150 0.234379 0.392815 -0.990182
H21   H     H_    0.573787 0.217286 0.363505 0.270376
H22   H     H_    0.523698 0.211305 0.427266 0.222384
H23   H     H_    0.366647 0.214044 0.378382 0.266931
P7    P     P_3+3 0.405643 0.436271 0.377309 0.475317
O21   O     O_2   0.582520 0.462630 0.379680 -0.318867
O22   O     O_3   0.416982 0.343260 0.362268 -0.575720
H24   H     H_    0.007633 0.231414 0.707538 0.212936
C13   C     C_3   0.835499 0.726057 0.364687 0.503167
H25   H     H_    0.804009 0.732524 0.404988 0.109643
H26   H     H_    0.967238 0.719852 0.362569 -0.018538
C14   C     C_3   0.782546 0.793798 0.343821 -0.981700
H27   H     H_    0.659887 0.812008 0.354582 0.271417
H28   H     H_    0.863621 0.836892 0.359893 0.218132
H29   H     H_    0.786382 0.784594 0.301850 0.275531
P8    P     P_3+3 0.388148 0.717219 0.439596 0.451309
C15   C     C_3   0.354379 0.719571 0.342064 0.846544
H30   H     H_    0.237851 0.703291 0.352552 -0.182984
O23   O     O_2   0.493219 0.757373 0.483156 -0.440742
O24   O     O_3   0.460814 0.739039 0.384478 -0.569905
H31   H     H_    0.286041 0.831381 0.344036 0.183897
C16   C     C_3   0.319144 0.784742 0.315131 -0.549849
H32   H     H_    0.428473 0.797703 0.297790 0.233629
C17   C     C_R   0.940731 0.796755 0.516902 -0.326313
H33   H     H_    0.866036 0.819594 0.547477 0.189455
C18   C     C_R   0.978458 0.722432 0.510737 0.300694
C19   C     C_R   0.103165 0.804975 0.447345 -0.368130
H34   H     H_    0.136443 0.829421 0.416274 0.133912
C20   C     C_R   0.176453 0.738637 0.452965 0.191754
C21   C     C_R   0.694707 0.188656 0.543513 -0.337340
H35   H     H_    0.658767 0.162678 0.573541 0.142865
C22   C     C_R   0.624277 0.256087 0.539876 0.222348
C23   C     C_R   0.854407 0.198928 0.473519 -0.316893
H36   H     H_    0.926569 0.177113 0.441999 0.153545
C24   C     C_R   0.822663 0.273460 0.482920 0.316750
C25   C     C_R   0.996410 0.840183 0.483304 0.109537
C26   C     C_R   0.103732 0.694956 0.480610 -0.368306
H37   H     H_    0.153546 0.641680 0.482139 0.161999
C27   C     C_R   0.799726 0.154363 0.506430 0.095935
C28   C     C_R   0.699991 0.300743 0.514146 -0.448249
H38   H     H_    0.656008 0.355493 0.515637 0.155667
C29   C     C_R   0.209650 0.954638 0.460866 -0.196774
C30   C     C_R   0.302212 0.003910 0.444813 -0.119117
C31   C     C_R   0.262518 0.075533 0.457904 -0.095871
C32   C     C_R   0.125468 0.096530 0.483907 -0.169126
C33   C     C_R   0.007241 0.048080 0.487306 0.060848
C34   C     C_R   0.053409 0.973225 0.477966 0.104793
C35   C     C_R   0.850251 0.073894 0.501711 -0.076652
C36   C     C_R   0.743034 0.021404 0.509850 0.103166
C37   C     C_R   0.789200 0.946656 0.500626 0.065986
C38   C     C_R   0.946280 0.920685 0.486609 -0.056577
C39   C     C_R   0.586152 0.040158 0.526207 -0.191891
C40   C     C_R   0.493370 0.991246 0.542381 -0.084167
C41   C     C_R   0.533433 0.919724 0.529532 -0.070215
C42   C     C_R   0.670569 0.898405 0.503610 -0.166776
H39   H     H_    0.270555 0.904190 0.462157 0.144948
H40   H     H_    0.416225 0.987080 0.428637 0.135721
H41   H     H_    0.344344 0.114602 0.451563 0.143537
H42   H     H_    0.112798 0.151189 0.501210 0.180747
H43   H     H_    0.525432 0.090507 0.524176 0.148633
H44   H     H_    0.378934 0.008129 0.558261 0.139642
H45   H     H_    0.451390 0.881227 0.535909 0.152049
H46   H     H_    0.683640 0.843800 0.486027 0.181274
C43   C     C_R   0.401499 0.491710 0.191088 0.595826
O25   O     O_2   0.494756 0.469320 0.222323 -0.548225
N1    N     N_R   0.252763 0.523104 0.205051 -0.166729
C44   C     C_R   0.157401 0.554619 0.169488 0.516244
C45   C     C_2   0.105365 0.576913 0.281130 -0.138389
C46   C     C_3   0.074809 0.582032 0.337020 0.058061
C47   C     C_1   0.264106 0.479364 0.336451 0.280938
C48   C     C_2   0.264107 0.466634 0.286596 -0.187069
C49   C     C_2   0.200663 0.523114 0.256620 0.168652
C50   C     C_R   0.360098 0.524314 0.107324 -0.069148
C51   C     C_R   0.448991 0.486301 0.141023 -0.070745
C52   C     C_R   0.584957 0.444449 0.124156 -0.042661
C53   C     C_R   0.216369 0.561100 0.122247 -0.048617
C54   C     C_2   0.159080 0.523928 0.361167 -0.362190
H47   H     H_    0.302141 0.414117 0.267501 0.146383
H48   H     H_    0.656723 0.414828 0.149378 0.163362
C55   C     C_2   0.618066 0.465531 0.641958 -0.245753
C56   C     C_R   0.571687 0.468159 0.987668 0.068380
C57   C     C_R   0.410279 0.578671 0.981383 -0.126602
C58   C     C_R   0.512068 0.521349 0.959246 0.072199
C59   C     C_R   0.657029 0.407826 0.962636 -0.218705
C60   C     C_R   0.680649 0.400066 0.910840 -0.074841
C61   C     C_R   0.630370 0.454586 0.883211 -0.017432
C62   C     C_R   0.553839 0.516883 0.908310 -0.068532
C63   C     C_R   0.519952 0.574703 0.882622 -0.149407
C64   C     C_R   0.570777 0.570250 0.832925 0.588756
N2    N     N_R   0.617506 0.505190 0.805142 -0.173594
C65   C     C_R   0.650038 0.447453 0.830637 0.482720
C66   C     C_2   0.751017 0.457870 0.727803 -0.070453
C67   C     C_3   0.743211 0.427867 0.672301 0.031494
C68   C     C_1   0.509149 0.512500 0.664163 0.178856
C69   C     C_2   0.491271 0.521720 0.714952 0.056632
C70   C     C_2   0.626768 0.496548 0.749710 0.147122
O26   O     O_2   0.693148 0.389390 0.807587 -0.620723
C71   C     C_R   0.539646 0.476347 0.039744 0.043872
C72   C     C_R   0.414291 0.524737 0.058245 0.098136
C73   C     C_R   0.340703 0.572431 0.027589 0.070308
C74   C     C_R   0.625938 0.437328 0.073780 -0.203498
H49   H     H_    0.851636 0.440470 0.751008 0.155835
H50   H     H_    0.740801 0.351545 0.892635 0.172183
H51   H     H_    0.698126 0.364035 0.981809 0.138324
H52   H     H_    0.729501 0.403207 0.062626 0.132640
O27   O     O_2   0.020124 0.575847 0.178253 -0.581067
C75   C     C_R   0.132496 0.601560 0.088838 -0.088121
H53   H     H_    0.065060 0.622669 0.263905 0.156698
H54   H     H_    0.019430 0.629341 0.098638 0.179148
C76   C     C_R   0.382934 0.638726 0.956074 0.293529
C77   C     C_R   0.439358 0.636037 0.907417 -0.133029
O28   O     O_2   0.573874 0.624293 0.814523 -0.481529
C78   C     C_R   0.195415 0.608443 0.042829 -0.112837
H55   H     H_    0.419156 0.682304 0.888806 0.228250
H56   H     H_    0.124894 0.639353 0.018309 0.161633
H57   H     H_    0.125938 0.518293 0.398771 0.138851
H58   H     H_    0.605174 0.443367 0.601991 0.139409
N3    N     N_R   0.945571 0.811812 0.689430 0.270582
O29   O     O_R   0.000923 0.855985 0.728072 -0.270892
O30   O     O_R   0.913331 0.834131 0.646398 -0.402606
C79   C     C_3   0.427664 0.742279 0.593444 -0.322025
C80   C     C_3   0.279322 0.791415 0.587270 -0.847646
H59   H     H_    0.288000 0.842959 0.613030 0.283028
H60   H     H_    0.268506 0.803641 0.548353 0.247905
H61   H     H_    0.170083 0.765991 0.594577 0.292285
H62   H     H_    0.534475 0.774680 0.596583 0.204731
H63   H     H_    0.433103 0.702197 0.558430 0.262154
N4    N     N_R   0.440010 0.820314 0.695743 0.236054
O31   O     O_R   0.593997 0.825688 0.697311 -0.374234
O32   O     O_R   0.349169 0.877598 0.707805 -0.316109
N5    N     N_R   0.408778 0.716778 0.731977 0.227525
O33   O     O_R   0.299973 0.714739 0.764203 -0.375694
O34   O     O_R   0.557748 0.703040 0.744878 -0.330415
N6    N     N_R   0.428077 0.659133 0.308876 0.232058
O35   O     O_R   0.462403 0.600321 0.326509 -0.327547
O36   O     O_R   0.474133 0.664610 0.264193 -0.401301
C81   C     C_3   0.181728 0.773423 0.274315 -0.311471
C82   C     C_3   0.138629 0.841252 0.252275 -0.778575
H64   H     H_    0.098347 0.884758 0.282490 0.248211
H65   H     H_    0.243676 0.857981 0.234686 0.268425
H66   H     H_    0.039851 0.831348 0.222753 0.255412
H67   H     H_    0.215622 0.730303 0.243010 0.244976
H68   H     H_    0.074292 0.757668 0.290957 0.196856
C83   C     C_3   0.980011 0.151626 0.639740 -0.426671
C84   C     C_3   0.046421 0.087114 0.662594 -0.678616
H69   H     H_    0.178576 0.081320 0.660244 0.249667
H70   H     H_    0.015808 0.092851 0.702895 0.267986
H71   H     H_    0.993469 0.038200 0.641159 0.255040
H72   H     H_    0.847743 0.155174 0.641653 0.218765
H73   H     H_    0.010607 0.143744 0.599316 0.219335
N7    N     N_R   0.317659 0.705752 0.981246 0.233859
O37   O     O_R   0.227981 0.746901 0.955726 -0.342443
O38   O     O_R   0.368283 0.730787 0.027352 -0.357949
C85   C     C_3   0.328117 0.539910 0.736711 -0.296783
C86   C     C_3   0.260978 0.475874 0.754427 -0.811329
H74   H     H_    0.265010 0.428890 0.723980 0.284716
H75   H     H_    0.329842 0.462032 0.788371 0.225110
H76   H     H_    0.135452 0.488803 0.765025 0.269313
H77   H     H_    0.333764 0.583224 0.769366 0.245898
H78   H     H_    0.242794 0.562111 0.709863 0.250601
N8    N     N_R   0.807689 0.623349 0.657385 0.188691
O39   O     O_R   0.786169 0.572477 0.619245 -0.387308
O40   O     O_R   0.817780 0.608111 0.703123 -0.420189

loop_
_geom_bond_atom_site_label_1
_geom_bond_atom_site_label_2
_geom_bond_distance
_ccdc_geom_bond_type
C52   C74   1.395525 A    
C83   C84   1.525334 S    
C20   C26   1.391195 A    
C75   C78   1.398754 A    
N5    O33   1.300643 A    
P2    Ba1   3.413547 S    
C82   H66   1.110435 S    
P4    O12   1.513713 D    
C58   C62   1.416904 A    
C63   C64   1.410169 A    
C15   O24   1.412638 S    
C25   C38   1.557392 S    
C11   O22   1.401830 S    
C44   O27   1.220841 D    
C7    H14   1.110967 S    
N8    O40   1.301796 A    
C61   C62   1.404624 A    
C85   H78   1.099798 S    
C23   C27   1.433656 A    
C43   O25   1.221241 D    
C10   H17   1.109111 S    
C33   C35   1.430698 A    
P5    O18   1.548975 D    
C5    H8    1.107740 S    
C71   C72   1.414209 A    
C3    C83   1.533585 S    
O3    P6    1.734778 S    
C12   H23   1.110780 S    
C4    O15   1.381978 S    
C74   H52   1.080514 S    
P5    C46   1.871769 S    
C2    H5    1.111001 S    
C56   C58   1.417317 A    
O6    P6    1.746932 S    
Ba2   O20   2.771768 S    
C46   C54   1.495118 S    
Ba2   O21   2.810776 S    
C6    H10   1.105553 S    
H31   C16   1.111543 S    
C18   C26   1.388630 A    
C86   H75   1.107160 S    
C11   H20   1.109985 S    
C55   C68   1.335540 D    
C59   C60   1.395437 A    
C45   C49   1.366157 D    
C55   C67   1.508831 S    
C64   O28   1.216617 D    
C36   C37   1.439783 A    
C39   H43   1.068076 S    
O11   C2    1.413263 S    
C76   C77   1.405646 A    
C82   H65   1.110819 S    
C32   C33   1.411099 A    
C57   C73   1.425702 A    
O17   Ba2   2.760909 S    
C39   C40   1.387382 A    
C13   H25   1.112133 S    
C66   H49   1.085425 S    
P2    O10   1.774151 S    
C66   C67   1.499730 S    
C56   C59   1.411077 A    
O4    P6    1.543480 D    
C1    H18   1.108182 S    
C66   C70   1.347134 D    
C21   C22   1.399132 A    
C1    H2    1.109125 S    
P2    C68   1.886632 S    
O3    Ba1   2.703474 S    
N6    O35   1.298398 A    
C63   C77   1.403500 A    
O12   Ba2   2.892291 S    
C9    N4    1.466317 S    
N1    C44   1.395248 Am   
C54   H57   1.085013 S    
C65   O26   1.220969 D    
Ba1   O13   2.779996 S    
C75   H54   1.083330 S    
P4    O13   1.574402 S    
C55   H58   1.084341 S    
C31   H41   1.082281 S    
C69   C85   1.518757 S    
C59   H51   1.080315 S    
N8    O39   1.297710 A    
C78   H56   1.080702 S    
O8    Ba1   2.760266 S    
C32   H42   1.069946 S    
C15   H30   1.108323 S    
C80   H60   1.102468 S    
P5    O17   1.750471 S    
C73   C78   1.411328 A    
C62   C63   1.400710 A    
C19   C20   1.400599 A    
P1    O5    1.750658 S    
C6    H11   1.110271 S    
C29   C30   1.389959 A    
C2    C3    1.530804 S    
C30   H40   1.083198 S    
C4    H7    1.093274 S    
C15   N6    1.464045 S    
C9    H16   1.104581 S    
C14   H28   1.110725 S    
C9    N5    1.454692 S    
O2    Ba2   2.780582 S    
C86   H74   1.106843 S    
P1    C24   1.853594 S    
C11   C12   1.520754 S    
O16   Ba2   2.976565 S    
N6    O36   1.302213 A    
C80   H59   1.106123 S    
O5    C6    1.398611 S    
C16   H32   1.111139 S    
C27   C35   1.554525 S    
C12   H21   1.110559 S    
P1    O2    1.574404 S    
P7    O22   1.750695 S    
H1    C10   1.109454 S    
O14   P8    1.730769 S    
C8    H15   1.083033 S    
C56   C71   1.417883 A    
C47   C54   1.316341 D    
N1    C49   1.474075 S    
C28   H38   1.081981 S    
C84   H71   1.111321 S    
C85   C86   1.529985 S    
C35   C36   1.435413 A    
C17   C25   1.435214 A    
C26   H37   1.081905 S    
C57   C76   1.425711 A    
C7    H12   1.110548 S    
C11   H19   1.106640 S    
C41   H45   1.075654 S    
O10   C8    1.396911 S    
C64   N2    1.384942 Am   
C1    H3    1.110687 S    
C69   C70   1.529697 S    
P2    O20   1.542818 S    
C79   H63   1.108028 S    
C37   C42   1.408582 A    
C4    N8    1.463484 S    
O14   Ba2   2.702869 S    
C13   H26   1.107667 S    
C17   C18   1.418640 A    
Ba1   O16   2.772444 S    
C44   C53   1.413267 A    
N7    O37   1.301385 A    
C71   C74   1.410147 A    
N7    O38   1.301599 A    
P3    O8    1.734844 S    
C51   C52   1.406179 A    
C29   H39   1.067178 S    
C17   H33   1.079412 S    
C1    C10   1.520084 S    
O6    C10   1.404738 S    
O7    Ba1   2.810688 S    
C81   H68   1.107469 S    
C45   C46   1.520273 S    
C21   H35   1.078636 S    
O16   P7    1.749080 S    
O2    Ba1   2.949543 S    
C79   C80   1.530044 S    
C40   H44   1.083347 S    
C41   C42   1.385357 A    
C34   C38   1.439830 A    
C5    N3    1.464872 S    
C29   C34   1.420134 A    
C8    C79   1.545502 S    
C82   H64   1.111058 S    
N5    O34   1.298182 A    
C80   H61   1.103665 S    
C6    C7    1.521220 S    
C60   H50   1.083380 S    
P3    O11   1.751082 S    
C19   H34   1.077567 S    
C61   C65   1.410729 A    
P3    C67   1.871293 S    
P2    O7    1.543960 D    
C81   C82   1.525058 S    
C86   H76   1.109938 S    
C15   C16   1.543322 S    
C52   H48   1.083472 S    
C14   H29   1.110425 S    
C85   H77   1.098986 S    
C13   C14   1.523520 S    
Ba1   O20   2.977490 S    
P7    C47   1.817603 S    
P4    C18   1.863570 S    
C33   C34   1.441807 A    
P5    O19   1.749819 S    
C5    H9    1.108774 S    
C36   C39   1.419004 A    
C21   C27   1.419056 A    
C60   C61   1.404510 A    
C22   C28   1.384507 A    
P7    O21   1.587510 D    
C2    H4    1.112880 S    
C48   C49   1.501846 S    
C47   C48   1.316498 D    
C14   H27   1.105661 S    
C8    C9    1.558576 S    
N2    C65   1.394803 Am   
C12   H22   1.109366 S    
C84   H70   1.111025 S    
C81   H67   1.110017 S    
C4    C5    1.543045 S    
O13   Ba2   2.950400 S    
C23   C24   1.414062 A    
C72   C73   1.414894 A    
P8    O24   1.752035 S    
C24   C28   1.388055 A    
C50   C53   1.403860 A    
C76   N7    1.436809 S    
P1    O1    1.513513 D    
C23   H36   1.080948 S    
C7    H13   1.108089 S    
C53   C75   1.406519 A    
N3    O30   1.301302 A    
C50   C51   1.402181 A    
C83   H72   1.110678 S    
C40   C41   1.376975 A    
N2    C70   1.472349 S    
C30   C31   1.378835 A    
P8    O23   1.541381 D    
C50   C72   1.418523 A    
C3    H24   1.112511 S    
N4    O32   1.301227 A    
C43   N1    1.395930 Am   
C79   H62   1.108525 S    
Ba1   Ba2   4.644235 S    
C42   H46   1.071346 S    
P8    C20   1.841025 S    
N4    O31   1.298360 A    
O1    Ba1   2.891642 S    
C84   H69   1.111464 S    
C43   C51   1.407870 A    
C45   H53   1.081076 S    
N3    O29   1.300380 A    
P3    O9    1.535631 D    
C37   C38   1.429365 A    
C31   C32   1.384863 A    
P4    O15   1.765907 S    
C3    H6    1.105318 S    
C83   H73   1.111770 S    
P6    C22   1.840000 S    
P1    Ba1   3.464349 S    
C19   C25   1.414301 A    
C68   C69   1.358552 D    
C57   C58   1.418495 A    
C48   H47   1.085544 S    
O19   C13   1.407534 S    
P4    Ba2   3.464926 S    
C16   C81   1.536670 S    
C77   H55   1.083696 S    
