data_mof_unit_23137.cif
_audit_creation_date              2012-12-11T17:08:33-0500
_audit_creation_method            fapswitch 2.2
_symmetry_space_group_name_H-M    P1
_symmetry_Int_Tables_number       1
_space_group_crystal_system       triclinic
_cell_length_a                    6.986226
_cell_length_b                    14.487908
_cell_length_c                    16.119141
_cell_angle_alpha                 90.020613
_cell_angle_beta                  89.810846
_cell_angle_gamma                 90.069052
_cell_volume                      1631.50156544

loop_
_atom_site_label
_atom_site_type_symbol
_atom_type_description
_atom_site_fract_x
_atom_site_fract_y
_atom_site_fract_z
_atom_type_partial_charge
O1    O     O_R   0.505700 0.583890 0.413310 -0.530778
O2    O     O_R   0.175960 0.594920 0.586080 -0.510774
O3    O     O_R   0.005660 0.416110 0.586690 -0.543624
C1    C     C_R   0.344689 0.618241 0.613761 0.729693
O4    O     O_R   0.175980 0.594920 0.413930 -0.550395
O5    O     O_R   0.005680 0.416110 0.413310 -0.547409
C2    C     C_R   0.345137 0.616784 0.385171 0.701411
O6    O     O_R   0.505680 0.583890 0.586690 -0.536705
O7    O     O_3   0.339200 0.441330 0.500000 -0.392582
V1    V     V_3+5 0.064350 0.510880 0.500000 1.396015
O8    O     O_R   0.675960 0.405080 0.413920 -0.537763
C3    C     C_R   0.844984 0.383524 0.384918 0.689267
O9    O     O_R   0.675940 0.405080 0.586070 -0.551633
C4    C     C_R   0.844795 0.381023 0.613178 0.683064
V2    V     V_3+5 0.564340 0.489120 0.500000 1.374067
O10   O     O_3   0.839360 0.558670 0.500000 -0.365755
C5    C     C_R   0.021241 0.303088 0.728479 0.029535
C6    C     C_R   0.854801 0.312702 0.681868 -0.073130
C7    C     C_R   0.701354 0.254579 0.702248 -0.173406
H1    H     H_    0.578842 0.252424 0.663109 0.132662
C8    C     C_R   0.712020 0.192538 0.769067 -0.168579
H2    H     H_    0.594583 0.145266 0.779398 0.129876
C9    C     C_R   0.877515 0.186844 0.818337 -0.074322
C10   C     C_R   0.030645 0.245617 0.798353 0.027605
C11   C     C_3   0.229066 0.216596 0.777196 -0.412567
C12   C     C_3   0.208765 0.269435 0.696642 0.302503
H3    H     H_    0.243687 0.140622 0.769097 0.187564
H4    H     H_    0.334116 0.248015 0.820500 0.129419
H5    H     H_    0.311846 0.327320 0.688382 0.030291
C13   C     C_R   0.725101 0.183841 0.240424 0.067240
C14   C     C_R   0.881389 0.182232 0.185626 -0.127850
C15   C     C_R   0.033457 0.243474 0.201840 -0.117056
H6    H     H_    0.156481 0.245108 0.161134 0.136739
C16   C     C_R   0.022826 0.307621 0.267387 -0.182948
H7    H     H_    0.139191 0.355986 0.275711 0.126529
C17   C     C_R   0.858268 0.313652 0.317891 -0.101459
C18   C     C_R   0.712363 0.249266 0.303938 0.058672
C19   C     C_3   0.504877 0.266029 0.288519 -0.399131
C20   C     C_3   0.517010 0.192995 0.220915 0.029920
H8    H     H_    0.478743 0.336454 0.263660 0.143637
H9    H     H_    0.413050 0.246808 0.342088 0.181903
H10   H     H_    0.489010 0.219303 0.157281 0.129128
C21   C     C_R   0.526757 0.706178 0.721700 0.039508
C22   C     C_R   0.356025 0.691552 0.678165 -0.202739
C23   C     C_R   0.201382 0.752109 0.696070 0.385934
C24   C     C_R   0.213631 0.814260 0.763719 -0.279192
H11   H     H_    0.090043 0.856296 0.778581 0.145578
C25   C     C_R   0.380488 0.820338 0.812660 -0.138772
C26   C     C_R   0.539114 0.768639 0.786834 0.103328
C27   C     C_3   0.673233 0.707498 0.833973 0.024264
C28   C     C_3   0.658214 0.638965 0.762378 -0.357046
H12   H     H_    0.818483 0.737692 0.842397 0.127845
H13   H     H_    0.585189 0.573013 0.778431 0.164200
H14   H     H_    0.794485 0.630637 0.727553 0.190211
C29   C     C_R   0.510750 0.746582 0.309395 0.067321
C30   C     C_R   0.354677 0.686658 0.317959 -0.070919
C31   C     C_R   0.208182 0.693712 0.259118 -0.189174
H15   H     H_    0.092382 0.645336 0.261608 0.126366
C32   C     C_R   0.218714 0.757410 0.193223 -0.183694
H16   H     H_    0.106440 0.757693 0.147157 0.129992
C33   C     C_R   0.376962 0.816973 0.184747 -0.127573
C34   C     C_R   0.518684 0.812622 0.245969 0.099834
C35   C     C_3   0.728034 0.799931 0.233795 -0.017535
C36   C     C_3   0.716320 0.721672 0.297303 0.027487
H17   H     H_    0.769597 0.780210 0.169495 0.124467
H18   H     H_    0.805478 0.731050 0.353822 0.130194
O11   O     O_R   0.229000 0.916070 0.913330 -0.539060
O12   O     O_R   0.558770 0.905070 0.086080 -0.548597
O13   O     O_R   0.729000 0.083900 0.086690 -0.545539
C37   C     C_R   0.389588 0.882973 0.114635 0.690043
O14   O     O_R   0.558720 0.905070 0.913930 -0.545569
O15   O     O_R   0.728960 0.083900 0.913310 -0.541374
C38   C     C_R   0.390084 0.883686 0.884825 0.722423
O16   O     O_R   0.229050 0.916070 0.086710 -0.535291
O17   O     O_3   0.395460 0.058650 0.000020 -0.371993
V3    V     V_3+5 0.670340 0.989120 0.000000 1.373450
O18   O     O_R   0.058670 0.094960 0.913900 -0.540362
C39   C     C_R   0.889978 0.117172 0.885482 0.691871
O19   O     O_R   0.058720 0.094960 0.086050 -0.532262
C40   C     C_R   0.889821 0.116750 0.114896 0.694950
V4    V     V_3+5 0.170330 0.010930 0.999970 1.398501
O20   O     O_3   0.895340 0.941350 0.999980 -0.373070
N1    N     N_3   0.407679 0.109605 0.241283 -0.638896
H19   H     H_    0.452853 0.082567 0.298173 0.237834
H20   H     H_    0.437956 0.059972 0.196124 0.242012
O21   O     O_3   0.031662 0.746020 0.652651 -0.551924
C41   C     C_3   0.029484 0.815928 0.591718 0.109401
H21   H     H_    0.148251 0.805726 0.546288 0.101208
H22   H     H_    0.042146 0.885724 0.620317 0.116853
C42   C     C_3   0.840701 0.811785 0.545042 -0.693409
H23   H     H_    0.719483 0.823675 0.588489 0.208994
H24   H     H_    0.838295 0.865725 0.496120 0.176903
H25   H     H_    0.823313 0.743190 0.515377 0.230808
N2    N     N_3   0.587823 0.671706 0.910348 -0.653015
H26   H     H_    0.675560 0.618370 0.931633 0.229491
H27   H     H_    0.595125 0.723730 0.955174 0.227167
N3    N     N_3   0.830506 0.880545 0.265417 -0.677701
H28   H     H_    0.972295 0.862084 0.276755 0.244766
H29   H     H_    0.833278 0.930329 0.218471 0.240085
N4    N     N_3   0.728885 0.629283 0.259989 -0.666744
H30   H     H_    0.809039 0.630237 0.205175 0.214147
H31   H     H_    0.796905 0.585120 0.301819 0.233490
O22   O     O_3   0.180972 0.205709 0.630670 -0.547820
C43   C     C_3   0.272978 0.231860 0.556199 0.135523
H32   H     H_    0.380174 0.287645 0.562803 0.125599
H33   H     H_    0.163167 0.255613 0.511364 0.141193
C44   C     C_3   0.374207 0.147766 0.520360 -0.753360
H34   H     H_    0.267720 0.093995 0.503526 0.227301
H35   H     H_    0.457017 0.167272 0.464302 0.178693
H36   H     H_    0.474926 0.118901 0.566761 0.224521

loop_
_geom_bond_atom_site_label_1
_geom_bond_atom_site_label_2
_ccdc_geom_bond_type
C33   C37   S    
C41   H21   S    
C35   H17   S    
C4    C6    S    
C7    H1    S    
C1    O6    A    
C43   H33   S    
V4    O20   S    
C31   H15   S    
C14   C40   S    
O18   C39   A    
C11   H4    S    
C34   C35   S    
C5    C12   S    
C17   C18   A    
C7    C8    A    
C6    C7    A    
O5    C3    A    
C13   C14   A    
C31   C32   A    
V2    O10   S    
C29   C34   A    
C30   C31   A    
O13   V3    S    
C5    C6    A    
C16   H7    S    
O15   C39   A    
O8    V2    S    
N1    H19   S    
C37   O16   A    
C27   H12   S    
C9    C10   A    
O11   C38   A    
C3    C17   S    
O7    V1    S    
O15   V3    S    
C32   H16   S    
O9    C4    A    
C44   H35   S    
N2    H26   S    
C2    C30   S    
C43   H32   S    
N3    H29   S    
N3    H28   S    
C20   H10   S    
C8    C9    A    
C24   C25   A    
C32   C33   A    
C5    C10   A    
C10   C11   S    
C19   H9    S    
V3    O20   S    
O19   V4    S    
O21   C41   S    
C27   N2    S    
C1    C22   S    
C11   C12   S    
C23   C24   A    
O19   C40   A    
C13   C18   A    
C28   H13   S    
C36   H18   S    
O2    C1    A    
O17   V3    S    
C18   C19   S    
C12   O22   S    
C42   H24   S    
C14   C15   A    
O18   V4    S    
C44   H34   S    
C29   C36   S    
C29   C30   A    
N4    H31   S    
C27   C28   S    
N2    H27   S    
O3    C4    A    
O1    V2    S    
C25   C26   A    
N1    H20   S    
O11   V4    S    
O6    V2    S    
O9    V2    S    
C21   C22   A    
C44   H36   S    
O12   V3    S    
O16   V4    S    
O2    V1    S    
O14   V3    S    
C22   C23   A    
C42   H25   S    
O4    C2    A    
C24   H11   S    
O1    C2    A    
C25   C38   S    
C21   C26   A    
O5    V1    S    
O8    C3    A    
O17   V4    S    
C11   H3    S    
C28   H14   S    
C15   H6    S    
C41   H22   S    
C23   O21   S    
O7    V2    S    
C20   N1    S    
O4    V1    S    
C35   N3    S    
O3    V1    S    
V1    O10   S    
C19   H8    S    
C21   C28   S    
C42   H23   S    
C19   C20   S    
N4    H30   S    
C13   C20   S    
C16   C17   A    
C9    C39   S    
C33   C34   A    
C35   C36   S    
C36   N4    S    
C12   H5    S    
O12   C37   A    
C26   C27   S    
C41   C42   S    
O14   C38   A    
O22   C43   S    
O13   C40   A    
C8    H2    S    
C43   C44   S    
C15   C16   A    
