data_mof_unit_18753.cif
_audit_creation_date              2012-10-26T18:32:44-0400
_audit_creation_method            fapswitch 2.2
_symmetry_space_group_name_H-M    P1
_symmetry_Int_Tables_number       1
_space_group_crystal_system       triclinic
_cell_length_a                    13.700008
_cell_length_b                    13.88821
_cell_length_c                    15.093194
_cell_angle_alpha                 89.906691
_cell_angle_beta                  89.88676
_cell_angle_gamma                 84.760517
_cell_volume                      2859.75304433

loop_
_atom_site_label
_atom_site_type_symbol
_atom_type_description
_atom_site_fract_x
_atom_site_fract_y
_atom_site_fract_z
_atom_type_partial_charge
C1    C     C_R   0.500108 0.500328 0.328502 0.549778
C2    C     C_R   0.323288 0.480146 0.955034 0.146584
C3    C     C_R   0.788211 0.551047 0.436552 0.033003
C4    C     C_R   0.211817 0.448103 0.562798 0.036679
C5    C     C_R   0.797992 0.448634 0.562614 0.036019
C6    C     C_R   0.202012 0.551290 0.437285 0.036013
C7    C     C_R   0.900858 0.447635 0.563876 -0.030665
C8    C     C_R   0.099161 0.551729 0.435551 -0.030240
C9    C     C_R   0.948156 0.499992 0.499267 0.031725
C10   C     C_R   0.051866 0.499216 0.500026 0.031193
C11   C     C_R   0.891619 0.552788 0.433964 -0.000529
C12   C     C_R   0.499949 0.499566 0.671541 0.549605
C13   C     C_R   0.108414 0.446054 0.565087 0.001367
C14   C     C_R   0.956682 0.395098 0.628376 -0.133697
C15   C     C_R   0.043365 0.603541 0.370528 -0.133238
C16   C     C_R   0.515847 0.316844 0.500078 0.551775
C17   C     C_R   0.484152 0.683157 0.499924 0.553258
C18   C     C_R   0.059731 0.393252 0.629945 0.013323
C19   C     C_R   0.940325 0.604772 0.368503 0.007785
C20   C     C_1   0.474480 0.786313 0.500017 -0.019461
C21   C     C_1   0.525515 0.213688 0.499992 -0.020951
C22   C     C_2   0.459488 0.976792 0.500413 -0.121423
C23   C     C_R   0.500195 0.497528 0.953704 0.021552
C24   C     C_2   0.540497 0.023210 0.499609 -0.121617
C25   C     C_1   0.533053 0.126843 0.499844 -0.052890
C26   C     C_1   0.466935 0.873158 0.500172 -0.051865
C27   C     C_R   0.412516 0.489895 0.814851 -0.129716
C28   C     C_R   0.588177 0.508119 0.185440 -0.130913
C29   C     C_R   0.499931 0.498470 0.768409 -0.018730
C30   C     C_R   0.500534 0.500161 0.231717 -0.017305
C31   C     C_R   0.587402 0.505846 0.814522 -0.138790
C32   C     C_R   0.413428 0.491544 0.185570 -0.138869
C33   C     C_R   0.588132 0.505747 0.906780 -0.018619
C34   C     C_R   0.501263 0.498135 0.046525 0.022047
C35   C     C_R   0.413086 0.490667 0.093395 -0.018159
C36   C     C_3   0.853276 0.551527 0.047779 -0.321387
C37   C     C_3   0.140963 0.492227 0.949791 -0.318003
C38   C     C_3   0.114498 0.334387 0.701708 -0.285093
C39   C     C_3   0.158740 0.237157 0.666094 -0.438613
C40   C     C_3   0.885661 0.661866 0.295463 -0.284620
C41   C     C_3   0.840523 0.759597 0.329211 -0.435049
C42   C     C_R   0.411347 0.488724 0.907661 0.030124
C43   C     C_R   0.590236 0.506255 0.092633 0.028711
C44   C     C_R   0.676025 0.513475 0.952184 -0.102611
C45   C     C_R   0.325500 0.481582 0.048012 -0.105033
C46   C     C_R   0.678723 0.513431 0.045304 0.148138
Cu1   Cu    Cu3+1 0.597420 0.500010 0.499990 0.934619
Cu2   Cu    Cu3+1 0.402580 0.499990 0.500010 0.936548
H1    H     H_    0.612711 0.983684 0.498723 0.133394
H2    H     H_    0.258176 0.408414 0.610560 0.128589
H3    H     H_    0.760861 0.408231 0.611710 0.120694
H4    H     H_    0.239141 0.591893 0.388341 0.120920
H5    H     H_    0.919640 0.354659 0.677679 0.096337
H6    H     H_    0.080440 0.643674 0.321021 0.096191
H7    H     H_    0.785733 0.461777 0.136008 0.244207
H8    H     H_    0.910391 0.564033 0.097478 0.133015
H9    H     H_    0.832561 0.620985 0.013084 0.157875
H10   H     H_    0.884713 0.496110 0.000180 0.131022
H11   H     H_    0.238443 0.403256 0.871949 0.238020
H12   H     H_    0.387273 0.016318 0.501299 0.133264
H13   H     H_    0.082399 0.493639 0.898925 0.139584
H14   H     H_    0.139172 0.565331 0.979888 0.155910
H15   H     H_    0.125847 0.437839 0.000857 0.130040
H16   H     H_    0.099748 0.194318 0.641545 0.157829
H17   H     H_    0.210901 0.247097 0.611205 0.151871
H18   H     H_    0.198727 0.196018 0.720048 0.138593
H19   H     H_    0.172261 0.375387 0.730823 0.127880
H20   H     H_    0.064390 0.320189 0.757329 0.139115
H21   H     H_    0.788062 0.750549 0.384043 0.151530
H22   H     H_    0.899019 0.803352 0.353272 0.156414
H23   H     H_    0.345407 0.484557 0.778144 0.145331
H24   H     H_    0.800713 0.799368 0.274375 0.143495
H25   H     H_    0.936251 0.675489 0.240057 0.137865
H26   H     H_    0.828503 0.619887 0.266265 0.146613
H27   H     H_    0.654452 0.516527 0.222414 0.138078
H28   H     H_    0.655155 0.512291 0.778612 0.123528
H29   H     H_    0.345583 0.485280 0.221396 0.123362
H30   H     H_    0.742500 0.518062 0.914165 0.105299
H31   H     H_    0.259406 0.473981 0.085801 0.106205
H32   H     H_    0.741917 0.590290 0.388461 0.129721
N1    N     N_R   0.743820 0.499960 0.499930 -0.240580
N2    N     N_R   0.256180 0.500040 0.500070 -0.240536
N3    N     N_2   0.768980 0.518044 0.092355 -0.531720
N4    N     N_2   0.234980 0.466320 0.908158 -0.527388
O1    O     O_R   0.582280 0.500030 0.370250 -0.513571
O2    O     O_R   0.417720 0.499970 0.629750 -0.511787
O3    O     O_R   0.417740 0.500020 0.370270 -0.509878
O4    O     O_R   0.582260 0.499980 0.629730 -0.509594
O5    O     O_R   0.593900 0.362160 0.500010 -0.492878
O6    O     O_R   0.406100 0.637840 0.499990 -0.491661
O7    O     O_R   0.429360 0.362150 0.500030 -0.497594
O8    O     O_R   0.570640 0.637850 0.499970 -0.496360

loop_
_geom_bond_atom_site_label_1
_geom_bond_atom_site_label_2
_ccdc_geom_bond_type
C1    O3    A    
C16   C21   S    
C6    N2    A    
C12   C29   S    
C27   C29   A    
Cu1   O5    S    
Cu1   O8    S    
C14   C18   A    
C2    N4    S    
C37   H14   S    
C15   C19   A    
C39   H16   S    
C11   C19   A    
C23   C42   A    
C13   C18   A    
Cu1   O1    S    
C36   H10   S    
C22   H12   S    
C38   C39   S    
C36   N3    S    
C17   C20   S    
C40   H25   S    
C34   C35   A    
C4    C13   A    
C32   H29   S    
C7    C14   A    
Cu2   N2    S    
C23   C33   A    
Cu2   O7    S    
C3    N1    A    
C31   C33   A    
C37   N4    S    
C9    C10   A    
C16   O5    A    
Cu2   O6    S    
C39   H17   S    
C17   O8    A    
C3    H32   S    
C37   H15   S    
C44   C46   A    
C2    C45   A    
C1    O1    A    
C12   O4    A    
C32   C35   A    
H11   N4    S    
C36   H9    S    
C5    C7    A    
C6    C8    A    
C4    H2    S    
C15   H6    S    
C36   H8    S    
C5    N1    A    
Cu1   Cu2   S    
C23   C34   A    
Cu2   O3    S    
C45   H31   S    
C24   C25   S    
C9    C11   A    
C41   H24   S    
C40   C41   S    
C38   H20   S    
C8    C15   A    
C39   H18   S    
Cu2   O2    S    
H7    N3    S    
C35   C45   A    
C27   H23   S    
C41   H21   S    
C24   H1    S    
C7    C9    A    
C21   C25   T    
C33   C44   A    
C17   O6    A    
C10   C13   A    
C37   H13   S    
C28   C43   A    
C12   O2    A    
Cu1   O4    S    
C44   H30   S    
C18   C38   S    
C29   C31   A    
C30   C32   A    
C27   C42   A    
C31   H28   S    
C20   C26   T    
C2    C42   A    
C28   C30   A    
C1    C30   S    
C40   H26   S    
C22   C24   D    
Cu1   N1    S    
C43   C46   A    
C3    C11   A    
C19   C40   S    
C46   N3    S    
C14   H5    S    
C4    N2    A    
C38   H19   S    
C16   O7    A    
C8    C10   A    
C22   C26   S    
C5    H3    S    
C6    H4    S    
C34   C43   A    
C28   H27   S    
C41   H22   S    
