data_mof_unit_33765.cif
_audit_creation_date              2012-12-10T17:27:09-0500
_audit_creation_method            fapswitch 2.2
_symmetry_space_group_name_H-M    P1
_symmetry_Int_Tables_number       1
_space_group_crystal_system       triclinic
_cell_length_a                    17.788185
_cell_length_b                    18.852149
_cell_length_c                    12.112098
_cell_angle_alpha                 90.002471
_cell_angle_beta                  87.566019
_cell_angle_gamma                 90.000546
_cell_volume                      4058.07330266

loop_
_atom_site_label
_atom_site_type_symbol
_atom_type_description
_atom_site_fract_x
_atom_site_fract_y
_atom_site_fract_z
_atom_type_partial_charge
C1    C     C_R   0.399222 0.099395 0.520659 0.897056
C2    C     C_R   0.535825 0.000147 0.022642 -0.024352
C3    C     C_R   0.273563 0.048523 0.004662 -0.184905
C4    C     C_R   0.175161 0.491966 0.996813 0.152233
C5    C     C_R   0.195779 0.426582 0.042240 -0.170983
C6    C     C_R   0.266791 0.417712 0.085268 -0.142052
C7    C     C_R   0.317871 0.474026 0.082771 -0.100855
C8    C     C_R   0.297834 0.539237 0.037617 -0.153244
C9    C     C_R   0.226439 0.548536 0.995371 -0.184894
C10   C     C_R   0.824852 0.491673 0.003189 0.152164
C11   C     C_R   0.804371 0.426246 0.957749 -0.170915
C12   C     C_R   0.733375 0.417238 0.914735 -0.141891
C13   C     C_R   0.964175 0.500143 0.977360 -0.024366
C14   C     C_R   0.682166 0.473450 0.917281 -0.100948
C15   C     C_R   0.702059 0.538697 0.962472 -0.153510
C16   C     C_R   0.773447 0.548142 0.004670 -0.184727
C17   C     C_R   0.035821 0.500203 0.022642 -0.024341
C18   C     C_R   0.590598 0.000040 0.833419 0.249421
C19   C     C_R   0.409403 0.000115 0.166580 0.249414
C20   C     C_R   0.090596 0.500123 0.833422 0.249433
C21   C     C_R   0.909401 0.500030 0.166583 0.249402
C22   C     C_R   0.599568 0.999392 0.950123 -0.081570
C23   C     C_R   0.400434 0.999511 0.049876 -0.081440
C24   C     C_R   0.099565 0.499527 0.950125 -0.081476
C25   C     C_R   0.597698 0.897579 0.479862 0.890128
C26   C     C_R   0.900432 0.499379 0.049879 -0.081500
C27   C     C_R   0.457636 0.000658 0.860269 -0.097525
C28   C     C_R   0.542367 0.000591 0.139731 -0.097518
C29   C     C_R   0.957633 0.500588 0.860269 -0.097521
C30   C     C_R   0.042364 0.500664 0.139731 -0.097509
C31   C     C_R   0.661143 0.150157 0.466337 -0.100849
C32   C     C_R   0.354197 0.835586 0.530470 -0.095862
C33   C     C_R   0.338847 0.150135 0.533674 -0.100903
C34   C     C_R   0.645715 0.835512 0.469534 -0.095878
C35   C     C_R   0.161127 0.650155 0.466334 -0.100889
C36   C     C_R   0.600765 0.099412 0.479347 0.897087
C37   C     C_R   0.854261 0.335535 0.530467 -0.095870
C38   C     C_R   0.838814 0.650119 0.533668 -0.100888
C39   C     C_R   0.145786 0.335570 0.469534 -0.095878
C40   C     C_R   0.294774 0.743226 0.643241 0.172883
C41   C     C_R   0.737992 0.226514 0.347128 0.169771
C42   C     C_R   0.705140 0.743151 0.356754 0.172841
C43   C     C_R   0.262083 0.226573 0.652860 0.169803
C44   C     C_R   0.794869 0.243149 0.643223 0.172853
C45   C     C_R   0.237812 0.726660 0.347171 0.169788
C46   C     C_R   0.205275 0.243258 0.356730 0.172917
C47   C     C_R   0.402280 0.897600 0.520139 0.890081
C48   C     C_R   0.761908 0.726428 0.652887 0.169792
C49   C     C_R   0.341105 0.802935 0.633054 -0.194804
C50   C     C_R   0.681093 0.176322 0.361716 -0.189381
C51   C     C_R   0.658859 0.802896 0.366926 -0.194805
C52   C     C_R   0.318881 0.176280 0.638300 -0.189213
C53   C     C_R   0.841171 0.302880 0.633052 -0.194813
C54   C     C_R   0.181018 0.676366 0.361731 -0.189233
C55   C     C_R   0.158945 0.302966 0.366922 -0.194800
C56   C     C_R   0.818798 0.676224 0.638305 -0.189331
C57   C     C_R   0.324435 0.807231 0.435899 -0.304138
C58   C     C_R   0.899223 0.599401 0.520656 0.897046
C59   C     C_R   0.699690 0.170769 0.558239 -0.299863
C60   C     C_R   0.675344 0.807054 0.564133 -0.304113
C61   C     C_R   0.300360 0.170805 0.441756 -0.299828
C62   C     C_R   0.824558 0.307134 0.435884 -0.304119
C63   C     C_R   0.199671 0.670775 0.558227 -0.299839
C64   C     C_R   0.175473 0.307158 0.564126 -0.304080
C65   C     C_R   0.800310 0.670771 0.441747 -0.299853
C66   C     C_R   0.273648 0.751388 0.442783 0.088579
C67   C     C_R   0.756593 0.220992 0.548629 0.093416
C68   C     C_R   0.726143 0.751216 0.557251 0.088613
C69   C     C_R   0.097713 0.397594 0.479862 0.890095
C70   C     C_R   0.243490 0.221057 0.451353 0.093389
C71   C     C_R   0.773781 0.251282 0.442758 0.088652
C72   C     C_R   0.256513 0.721055 0.548638 0.093390
C73   C     C_R   0.226286 0.251333 0.557233 0.088530
C74   C     C_R   0.743381 0.720966 0.451363 0.093427
C75   C     C_3   0.338502 0.003384 0.241534 -0.359555
C76   C     C_3   0.286154 0.940044 0.230073 -0.920081
C77   C     C_3   0.661506 0.003246 0.758473 -0.359426
C78   C     C_3   0.713695 0.939773 0.769792 -0.919598
C79   C     C_3   0.838495 0.503270 0.241537 -0.359460
C80   C     C_R   0.100771 0.599399 0.479345 0.897104
C81   C     C_3   0.786207 0.439872 0.230137 -0.919855
C82   C     C_3   0.161500 0.503363 0.758477 -0.359552
C83   C     C_3   0.213779 0.439969 0.769899 -0.919887
C84   C     C_3   0.785392 0.203203 0.752796 -0.431464
C85   C     C_3   0.843713 0.219527 0.838414 -0.908956
C86   C     C_3   0.255541 0.757693 0.232680 -0.437578
C87   C     C_3   0.225598 0.716936 0.134760 -0.917244
C88   C     C_3   0.214857 0.203373 0.247110 -0.431511
C89   C     C_3   0.156798 0.219926 0.161227 -0.909212
C90   C     C_3   0.744011 0.757306 0.767450 -0.437431
C91   C     C_R   0.902295 0.397587 0.520138 0.890116
C92   C     C_3   0.773684 0.716317 0.865335 -0.917193
C93   C     C_3   0.285241 0.703308 0.752836 -0.431482
C94   C     C_3   0.343319 0.719853 0.838700 -0.909140
C95   C     C_3   0.755894 0.257371 0.232553 -0.437334
C96   C     C_3   0.726363 0.216259 0.134678 -0.917081
C97   C     C_3   0.714633 0.703221 0.247165 -0.431486
C98   C     C_3   0.656276 0.719503 0.161579 -0.908771
C99   C     C_3   0.244321 0.257588 0.767362 -0.437591
C100  C     C_3   0.274330 0.216880 0.865275 -0.917385
C101  C     C_R   0.675154 0.991688 0.996798 0.152146
C102  C     C_R   0.464178 0.000195 0.977359 -0.024350
C103  C     C_R   0.695651 0.926255 0.042188 -0.170870
C104  C     C_R   0.766671 0.917239 0.085122 -0.141938
C105  C     C_R   0.817881 0.973450 0.082562 -0.100970
C106  C     C_R   0.797965 0.038707 0.037447 -0.153442
C107  C     C_R   0.726557 0.048160 0.995322 -0.184678
C108  C     C_R   0.324841 0.991955 0.003181 0.152255
C109  C     C_R   0.304223 0.926580 0.957711 -0.170976
C110  C     C_R   0.233212 0.917720 0.914676 -0.141983
C111  C     C_R   0.182133 0.974035 0.917207 -0.100862
C112  C     C_R   0.202168 0.039234 0.962411 -0.153349
H1    H     H_    0.596666 0.001977 0.176456 0.158075
H2    H     H_    0.839931 0.330619 0.357326 0.178252
H3    H     H_    0.788431 0.598951 0.039170 0.134016
H4    H     H_    0.817205 0.649207 0.361920 0.156790
H5    H     H_    0.160042 0.330590 0.642718 0.178233
H6    H     H_    0.650288 0.158361 0.292101 0.182804
H7    H     H_    0.367510 0.824381 0.704491 0.179437
H8    H     H_    0.349628 0.158246 0.707923 0.182826
H9    H     H_    0.632537 0.824388 0.295452 0.179405
H10   H     H_    0.150222 0.658374 0.292127 0.182827
H11   H     H_    0.867551 0.324335 0.704504 0.179415
H12   H     H_    0.849559 0.658220 0.707933 0.182806
H13   H     H_    0.403340 0.002110 0.823539 0.158080
H14   H     H_    0.132591 0.324446 0.295466 0.179438
H15   H     H_    0.239401 0.952605 0.175678 0.280003
H16   H     H_    0.318423 0.894099 0.196069 0.257908
H17   H     H_    0.259507 0.926028 0.311817 0.245614
H18   H     H_    0.350794 0.004290 0.327734 0.273483
H19   H     H_    0.307594 0.053206 0.225945 0.164730
H20   H     H_    0.760492 0.952183 0.824190 0.279845
H21   H     H_    0.681313 0.893881 0.803739 0.257779
H22   H     H_    0.740285 0.925744 0.688015 0.245709
H23   H     H_    0.649228 0.004303 0.672270 0.273373
H24   H     H_    0.096660 0.502120 0.176458 0.158089
H25   H     H_    0.692532 0.052987 0.774193 0.164605
H26   H     H_    0.739451 0.452370 0.175715 0.279922
H27   H     H_    0.818522 0.393947 0.196175 0.257838
H28   H     H_    0.759564 0.425862 0.311882 0.245707
H29   H     H_    0.850778 0.504260 0.327742 0.273419
H30   H     H_    0.807539 0.553053 0.225885 0.164629
H31   H     H_    0.260545 0.452471 0.824307 0.279943
H32   H     H_    0.181457 0.394048 0.803874 0.257855
H33   H     H_    0.240408 0.425942 0.688147 0.245647
H34   H     H_    0.149214 0.504312 0.672274 0.273439
H35   H     H_    0.903335 0.501971 0.823541 0.158080
H36   H     H_    0.192456 0.553155 0.774114 0.164713
H37   H     H_    0.901662 0.213650 0.801664 0.270661
H38   H     H_    0.835374 0.273743 0.871692 0.247703
H39   H     H_    0.836758 0.181844 0.908382 0.249660
H40   H     H_    0.728337 0.213688 0.790196 0.198197
H41   H     H_    0.790428 0.145451 0.735532 0.212686
H42   H     H_    0.242460 0.660593 0.139837 0.273289
H43   H     H_    0.163403 0.721372 0.132993 0.259829
H44   H     H_    0.249692 0.739708 0.056485 0.258740
H45   H     H_    0.230441 0.811214 0.231044 0.226686
H46   H     H_    0.682857 0.149146 0.638047 0.156768
H47   H     H_    0.317516 0.760655 0.217861 0.210339
H48   H     H_    0.098756 0.214064 0.197631 0.270661
H49   H     H_    0.165318 0.274184 0.128236 0.247778
H50   H     H_    0.163890 0.182360 0.091125 0.249774
H51   H     H_    0.272004 0.213756 0.209969 0.198283
H52   H     H_    0.209631 0.145621 0.264245 0.212753
H53   H     H_    0.756840 0.659986 0.859826 0.273389
H54   H     H_    0.835864 0.720736 0.867503 0.259745
H55   H     H_    0.749385 0.738901 0.943627 0.258671
H56   H     H_    0.769177 0.810798 0.769424 0.226629
H57   H     H_    0.339791 0.830723 0.357334 0.178275
H58   H     H_    0.682021 0.760331 0.782036 0.210302
H59   H     H_    0.401354 0.714014 0.802256 0.270621
H60   H     H_    0.334796 0.774101 0.871740 0.247779
H61   H     H_    0.336257 0.682266 0.908776 0.249779
H62   H     H_    0.228100 0.713662 0.790021 0.198283
H63   H     H_    0.290482 0.645563 0.735650 0.212745
H64   H     H_    0.743247 0.159945 0.140351 0.273412
H65   H     H_    0.664187 0.220621 0.132347 0.259682
H66   H     H_    0.750723 0.238784 0.056385 0.258632
H67   H     H_    0.730652 0.310833 0.230487 0.226564
H68   H     H_    0.317213 0.149191 0.361949 0.156779
H69   H     H_    0.817884 0.260478 0.218035 0.210308
H70   H     H_    0.598339 0.713629 0.198383 0.270663
H71   H     H_    0.664591 0.773707 0.128246 0.247672
H72   H     H_    0.663207 0.681790 0.091633 0.249651
H73   H     H_    0.771675 0.713749 0.209750 0.198175
H74   H     H_    0.709646 0.645464 0.264414 0.212686
H75   H     H_    0.257512 0.160525 0.860226 0.273302
H76   H     H_    0.336522 0.221366 0.866996 0.259883
H77   H     H_    0.250240 0.239651 0.943556 0.258763
H78   H     H_    0.269367 0.311131 0.769002 0.226714
H79   H     H_    0.659900 0.830481 0.642714 0.178208
H80   H     H_    0.182343 0.260493 0.782192 0.210327
H81   H     H_    0.656463 0.882397 0.043076 0.124239
H82   H     H_    0.782087 0.866640 0.119856 0.137493
H83   H     H_    0.873026 0.966449 0.115433 0.126187
H84   H     H_    0.837883 0.082013 0.035700 0.132908
H85   H     H_    0.711561 0.098975 0.960867 0.134001
H86   H     H_    0.343319 0.882654 0.956826 0.124261
H87   H     H_    0.217703 0.867167 0.879871 0.137481
H88   H     H_    0.126999 0.967159 0.884242 0.126174
H89   H     H_    0.162353 0.082618 0.964120 0.132940
H90   H     H_    0.182884 0.649100 0.638010 0.156755
H91   H     H_    0.288655 0.099291 0.039195 0.133971
H92   H     H_    0.156683 0.382657 0.043089 0.124285
H93   H     H_    0.282302 0.367151 0.120037 0.137492
H94   H     H_    0.373008 0.467140 0.115724 0.126166
H95   H     H_    0.337649 0.582621 0.035940 0.132893
H96   H     H_    0.211347 0.599312 0.960873 0.133939
H97   H     H_    0.843560 0.382389 0.956864 0.124242
H98   H     H_    0.717979 0.366645 0.879940 0.137518
H99   H     H_    0.627043 0.466457 0.884334 0.126194
H100  H     H_    0.662143 0.582004 0.964208 0.132917
N1    N     N_R   0.480750 1.000000 0.209750 -0.129972
N2    N     N_R   0.519250 1.000000 0.790250 -0.129947
N3    N     N_R   0.980750 0.500000 0.209750 -0.129974
N4    N     N_R   0.019250 0.500000 0.790250 -0.129955
O1    O     O_R   0.418020 0.076820 0.422210 -0.653644
O2    O     O_R   0.569630 0.923170 0.391410 -0.626816
O3    O     O_R   0.569630 0.076830 0.391410 -0.624545
O4    O     O_R   0.430370 0.923170 0.608590 -0.626844
O5    O     O_R   0.930370 0.576830 0.608590 -0.624538
O6    O     O_R   0.069630 0.423170 0.391410 -0.626822
O7    O     O_R   0.069630 0.576830 0.391410 -0.624604
O8    O     O_R   0.930370 0.423170 0.608590 -0.626840
O9    O     O_R   0.581980 0.923180 0.577790 -0.632741
O10   O     O_R   0.581980 0.076820 0.577790 -0.653607
O11   O     O_R   0.418020 0.923180 0.422210 -0.632846
O12   O     O_R   0.918020 0.576820 0.422210 -0.653603
O13   O     O_R   0.081980 0.423180 0.577790 -0.632807
O14   O     O_R   0.081980 0.576820 0.577790 -0.653627
O15   O     O_R   0.918020 0.423180 0.422210 -0.632808
O16   O     O_R   0.430370 0.076830 0.608590 -0.624595
Zn1   Zn    Zn3+2 0.491750 0.000000 0.375560 0.929507
Zn2   Zn    Zn3+2 0.508250 0.000000 0.624440 0.929510
Zn3   Zn    Zn3+2 0.991750 0.500000 0.375560 0.929506
Zn4   Zn    Zn3+2 0.008250 0.500000 0.624440 0.929511

loop_
_geom_bond_atom_site_label_1
_geom_bond_atom_site_label_2
_ccdc_geom_bond_type
C61   C70   A    
C101  C107  A    
C81   H28   S    
C21   C26   A    
C43   C73   A    
C93   C94   S    
C63   H90   S    
C20   C82   S    
C3    H91   S    
C93   H62   S    
C95   C96   S    
C1    O16   A    
C48   C56   A    
C40   C93   S    
C5    H92   S    
C37   C62   A    
C25   O2    A    
C1    C33   S    
C7    C8    A    
C49   H7    S    
C77   C78   S    
C33   C52   A    
C97   H73   S    
C39   C64   A    
O15   Zn3   S    
C34   C51   A    
C22   C101  S    
C14   H99   S    
C5    C6    A    
O9    Zn2   S    
C20   N4    A    
C13   C29   A    
C82   H36   S    
C100  H76   S    
C77   H25   S    
C62   H2    S    
C28   H1    S    
C60   H79   S    
C99   H80   S    
C111  H88   S    
C59   H46   S    
C43   C52   A    
C79   H30   S    
C106  C107  A    
C2    C102  A    
C68   C74   A    
C15   C16   A    
C35   C80   S    
C18   N2    A    
C108  C109  A    
C81   H27   S    
C69   O6    A    
C84   H41   S    
C31   C59   A    
C98   H71   S    
C78   H20   S    
C85   H38   S    
O12   Zn3   S    
C52   H8    S    
C59   C67   A    
C30   N3    A    
C83   H33   S    
C44   C53   A    
C66   C72   A    
C111  C112  A    
C8    C9    A    
C6    H93   S    
C46   C55   A    
C2    C22   A    
C27   N2    A    
C64   C73   A    
C21   N3    A    
C78   H21   S    
O14   Zn4   S    
C96   H65   S    
C96   H64   S    
C86   H47   S    
C57   C66   A    
C31   C36   S    
C57   H57   S    
C75   H18   S    
C42   C51   A    
C41   C71   A    
C94   H60   S    
C88   C89   S    
C10   C26   S    
C54   H10   S    
C101  C103  A    
C48   C90   S    
C35   C54   A    
C34   C60   A    
C17   C30   A    
C21   C79   S    
C109  H86   S    
C41   C95   S    
C32   C57   A    
C7    H94   S    
N1    Zn1   S    
C92   H53   S    
C36   O3    A    
C89   H49   S    
C104  C105  A    
C82   H34   S    
C58   O5    A    
C75   H19   S    
C91   O8    A    
C97   C98   S    
C83   H32   S    
C46   C88   S    
C97   H74   S    
O11   Zn1   S    
C39   C55   A    
O6    Zn3   S    
C42   C74   A    
C17   C24   A    
C37   C91   S    
C112  H89   S    
C20   C24   A    
C100  H75   S    
N3    Zn3   S    
C84   C85   S    
C53   H11   S    
C42   C97   S    
O1    Zn1   S    
C107  H85   S    
C86   C87   S    
C95   H69   S    
C29   N4    A    
C106  H84   S    
C88   H52   S    
C93   H63   S    
C65   C74   A    
C110  C111  A    
C91   O15   A    
C19   N1    A    
C41   C50   A    
C98   H70   S    
C8    H95   S    
C19   C23   A    
C75   C76   S    
C85   H39   S    
C15   H100  S    
C69   O13   A    
C94   H59   S    
C76   H17   S    
C90   C92   S    
C99   C100  S    
C55   H14   S    
C3    C112  A    
C90   H58   S    
C70   C73   A    
O16   Zn2   S    
C39   C69   S    
C87   H42   S    
C38   C56   A    
C38   C58   S    
C48   C68   A    
C78   H22   S    
O7    Zn3   S    
C84   H40   S    
C95   H67   S    
C12   C14   A    
C45   C54   A    
C30   H24   S    
C50   H6    S    
O5    Zn4   S    
N2    Zn2   S    
C51   H9    S    
C65   H4    S    
C87   H43   S    
C13   C26   A    
C31   C50   A    
C16   H3    S    
C56   H12   S    
C89   H50   S    
C45   C66   A    
C58   O12   A    
C89   H48   S    
C79   C81   S    
C47   O4    A    
O4    Zn2   S    
C28   N1    A    
C105  H83   S    
C36   O10   A    
C40   C72   A    
C90   H56   S    
C110  H87   S    
C14   C15   A    
C103  C104  A    
O2    Zn1   S    
C80   O14   A    
C81   H26   S    
C44   C84   S    
C9    H96   S    
C29   H35   S    
C99   H78   S    
C35   C63   A    
C11   C12   A    
C6    C7    A    
C3    C108  A    
C88   H51   S    
C77   H23   S    
C105  C106  A    
C25   C34   S    
C27   C102  A    
O10   Zn2   S    
C13   C17   A    
O13   Zn4   S    
C18   C22   A    
C45   C86   S    
O8    Zn4   S    
C37   C53   A    
C10   C16   A    
C109  C110  A    
C11   H97   S    
C80   O7    A    
C83   H31   S    
C27   H13   S    
C92   H55   S    
C79   H29   S    
C18   C77   S    
C4    C24   S    
C23   C108  S    
C19   C75   S    
C32   C47   S    
N4    Zn4   S    
C62   C71   A    
C67   C71   A    
C98   H72   S    
C86   H45   S    
C85   H37   S    
C32   C49   A    
C46   C70   A    
C10   C11   A    
C64   H5    S    
C94   H61   S    
C12   H98   S    
C23   C102  A    
C92   H54   S    
C4    C5    A    
C47   O11   A    
C63   C72   A    
C60   C68   A    
C61   H68   S    
C33   C61   A    
C82   C83   S    
C1    O1    A    
O3    Zn1   S    
C76   H15   S    
C104  H82   S    
C87   H44   S    
C43   C99   S    
C44   C67   A    
C2    C28   A    
C100  H77   S    
C103  H81   S    
C96   H66   S    
C4    C9    A    
C38   C65   A    
C40   C49   A    
C25   O9    A    
C76   H16   S    
