data_mof_unit_31310.cif
_audit_creation_date              2012-12-11T14:56:43-0500
_audit_creation_method            fapswitch 2.2
_symmetry_space_group_name_H-M    P1
_symmetry_Int_Tables_number       1
_space_group_crystal_system       triclinic
_cell_length_a                    10.523244
_cell_length_b                    10.665995
_cell_length_c                    17.063099
_cell_angle_alpha                 80.385778
_cell_angle_beta                  89.604279
_cell_angle_gamma                 119.170573
_cell_volume                      1640.09460232

loop_
_atom_site_label
_atom_site_type_symbol
_atom_type_description
_atom_site_fract_x
_atom_site_fract_y
_atom_site_fract_z
_atom_type_partial_charge
C1    C     C_R   0.278855 0.888791 0.132674 0.558968
C2    C     C_1   0.684290 0.402045 0.709951 -0.049382
C3    C     C_R   0.624942 0.712867 0.804945 -0.138258
C4    C     C_R   0.636260 0.280538 0.086078 0.538784
C5    C     C_R   0.610382 0.697732 0.726659 -0.138331
C6    C     C_R   0.669425 0.822206 0.665494 0.031234
C7    C     C_R   0.748976 0.962231 0.682889 -0.141973
C8    C     C_R   0.759779 0.977757 0.761910 -0.140333
C9    C     C_R   0.691508 0.852746 0.822991 0.021832
C10   C     C_R   0.082945 0.883255 0.790496 -0.135065
C11   C     C_R   0.066484 0.879943 0.710972 -0.124474
C12   C     C_R   0.798625 0.422404 0.262784 -0.127449
C13   C     C_R   0.114707 0.802259 0.671980 0.031964
C14   C     C_R   0.166990 0.716665 0.714789 -0.136725
C15   C     C_R   0.185232 0.721282 0.794758 -0.124422
C16   C     C_R   0.643390 0.855717 0.124251 0.545278
C17   C     C_R   0.150624 0.811447 0.831284 0.025735
C18   C     C_R   0.711405 0.772671 0.353452 0.561876
C19   C     C_R   0.689259 0.396035 0.394630 0.551184
C20   C     C_R   0.108397 0.812529 0.359949 0.546375
C21   C     C_R   0.677346 0.800169 0.585456 0.544817
C22   C     C_R   0.717130 0.446202 0.625988 0.562169
C23   C     C_R   0.788519 0.409802 0.183996 -0.130025
C24   C     C_R   0.089922 0.798628 0.589426 0.544466
C25   C     C_R   0.216433 0.858063 0.902420 0.557191
C26   C     C_R   0.640365 0.290743 0.861914 0.550372
C27   C     C_R   0.648026 0.866741 0.899674 0.545802
C28   C     C_R   0.524395 0.303400 0.205866 -0.129690
C29   C     C_R   0.534885 0.317926 0.285051 -0.135711
C30   C     C_R   0.671375 0.370865 0.314324 0.029410
C31   C     C_R   0.650882 0.342463 0.156524 0.027395
C32   C     C_1   0.685032 0.831601 0.201664 -0.028938
C33   C     C_1   0.703636 0.807473 0.270343 -0.031908
C34   C     C_1   0.227715 0.854149 0.215422 -0.043225
C35   C     C_1   0.179058 0.834563 0.283082 -0.045839
C36   C     C_1   0.661937 0.358011 0.780521 -0.046308
Cr1   Cr    Cr6+3 0.402240 0.783890 0.019450 1.024152
Cr2   Cr    Cr6+3 0.382360 0.097900 0.991800 1.020417
Cr3   Cr    Cr6+3 0.715380 0.118170 0.988700 1.024784
Cr4   Cr    Cr6+3 0.936650 0.882420 0.465510 1.022857
Cr5   Cr    Cr6+3 0.605770 0.565620 0.493360 1.025051
Cr6   Cr    Cr6+3 0.921340 0.550490 0.496380 1.018270
H1    H     H_    0.017388 0.939996 0.679783 0.148649
H2    H     H_    0.416698 0.251822 0.185217 0.142679
H3    H     H_    0.887209 0.443171 0.146195 0.141871
H4    H     H_    0.555149 0.588207 0.714012 0.134726
H5    H     H_    0.198323 0.651337 0.685893 0.130046
H6    H     H_    0.236609 0.663524 0.825901 0.143212
H7    H     H_    0.437093 0.284151 0.323727 0.135402
H8    H     H_    0.906568 0.472396 0.283312 0.146569
H9    H     H_    0.573315 0.615425 0.851564 0.130833
H10   H     H_    0.800954 0.058483 0.635592 0.137102
H11   H     H_    0.811590 0.086996 0.774976 0.146864
H12   H     H_    0.052624 0.950427 0.818320 0.134421
O1    O     O_R   0.521780 0.757110 0.108900 -0.513716
O2    O     O_R   0.805020 0.410040 0.421340 -0.514785
O3    O     O_R   0.049240 0.685450 0.403290 -0.499765
O4    O     O_R   0.275160 0.783810 0.101120 -0.492860
O5    O     O_R   0.077520 0.903010 0.551800 -0.518719
O6    O     O_R   0.802980 0.872780 0.546830 -0.504746
O7    O     O_R   0.578090 0.681300 0.569920 -0.522009
O8    O     O_R   0.608530 0.436370 0.586530 -0.491426
O9    O     O_R   0.798770 0.401880 0.597100 -0.503342
O10   O     O_R   0.043450 0.677890 0.566230 -0.515641
O11   O     O_3   0.821250 0.666180 0.485090 -0.299038
O12   O     O_R   0.513330 0.228330 0.898660 -0.495367
O13   O     O_R   0.237900 0.972600 0.090980 -0.510131
O14   O     O_R   0.511190 0.220540 0.061620 -0.524773
O15   O     O_R   0.736920 0.257720 0.063840 -0.514734
O16   O     O_R   0.710450 0.984050 0.081720 -0.493754
O17   O     O_R   0.524090 0.765520 0.933110 -0.519978
O18   O     O_R   0.277300 0.791600 0.938160 -0.502333
O19   O     O_R   0.240210 0.981010 0.915190 -0.512245
O20   O     O_R   0.739230 0.266130 0.888050 -0.511101
O21   O     O_R   0.712580 0.991850 0.918770 -0.504879
O22   O     O_3   0.499990 0.999980 0.999980 -0.264566
O23   O     O_R   0.083770 0.911170 0.376030 -0.510371
O24   O     O_R   0.808770 0.880340 0.383890 -0.484469
O25   O     O_R   0.584340 0.689460 0.394160 -0.499308
O26   O     O_R   0.614320 0.443940 0.423590 -0.510642

loop_
_geom_bond_atom_site_label_1
_geom_bond_atom_site_label_2
_ccdc_geom_bond_type
C19   O2    A    
C23   H3    S    
Cr5   O7    S    
Cr5   O26   S    
C7    C8    A    
C29   H7    S    
C12   C23   A    
C20   O23   A    
Cr4   O6    S    
C15   H6    S    
C28   C29   A    
C7    H10   S    
C5    C6    A    
C10   C17   A    
C34   C35   T    
Cr3   O20   S    
Cr6   O2    S    
C22   O9    A    
C20   C35   S    
Cr2   O12   S    
C18   O25   A    
C2    C22   S    
Cr6   O11   S    
C11   H1    S    
Cr3   O21   S    
C21   O7    A    
Cr1   O4    S    
C24   O10   A    
Cr4   O5    S    
C13   C14   A    
Cr2   O22   S    
Cr5   O8    S    
C27   O21   A    
Cr6   O3    S    
C4    O15   A    
C1    C34   S    
C26   O12   A    
C16   O16   A    
C21   O6    A    
C4    O14   A    
C3    H9    S    
C8    C9    A    
Cr5   O11   S    
C6    C21   S    
C28   H2    S    
C13   C24   S    
C23   C31   A    
C29   C30   A    
C3    C9    A    
C22   O8    A    
C18   O24   A    
Cr3   O15   S    
C25   O18   A    
Cr3   O22   S    
C6    C7    A    
C26   C36   S    
Cr1   O22   S    
Cr2   O14   S    
Cr4   O11   S    
Cr1   O17   S    
Cr4   O24   S    
Cr6   O10   S    
C27   O17   A    
C9    C27   S    
C2    C36   T    
C15   C17   A    
C12   C30   A    
C14   C15   A    
C28   C31   A    
C3    C5    A    
C8    H11   S    
Cr5   O25   S    
C12   H8    S    
C14   H5    S    
C1    O13   A    
C16   C32   S    
C5    H4    S    
C17   C25   S    
C32   C33   T    
C16   O1    A    
C1    O4    A    
C11   C13   A    
C24   O5    A    
C26   O20   A    
Cr3   O16   S    
C25   O19   A    
C19   O26   A    
C10   H12   S    
C18   C33   S    
C4    C31   S    
C10   C11   A    
Cr1   O1    S    
Cr2   O13   S    
Cr1   O18   S    
Cr4   O23   S    
C20   O3    A    
C19   C30   S    
Cr6   O9    S    
Cr2   O19   S    
