data_mof_unit_11344.cif
_audit_creation_date              2013-03-05T15:47:46-0500
_audit_creation_method            fapswitch 2.2
_symmetry_space_group_name_H-M    P1
_symmetry_Int_Tables_number       1
_space_group_crystal_system       triclinic
_cell_length_a                    21.596507
_cell_length_b                    7.197323
_cell_length_c                    18.760944
_cell_angle_alpha                 91.308819
_cell_angle_beta                  95.870176
_cell_angle_gamma                 90.644619
_cell_volume                      2899.82634949

loop_
_atom_site_label
_atom_site_type_symbol
_atom_site_description
_atom_site_fract_x
_atom_site_fract_y
_atom_site_fract_z
_atom_type_partial_charge
O1    O     O_R   0.449650 0.506500 0.414480 -0.571006
O2    O     O_R   0.550350 0.006500 0.585520 -0.584583
O3    O     O_R   0.432010 0.173150 0.560250 -0.614329
O4    O     O_R   0.567990 0.673150 0.439750 -0.563441
C1    C     C_R   0.416527 0.344547 0.581175 1.033481
C2    C     C_R   0.583662 0.843787 0.418859 1.026145
O5    O     O_R   0.442320 0.176650 0.413480 -0.614020
O6    O     O_R   0.557680 0.676650 0.586520 -0.600383
O7    O     O_R   0.560730 0.008380 0.437700 -0.586867
O8    O     O_R   0.439270 0.508380 0.562300 -0.551461
C3    C     C_R   0.426660 0.343299 0.389245 1.069154
C4    C     C_R   0.571239 0.848546 0.612635 1.064440
O9    O     O_3   0.538840 0.339860 0.508120 -0.307415
O10   O     O_3   0.461160 0.839860 0.491880 -0.317507
V1    V     V_3+5 0.492800 0.064220 0.498490 1.152297
V2    V     V_3+5 0.507200 0.564220 0.501510 1.189478
C5    C     C_R   0.870802 0.787738 0.696472 0.297392
C6    C     C_R   0.121910 0.491958 0.311513 0.280843
C7    C     C_R   0.886716 0.918332 0.818994 -0.422805
C8    C     C_R   0.111564 0.449199 0.181593 -0.482971
C9    C     C_R   0.584949 0.878279 0.744820 -0.337941
C10   C     C_R   0.405036 0.259705 0.262667 -0.339101
C11   C     C_R   0.620505 0.896409 0.811175 0.659967
C12   C     C_R   0.365835 0.217667 0.200938 0.667147
C13   C     C_R   0.685997 0.902861 0.813670 -0.213074
C14   C     C_R   0.302306 0.256132 0.199631 -0.208595
C15   C     C_R   0.716009 0.908566 0.750447 0.076594
C16   C     C_R   0.278200 0.356588 0.255924 0.054497
C17   C     C_R   0.678692 0.892329 0.683435 -0.128904
C18   C     C_R   0.317965 0.389017 0.320912 -0.111678
C19   C     C_R   0.782549 0.915391 0.751856 -0.091753
C20   C     C_R   0.214137 0.412005 0.250613 -0.083327
C21   C     C_R   0.808856 0.852092 0.689643 -0.274332
C22   C     C_R   0.186832 0.455149 0.314793 -0.324065
C23   C     C_R   0.771740 0.852022 0.622699 0.515873
C24   C     C_R   0.225389 0.461432 0.380604 0.491500
C25   C     C_R   0.708879 0.901950 0.620785 0.344500
C26   C     C_R   0.290640 0.455919 0.381776 0.355186
C27   C     C_R   0.823630 0.975603 0.812847 0.287152
C28   C     C_R   0.176569 0.425540 0.183377 0.264831
C29   C     C_R   0.908201 0.809007 0.762907 0.423587
C30   C     C_R   0.084977 0.487410 0.245317 0.444064
C31   C     C_R   0.612817 0.870852 0.680776 -0.213370
C32   C     C_R   0.382578 0.341249 0.323238 -0.208841
H1    H     H_    0.534696 0.870111 0.743282 0.168326
H2    H     H_    0.453474 0.219997 0.264483 0.152633
H3    H     H_    0.713099 0.894490 0.865046 0.176058
H4    H     H_    0.271639 0.198309 0.155540 0.171216
C33   C     C_R   0.630668 0.735109 0.307034 0.543347
C34   C     C_R   0.375246 0.483386 0.690389 0.528541
C35   C     C_R   0.632428 0.853334 0.368348 -0.363122
C36   C     C_R   0.368454 0.355213 0.632086 -0.321535
C37   C     C_R   0.679643 0.988993 0.379938 -0.157855
C38   C     C_R   0.316038 0.237088 0.623052 -0.207099
C39   C     C_R   0.726215 0.007140 0.333403 -0.078102
C40   C     C_R   0.268259 0.252578 0.668648 -0.089359
C41   C     C_R   0.724744 0.890240 0.272019 -0.044244
C42   C     C_R   0.272905 0.389932 0.723934 -0.032793
C43   C     C_R   0.677101 0.752694 0.259145 0.035911
C44   C     C_R   0.326486 0.506343 0.734356 0.024256
C45   C     C_R   0.774285 0.140231 0.347926 0.403124
C46   C     C_R   0.215272 0.135754 0.658737 0.400315
C47   C     C_R   0.817875 0.168831 0.297908 0.438873
C48   C     C_R   0.165060 0.164615 0.700057 0.455580
C49   C     C_R   0.818264 0.048768 0.236590 -0.240005
C50   C     C_R   0.170676 0.294168 0.758952 -0.255817
C51   C     C_R   0.771014 0.909669 0.223772 -0.052611
C52   C     C_R   0.224570 0.409722 0.769531 -0.050316
C53   C     C_R   0.769558 0.789503 0.162722 0.022303
C54   C     C_R   0.230123 0.547798 0.824920 0.052127
C55   C     C_R   0.720960 0.656701 0.150117 -0.170488
C56   C     C_R   0.282898 0.666091 0.832494 -0.138867
C57   C     C_R   0.676152 0.637072 0.197911 -0.205894
C58   C     C_R   0.330490 0.644356 0.788522 -0.222108
C59   C     C_R   0.864562 0.063345 0.188041 0.341944
C60   C     C_R   0.124049 0.312481 0.807129 0.390355
C61   C     C_R   0.863792 0.941445 0.127737 -0.450426
C62   C     C_R   0.131163 0.443483 0.865036 -0.467413
C63   C     C_R   0.816341 0.803575 0.115414 0.289807
C64   C     C_R   0.183289 0.565758 0.871919 0.284469
H5    H     H_    0.680072 0.081222 0.425833 0.215642
H6    H     H_    0.312249 0.135138 0.579393 0.175797
H7    H     H_    0.717067 0.565597 0.103196 0.183737
H8    H     H_    0.288218 0.776591 0.872790 0.181025
H9    H     H_    0.640394 0.530892 0.186258 0.174953
H10   H     H_    0.370381 0.737787 0.796841 0.181334
O11   O     O_R   0.060820 0.290050 0.937800 -0.549452
O12   O     O_R   0.939180 0.790050 0.062200 -0.587123
O13   O     O_R   0.057690 0.616620 0.086540 -0.623964
O14   O     O_R   0.942310 0.116620 0.913460 -0.557213
C65   C     C_R   0.070990 0.451012 0.112875 1.142320
C66   C     C_R   0.928671 0.944946 0.887081 1.157684
O15   O     O_R   0.068010 0.619890 0.939770 -0.558546
O16   O     O_R   0.931990 0.119890 0.060230 -0.536111
O17   O     O_R   0.949640 0.787940 0.914460 -0.555413
O18   O     O_R   0.050360 0.287940 0.085540 -0.580246
C67   C     C_R   0.083640 0.451578 0.917958 1.087115
C68   C     C_R   0.915027 0.951375 0.080002 1.027697
O19   O     O_3   0.961210 0.453080 0.991940 -0.249782
O20   O     O_3   0.038790 0.953080 0.008060 -0.277801
V3    V     V_3+5 0.007200 0.728820 0.001500 1.340410
V4    V     V_3+5 0.992800 0.228820 0.998500 1.387449
O21   O     O_3   0.961661 0.704410 0.778308 -0.605337
C69   C     C_3   0.006998 0.738259 0.730966 0.101281
H11   H     H_    0.004697 0.628396 0.688368 0.156477
H12   H     H_    0.053677 0.725991 0.760958 0.156581
H13   H     H_    0.003747 0.878769 0.707588 0.143768
O22   O     O_3   0.021598 0.517753 0.242797 -0.547199
C70   C     C_3   0.010516 0.710742 0.242618 0.025200
H14   H     H_    0.960459 0.732160 0.225587 0.140338
H15   H     H_    0.037585 0.785963 0.204603 0.089086
H16   H     H_    0.020475 0.773115 0.297242 0.169156
O23   O     O_3   0.776827 0.249072 0.410158 -0.662884
C71   C     C_3   0.828380 0.196132 0.457486 -0.065297
H17   H     H_    0.871883 0.263121 0.443399 0.198762
H18   H     H_    0.834040 0.042565 0.459096 0.166559
H19   H     H_    0.821310 0.245599 0.512383 0.170268
O24   O     O_3   0.209796 0.001142 0.604492 -0.626086
C72   C     C_3   0.230986 0.831547 0.633509 -0.141321
H20   H     H_    0.202631 0.785814 0.676421 0.155789
H21   H     H_    0.281084 0.841553 0.654280 0.119158
H22   H     H_    0.226271 0.722836 0.590333 0.186629
O25   O     O_3   0.861761 0.310166 0.311536 -0.563395
C73   C     C_3   0.833842 0.480332 0.292073 -0.004730
H23   H     H_    0.797696 0.519418 0.327604 0.114057
H24   H     H_    0.813584 0.475208 0.235188 0.131057
H25   H     H_    0.870184 0.591322 0.297708 0.160280
O26   O     O_3   0.110988 0.061493 0.682774 -0.612377
C74   C     C_3   0.075255 0.148797 0.626068 -0.031364
H26   H     H_    0.097418 0.135423 0.575356 0.149803
H27   H     H_    0.067003 0.297825 0.638982 0.117411
H28   H     H_    0.029115 0.078536 0.616775 0.176609
N1    N     N_R   0.915579 0.192014 0.202432 0.270658
O27   O     O_R   0.965877 0.142218 0.240973 -0.386775
O28   O     O_R   0.913535 0.353536 0.172673 -0.330046
N2    N     N_R   0.069135 0.197820 0.798108 0.245477
O29   O     O_R   0.070288 0.034595 0.826301 -0.372432
O30   O     O_R   0.015882 0.270104 0.775885 -0.419418
N3    N     N_R   0.815980 0.676592 0.055078 0.241040
O31   O     O_R   0.822658 0.499359 0.065049 -0.347429
O32   O     O_R   0.811155 0.738214 0.990177 -0.380821
N4    N     N_R   0.190032 0.704398 0.928352 0.237039
O33   O     O_R   0.232950 0.686306 0.981417 -0.333893
O34   O     O_R   0.164702 0.865830 0.917956 -0.341648
O35   O     O_3   0.799180 0.835046 0.559346 -0.596952
C75   C     C_3   0.772593 0.681659 0.518335 -0.045828
H29   H     H_    0.725361 0.713512 0.492880 0.133832
H30   H     H_    0.770916 0.554483 0.550834 0.109490
H31   H     H_    0.802055 0.650663 0.474557 0.173639
O36   O     O_3   0.200623 0.485202 0.445189 -0.591173
C76   C     C_3   0.192874 0.308920 0.474398 -0.023407
H32   H     H_    0.157789 0.223246 0.440175 0.145066
H33   H     H_    0.175541 0.329108 0.527557 0.148237
H34   H     H_    0.237655 0.233663 0.482399 0.116595
N5    N     N_R   0.892300 0.675981 0.640109 0.246165
O37   O     O_R   0.883830 0.496663 0.639017 -0.398832
O38   O     O_R   0.921823 0.752511 0.591001 -0.391391
N6    N     N_R   0.092514 0.539632 0.374541 0.263706
O39   O     O_R   0.046362 0.438446 0.392034 -0.327382
O40   O     O_R   0.103794 0.701185 0.406091 -0.369268
N7    N     N_R   0.802714 0.107499 0.863815 0.238053
O41   O     O_R   0.816756 0.089794 0.932366 -0.380232
O42   O     O_R   0.768589 0.246491 0.841337 -0.379437
N8    N     N_R   0.205126 0.448072 0.118167 0.228195
O43   O     O_R   0.185723 0.351899 0.060449 -0.423174
O44   O     O_R   0.251558 0.564381 0.116950 -0.354329
O45   O     O_3   0.589371 0.889996 0.872353 -0.631733
C77   C     C_3   0.613744 0.022936 0.924654 -0.184707
H35   H     H_    0.624536 0.158714 0.900959 0.150185
H36   H     H_    0.655467 0.968396 0.956617 0.171687
H37   H     H_    0.578169 0.049187 0.962217 0.164982
O46   O     O_3   0.389961 0.120153 0.145701 -0.631846
C78   C     C_3   0.375072 0.209062 0.079926 -0.127727
H38   H     H_    0.382698 0.362519 0.084845 0.141880
H39   H     H_    0.326494 0.175629 0.057557 0.184872
H40   H     H_    0.406166 0.155285 0.040885 0.156569
O47   O     O_3   0.679635 0.977833 0.559503 -0.657569
C79   C     C_3   0.681806 0.173520 0.569604 -0.108857
H41   H     H_    0.730627 0.226745 0.575658 0.123976
H42   H     H_    0.657846 0.219301 0.616658 0.136523
H43   H     H_    0.657169 0.239511 0.522339 0.165512
O48   O     O_3   0.326439 0.498182 0.445589 -0.654086
C80   C     C_3   0.325433 0.692571 0.458226 -0.067339
H44   H     H_    0.277576 0.747175 0.459168 0.144032
H45   H     H_    0.349613 0.766932 0.417473 0.128743
H46   H     H_    0.349942 0.725283 0.511893 0.165955
O49   O     O_3   0.584272 0.600501 0.294438 -0.624302
C81   C     C_3   0.532204 0.680128 0.255510 -0.208875
H47   H     H_    0.495819 0.570795 0.243470 0.174334
H48   H     H_    0.544097 0.734420 0.203445 0.138311
H49   H     H_    0.511915 0.792333 0.287223 0.127889
O50   O     O_3   0.430370 0.583303 0.705441 -0.633349
C82   C     C_3   0.471834 0.473597 0.749265 -0.224960
H50   H     H_    0.453599 0.446569 0.801501 0.147629
H51   H     H_    0.516709 0.549386 0.760887 0.182412
H52   H     H_    0.481897 0.339933 0.721980 0.121249

loop_
_geom_bond_atom_site_label_1
_geom_bond_atom_site_label_2
_geom_bond_distance
_ccdc_geom_bond_type
C63   N3    1.437873 S    
C47   C49   1.423699 A    
O18   V4    1.983437 S    
C47   O25   1.383934 S    
C15   C17   1.423954 A    
C50   C52   1.417471 A    
O1    C3    1.328065 A    
O2    C4    1.321257 A    
O26   C74   1.412681 S    
C2    O7    1.342926 A    
C69   H12   1.108568 S    
C71   H17   1.109695 S    
C60   N2    1.430634 S    
O25   C73   1.410286 S    
C78   H38   1.115195 S    
O5    C3    1.327522 A    
N8    O44   1.301332 A    
C81   H49   1.112422 S    
C81   H48   1.113228 S    
N8    O43   1.301429 A    
C23   C25   1.405350 A    
C60   C62   1.417261 A    
C28   N8    1.436841 S    
C4    C31   1.489611 S    
C70   H15   1.113239 S    
O35   C75   1.413145 S    
C8    C28   1.413159 A    
C62   C64   1.414638 A    
C77   H36   1.110766 S    
C72   H22   1.109540 S    
N5    O38   1.301600 A    
O16   C68   1.334605 A    
C42   C44   1.415514 A    
O11   V4    1.999885 S    
O22   C70   1.412151 S    
C18   C26   1.415305 A    
C37   H5    1.074346 S    
C23   O35   1.384876 S    
C76   H34   1.112219 S    
C45   C47   1.412214 A    
O24   C72   1.409858 S    
O14   V4    1.987960 S    
C46   C48   1.410554 A    
C7    C66   1.495846 S    
O21   C69   1.410423 S    
C65   O18   1.324018 A    
C9    C31   1.398009 A    
O14   C66   1.338817 A    
C77   H37   1.109298 S    
C10   C32   1.399888 A    
C19   C27   1.430130 A    
C49   C51   1.420280 A    
O17   V3    2.005320 S    
C34   C36   1.409621 A    
C76   H32   1.112855 S    
C19   C21   1.417682 A    
C1    C36   1.482350 S    
C2    C35   1.489087 S    
C27   N7    1.440863 S    
C34   O50   1.384489 S    
C43   C57   1.401350 A    
C55   H7    1.081275 S    
C14   H4    1.078003 S    
C74   H28   1.108238 S    
C37   C39   1.404539 A    
O6    V2    1.988081 S    
C17   C31   1.424980 A    
C76   H33   1.107624 S    
N6    O40   1.301679 A    
C18   C32   1.437471 A    
C5    C21   1.415023 A    
C41   C51   1.423047 A    
C9    H1    1.083621 S    
C1    O8    1.341143 A    
C69   H11   1.108384 S    
N7    O42   1.301543 A    
C36   C38   1.401943 A    
O12   V3    1.995701 S    
C75   H30   1.113618 S    
C78   H39   1.111000 S    
C8    C65   1.483257 S    
C38   C40   1.409856 A    
C53   C55   1.409740 A    
C75   H29   1.109852 S    
C54   C64   1.413280 A    
C79   H43   1.106088 S    
C79   H41   1.111648 S    
C16   C20   1.438489 A    
C56   C58   1.390180 A    
C70   H16   1.108934 S    
O15   V3    1.993338 S    
O45   C77   1.412610 S    
C55   C57   1.393065 A    
O5    V1    2.027331 S    
C48   O26   1.382653 S    
C15   C19   1.434828 A    
C54   C56   1.408410 A    
C66   O17   1.317697 A    
C33   C35   1.412211 A    
C71   H18   1.114134 S    
C51   C53   1.416899 A    
C48   C50   1.424078 A    
O4    V2    2.002563 S    
C80   H44   1.111556 S    
C39   C41   1.408105 A    
C6    N6    1.434892 S    
C75   H31   1.109464 S    
C6    C22   1.425236 A    
O15   C67   1.328040 A    
C79   H42   1.113393 S    
C33   O49   1.384819 S    
O12   C68   1.327918 A    
O6    C4    1.338371 A    
C82   H52   1.113420 S    
C50   C60   1.425502 A    
C62   C67   1.499903 S    
C82   H51   1.106245 S    
C61   C63   1.416483 A    
C7    C29   1.418418 A    
C61   C68   1.495090 S    
O1    V2    1.981300 S    
C58   H10   1.083250 S    
O2    V1    2.002687 S    
C59   C61   1.414385 A    
C57   H9    1.082930 S    
C56   H8    1.081636 S    
C72   H21   1.112817 S    
C7    C27   1.421995 A    
C73   H25   1.109233 S    
C11   O45   1.389657 S    
C42   C52   1.422017 A    
C77   H35   1.114824 S    
C10   H2    1.084900 S    
C82   H50   1.113222 S    
C64   N4    1.433441 S    
C9    C11   1.396855 A    
C45   O23   1.387054 S    
N1    O27   1.300462 A    
C10   C12   1.388218 A    
C53   C63   1.415639 A    
O4    C2    1.347677 A    
O13   C65   1.323970 A    
C24   C26   1.408140 A    
C5    N5    1.432011 S    
C3    C32   1.482497 S    
C38   H6    1.083280 S    
C20   C28   1.434203 A    
O3    V1    1.993385 S    
O46   C78   1.412509 S    
N3    O31   1.300948 A    
N2    O30   1.300949 A    
C73   H24   1.110872 S    
O23   C71   1.412795 S    
C78   H40   1.109382 S    
C13   H3    1.078573 S    
O13   V3    2.027147 S    
O10   V1    1.743140 S    
C12   C14   1.400575 A    
N2    O29   1.298788 A    
O3    C1    1.342274 A    
C26   O48   1.382840 S    
C8    C30   1.401263 A    
C72   H20   1.113497 S    
C59   N1    1.431506 S    
C13   C15   1.409810 A    
C25   O47   1.380901 S    
C14   C16   1.412510 A    
C33   C43   1.419659 A    
C80   H46   1.107547 S    
C34   C44   1.411378 A    
O50   C82   1.412904 S    
C6    C30   1.405168 A    
C74   H26   1.110645 S    
C16   C18   1.430663 A    
O8    V2    1.991072 S    
C70   H14   1.109002 S    
N3    O32   1.299943 A    
C24   O36   1.381526 S    
N6    O39   1.301170 A    
N7    O41   1.300303 A    
C39   C45   1.406201 A    
C44   C58   1.400289 A    
O20   V3    1.742064 S    
C21   C23   1.419139 A    
C22   C24   1.416386 A    
C40   C42   1.411672 A    
C40   C46   1.406679 A    
C11   C13   1.410584 A    
O7    V1    1.987214 S    
C12   O46   1.386875 S    
C5    C29   1.418392 A    
C46   O24   1.384238 S    
C71   H19   1.107903 S    
C41   C43   1.418581 A    
C29   O21   1.394451 S    
C74   H27   1.114537 S    
O49   C81   1.411349 S    
O19   V4    1.761389 S    
O16   V4    2.002505 S    
C80   H45   1.112553 S    
C52   C54   1.416500 A    
O47   C79   1.416423 S    
O9    V2    1.762524 S    
C17   C25   1.403839 A    
N5    O37   1.300874 A    
N1    O28   1.300335 A    
O36   C76   1.408478 S    
C81   H47   1.108772 S    
N4    O33   1.298863 A    
C35   C37   1.401038 A    
C30   O22   1.384704 S    
C69   H13   1.111564 S    
N4    O34   1.300038 A    
C49   C59   1.424305 A    
O48   C80   1.414457 S    
C20   C22   1.423469 A    
C73   H23   1.111602 S    
O11   C67   1.333200 A    
