data_mof_unit_19920.cif
_audit_creation_date              2012-12-11T14:13:07-0500
_audit_creation_method            fapswitch 2.2
_symmetry_space_group_name_H-M    P1
_symmetry_Int_Tables_number       1
_space_group_crystal_system       triclinic
_cell_length_a                    11.414175
_cell_length_b                    18.653723
_cell_length_c                    10.033369
_cell_angle_alpha                 90.000026
_cell_angle_beta                  108.935251
_cell_angle_gamma                 89.999108
_cell_volume                      2020.67087721

loop_
_atom_site_label
_atom_site_type_symbol
_atom_type_description
_atom_site_fract_x
_atom_site_fract_y
_atom_site_fract_z
_atom_type_partial_charge
C1    C     C_R   0.071454 0.646784 0.140980 0.522121
C2    C     C_R   0.928559 0.353210 0.859026 0.522091
C3    C     C_R   0.928542 0.146782 0.859020 0.522105
C4    C     C_R   0.071436 0.853209 0.140973 0.522095
C5    C     C_R   0.429604 0.472007 0.581897 0.013808
C6    C     C_R   0.570409 0.527989 0.418197 0.013791
C7    C     C_R   0.570371 0.972011 0.418080 0.013786
C8    C     C_R   0.429582 0.027988 0.581803 0.013797
C9    C     C_2   0.421934 0.918812 0.915683 -0.108745
C10   C     C_2   0.578059 0.081185 0.084297 -0.108749
C11   C     C_2   0.578063 0.418811 0.084315 -0.108740
C12   C     C_2   0.421942 0.581186 0.915700 -0.108747
C13   C     C_2   0.459523 0.971698 0.009367 -0.165707
C14   C     C_2   0.540405 0.028319 0.990568 -0.165650
C15   C     C_2   0.540472 0.471696 0.990623 -0.165701
C16   C     C_2   0.459585 0.528317 0.009417 -0.165670
C17   C     C_2   0.015043 0.924351 0.120838 -0.106010
C18   C     C_2   0.984875 0.075626 0.879132 -0.106007
C19   C     C_2   0.984936 0.424355 0.879158 -0.106025
C20   C     C_2   0.015100 0.575634 0.120864 -0.105989
C21   C     C_2   0.992889 0.960152 0.998714 0.139501
C22   C     C_2   0.007052 0.039825 0.001258 0.139484
C23   C     C_2   0.007090 0.460157 0.001283 0.139500
C24   C     C_2   0.992932 0.539832 0.998740 0.139495
C25   C     C_R   0.436253 0.637314 0.373687 0.542951
C26   C     C_R   0.563755 0.362681 0.626342 0.542979
C27   C     C_R   0.563746 0.137312 0.626313 0.542935
C28   C     C_R   0.436241 0.862681 0.373654 0.542986
C29   C     C_R   0.378530 0.646121 0.963223 0.547686
C30   C     C_R   0.621470 0.353878 0.036781 0.547672
C31   C     C_R   0.621471 0.146120 0.036776 0.547679
C32   C     C_R   0.378528 0.853879 0.963221 0.547667
C33   C     C_R   0.541928 0.438838 0.583549 -0.046735
C34   C     C_R   0.458080 0.561163 0.416535 -0.046702
C35   C     C_R   0.458055 0.938839 0.416438 -0.046736
C36   C     C_R   0.541909 0.061160 0.583461 -0.046717
C37   C     C_R   0.358333 0.449418 0.667701 -0.084608
C38   C     C_R   0.641701 0.550564 0.332407 -0.084627
C39   C     C_R   0.641643 0.949422 0.332275 -0.084637
C40   C     C_R   0.358299 0.050565 0.667603 -0.084631
C41   C     C_R   0.238858 0.474944 0.645041 -0.129434
C42   C     C_R   0.761186 0.525035 0.355114 -0.129436
C43   C     C_R   0.761117 0.974949 0.354936 -0.129451
C44   C     C_R   0.238821 0.025033 0.644912 -0.129435
C45   C     C_R   0.187090 0.521711 0.534678 -0.126326
C46   C     C_R   0.812957 0.478301 0.465542 -0.126231
C47   C     C_R   0.812894 0.021707 0.465325 -0.126275
C48   C     C_R   0.187047 0.978293 0.534490 -0.126231
C49   C     C_R   0.258672 0.545847 0.455237 -0.071752
C50   C     C_R   0.741355 0.454188 0.544981 -0.071595
C51   C     C_R   0.741319 0.045828 0.544792 -0.071651
C52   C     C_R   0.258638 0.954183 0.455034 -0.071595
C53   C     C_R   0.382970 0.527605 0.486050 0.002800
C54   C     C_R   0.617043 0.472404 0.514071 0.002795
C55   C     C_R   0.617011 0.027601 0.513941 0.002807
C56   C     C_R   0.382946 0.972404 0.485928 0.002805
Cr1   Cr    Cr6+3 0.187610 0.750000 0.979860 0.977921
Cr2   Cr    Cr6+3 0.812390 0.250000 0.020140 0.977925
Cr3   Cr    Cr6+3 0.245810 0.750000 0.341640 1.015845
Cr4   Cr    Cr6+3 0.754190 0.250000 0.658360 1.015867
Cr5   Cr    Cr6+3 0.485760 0.750000 0.219910 0.997886
Cr6   Cr    Cr6+3 0.514240 0.250000 0.780090 0.997887
H1    H     H_    0.091509 0.538305 0.508656 0.096669
H2    H     H_    0.908552 0.461720 0.491615 0.096675
H3    H     H_    0.908480 0.038297 0.491358 0.096670
H4    H     H_    0.091457 0.961704 0.508434 0.096676
H5    H     H_    0.392842 0.411891 0.752964 0.160032
H6    H     H_    0.607213 0.588087 0.247135 0.160005
H7    H     H_    0.607136 0.911892 0.247019 0.160042
H8    H     H_    0.392792 0.088087 0.752875 0.160007
H9    H     H_    0.216836 0.573833 0.361798 0.154372
H10   H     H_    0.783161 0.426240 0.638510 0.154215
H11   H     H_    0.783153 0.073783 0.638323 0.154237
H12   H     H_    0.216830 0.926233 0.361498 0.154225
H13   H     H_    0.565803 0.028969 0.895070 0.124650
H14   H     H_    0.434094 0.971060 0.104833 0.124671
H15   H     H_    0.434196 0.528972 0.104910 0.124669
H16   H     H_    0.565899 0.471054 0.895154 0.124667
H17   H     H_    0.559148 0.081134 0.183604 0.118833
H18   H     H_    0.440970 0.918831 0.816460 0.118807
H19   H     H_    0.440883 0.581140 0.816420 0.118828
H20   H     H_    0.559029 0.418833 0.183539 0.118801
H21   H     H_    0.976245 0.047156 0.782827 0.090842
H22   H     H_    0.023615 0.952818 0.217134 0.090814
H23   H     H_    0.023704 0.547167 0.217170 0.090835
H24   H     H_    0.976360 0.452822 0.782861 0.090819
O1    O     O_R   0.267710 0.668200 0.902110 -0.522482
O2    O     O_R   0.732290 0.331800 0.097890 -0.522464
O3    O     O_R   0.732290 0.168200 0.097890 -0.522478
O4    O     O_R   0.267710 0.831800 0.902110 -0.522463
O5    O     O_R   0.099480 0.674460 0.038850 -0.485154
O6    O     O_R   0.900520 0.325540 0.961150 -0.485153
O7    O     O_R   0.900520 0.174460 0.961150 -0.485157
O8    O     O_R   0.099480 0.825540 0.038850 -0.485149
O9    O     O_R   0.116720 0.669210 0.267660 -0.548200
O10   O     O_R   0.883280 0.330790 0.732340 -0.548138
O11   O     O_R   0.883280 0.169210 0.732340 -0.548153
O12   O     O_R   0.116720 0.830790 0.267660 -0.548144
O13   O     O_R   0.366710 0.675440 0.427590 -0.479796
O14   O     O_R   0.633290 0.324560 0.572410 -0.479743
O15   O     O_R   0.633290 0.175440 0.572410 -0.479765
O16   O     O_R   0.366710 0.824560 0.427590 -0.479746
O17   O     O_R   0.534870 0.669390 0.371760 -0.507573
O18   O     O_R   0.465130 0.330610 0.628240 -0.507580
O19   O     O_R   0.465130 0.169390 0.628240 -0.507573
O20   O     O_R   0.534870 0.830610 0.371760 -0.507576
O21   O     O_R   0.453080 0.674480 0.075160 -0.526679
O22   O     O_R   0.546920 0.325520 0.924840 -0.526719
O23   O     O_R   0.546920 0.174480 0.924840 -0.526677
O24   O     O_R   0.453080 0.825520 0.075160 -0.526723
O25   O     O_3   0.306390 0.750000 0.180470 -0.284058
O26   O     O_3   0.693610 0.250000 0.819530 -0.284061
H25   H     H_    0.185199 0.456102 0.709349 0.103536
H26   H     H_    0.814862 0.543862 0.290812 0.103524
H27   H     H_    0.814773 0.956111 0.290619 0.103541
H28   H     H_    0.185154 0.043859 0.709225 0.103537
N1    N     N_2   0.057973 0.077129 0.132527 -0.526557
H29   H     H_    0.113609 0.120538 0.131005 0.256209
C57   C     C_3   0.979527 0.087420 0.219207 -0.260842
H30   H     H_    0.963634 0.145487 0.230357 0.176663
H31   H     H_    0.027176 0.066177 0.326144 0.126335
H32   H     H_    0.888915 0.059823 0.174290 0.165704
N2    N     N_2   0.942017 0.922845 0.867446 -0.526574
H33   H     H_    0.886394 0.879429 0.868942 0.256218
C58   C     C_3   0.020480 0.912586 0.780782 -0.260864
H34   H     H_    0.036410 0.854528 0.769623 0.176683
H35   H     H_    0.111070 0.940197 0.825720 0.165703
H36   H     H_    0.972826 0.933830 0.673845 0.126334
N3    N     N_2   0.942042 0.577141 0.867465 -0.526542
H37   H     H_    0.886411 0.620559 0.868967 0.256204
C59   C     C_3   0.020507 0.587413 0.780796 -0.260849
H38   H     H_    0.036452 0.645475 0.769673 0.176714
H39   H     H_    0.972834 0.566194 0.673841 0.126328
H40   H     H_    0.111095 0.559784 0.825709 0.165674
N4    N     N_2   0.057965 0.422848 0.132556 -0.526543
H41   H     H_    0.113586 0.379428 0.131055 0.256214
C60   C     C_3   0.979504 0.412591 0.219226 -0.260854
H42   H     H_    0.963563 0.354531 0.230370 0.176696
H43   H     H_    0.888916 0.440213 0.174297 0.165681
H44   H     H_    0.027170 0.433825 0.326173 0.126349

loop_
_geom_bond_atom_site_label_1
_geom_bond_atom_site_label_2
_ccdc_geom_bond_type
C22   N1    S    
C44   C48   A    
C4    O12   A    
C12   C29   S    
Cr3   O13   S    
C7    C55   A    
C59   H40   S    
C6    C34   A    
C8    C56   A    
Cr2   O6    S    
N4    H41   S    
Cr6   O19   S    
C10   H17   S    
C60   H43   S    
C50   C54   A    
C40   H8    S    
Cr2   O26   S    
C5    C53   A    
Cr5   O17   S    
Cr2   O7    S    
C38   C42   A    
C52   H12   S    
N1    C57   S    
C42   C46   A    
N2    C58   S    
C15   H16   S    
Cr6   O22   S    
C5    C37   A    
C27   O19   A    
C15   C16   S    
C3    C18   S    
C16   H15   S    
C8    C36   A    
C9    C13   D    
C50   H10   S    
C9    C32   S    
C26   O18   A    
C11   C15   D    
C24   N3    S    
C42   H26   S    
C32   O4    A    
C20   C24   D    
C11   C30   S    
C28   O20   A    
C31   O3    A    
C5    C33   A    
C58   H36   S    
Cr3   O25   S    
C23   C24   S    
C6    C38   A    
C40   C44   A    
C25   C34   S    
C43   H27   S    
C19   H24   S    
C35   C56   A    
C1    O5    A    
C21   C22   S    
Cr3   O9    S    
C6    C54   A    
Cr5   O24   S    
C10   C31   S    
C25   O13   A    
Cr6   O18   S    
C57   H31   S    
C11   H20   S    
C39   H7    S    
C60   H44   S    
Cr1   O4    S    
C12   C16   D    
N2    H33   S    
C28   C35   S    
Cr4   O11   S    
C10   C14   D    
C25   O17   A    
C39   C43   A    
Cr4   O14   S    
C27   O15   A    
C17   C21   D    
Cr1   O1    S    
C46   H2    S    
C9    H18   S    
C21   N2    S    
C19   C23   D    
Cr4   O26   S    
C3    O11   A    
C26   C33   S    
C13   H14   S    
C45   C49   A    
C1    O9    A    
C20   H23   S    
C18   H21   S    
C31   O23   A    
C3    O7    A    
C2    O6    A    
Cr5   O20   S    
C32   O24   A    
C4    O8    A    
C4    C17   S    
Cr4   O10   S    
C38   H6    S    
Cr1   O8    S    
C58   H34   S    
C30   O2    A    
Cr4   O15   S    
Cr5   O25   S    
N3    H37   S    
C57   H32   S    
C33   C54   A    
N4    C60   S    
C1    C20   S    
C7    C39   A    
Cr1   O5    S    
C30   O22   A    
C2    C19   S    
C18   C22   D    
Cr3   O16   S    
C7    C35   A    
C51   H11   S    
C41   H25   S    
C59   H39   S    
Cr2   O2    S    
C47   C51   A    
C57   H30   S    
C27   C36   S    
C60   H42   S    
C46   C50   A    
C23   N4    S    
C17   H22   S    
C14   H13   S    
C2    O10   A    
C36   C55   A    
N1    H29   S    
Cr1   O25   S    
Cr6   O23   S    
C52   C56   A    
C49   C53   A    
C37   H5    S    
C45   H1    S    
C12   H19   S    
C51   C55   A    
C37   C41   A    
Cr5   O21   S    
Cr2   O3    S    
C29   O1    A    
C28   O16   A    
C48   C52   A    
Cr6   O26   S    
C44   H28   S    
C34   C53   A    
C49   H9    S    
C58   H35   S    
Cr3   O12   S    
C41   C45   A    
C29   O21   A    
C8    C40   A    
C48   H4    S    
C13   C14   S    
C43   C47   A    
C47   H3    S    
C59   H38   S    
C26   O14   A    
N3    C59   S    
