data_mof_unit_10295.cif
_audit_creation_date              2013-03-05T15:41:56-0500
_audit_creation_method            fapswitch 2.2
_symmetry_space_group_name_H-M    P1
_symmetry_Int_Tables_number       1
_space_group_crystal_system       triclinic
_cell_length_a                    19.396045
_cell_length_b                    7.251723
_cell_length_c                    17.715706
_cell_angle_alpha                 89.999902
_cell_angle_beta                  107.674447
_cell_angle_gamma                 89.999979
_cell_volume                      2374.17772558

loop_
_atom_site_label
_atom_site_type_symbol
_atom_site_description
_atom_site_fract_x
_atom_site_fract_y
_atom_site_fract_z
_atom_type_partial_charge
O1    O     O_R   0.414820 0.494320 0.416790 -0.556982
O2    O     O_R   0.585180 0.994320 0.583210 -0.556982
O3    O     O_R   0.560270 0.819500 0.430140 -0.559699
O4    O     O_R   0.439730 0.319500 0.569860 -0.559700
C1    C     C_R   0.581312 0.655475 0.414915 0.822525
C2    C     C_R   0.418688 0.155475 0.585085 0.822527
O5    O     O_R   0.413840 0.823740 0.407440 -0.557449
O6    O     O_R   0.586160 0.323740 0.592560 -0.557449
O7    O     O_R   0.437710 0.998590 0.560350 -0.560526
O8    O     O_R   0.562290 0.498590 0.439650 -0.560526
C3    C     C_R   0.387610 0.654933 0.385265 0.823925
C4    C     C_R   0.612390 0.154933 0.614734 0.823926
O9    O     O_3   0.508000 0.662290 0.550200 -0.285913
O10   O     O_3   0.492000 0.162290 0.449800 -0.285913
V1    V     V_3+5 0.498520 0.935380 0.490690 1.130113
V2    V     V_3+5 0.501480 0.435380 0.509310 1.130113
C5    C     C_2   0.785159 0.271597 0.788697 -0.082790
C6    C     C_2   0.214841 0.771597 0.211303 -0.082790
C7    C     C_2   0.820375 0.113468 0.817154 -0.196183
C8    C     C_2   0.179624 0.613467 0.182846 -0.196184
C9    C     C_2   0.717292 0.284424 0.720609 -0.089958
C10   C     C_2   0.282707 0.784424 0.279391 -0.089958
C11   C     C_2   0.679294 0.138471 0.682590 -0.200155
C12   C     C_2   0.320706 0.638472 0.317410 -0.200156
C13   C     C_R   0.320429 0.293241 0.631795 -0.115108
C14   C     C_R   0.679574 0.793236 0.368209 -0.115109
C15   C     C_R   0.368999 0.147695 0.634197 -0.105116
C16   C     C_R   0.631001 0.647695 0.365803 -0.105116
C17   C     C_R   0.369530 0.995118 0.683356 -0.093492
C18   C     C_R   0.630467 0.495124 0.316641 -0.093491
C19   C     C_R   0.322844 0.988345 0.730434 -0.008683
C20   C     C_R   0.677154 0.488349 0.269564 -0.008682
C21   C     C_R   0.273311 0.132760 0.726534 0.044431
C22   C     C_R   0.726689 0.632760 0.273466 0.044428
C23   C     C_R   0.272049 0.285744 0.676732 0.065676
C24   C     C_R   0.727954 0.785740 0.323272 0.065675
C25   C     C_R   0.325555 0.840022 0.781816 -0.127051
C26   C     C_R   0.674440 0.340031 0.218179 -0.127049
C27   C     C_R   0.279577 0.831599 0.829680 0.337912
C28   C     C_R   0.720420 0.331606 0.170316 0.337915
C29   C     C_R   0.228346 0.975042 0.824976 -0.038933
C30   C     C_R   0.771652 0.475045 0.175023 -0.038932
C31   C     C_R   0.225416 0.125271 0.772803 -0.001489
C32   C     C_R   0.774584 0.625272 0.227197 -0.001488
C33   C     C_R   0.175428 0.270456 0.767696 0.105048
C34   C     C_R   0.824574 0.770453 0.232306 0.105045
C35   C     C_R   0.174139 0.420441 0.717183 -0.049973
C36   C     C_R   0.825866 0.920434 0.282822 -0.049982
C37   C     C_R   0.222406 0.428775 0.672646 -0.108166
C38   C     C_R   0.777599 0.928767 0.327361 -0.108166
C39   C     C_R   0.181519 0.976507 0.872380 -0.069792
C40   C     C_R   0.818479 0.476509 0.127618 -0.069791
C41   C     C_R   0.130826 0.118641 0.866331 -0.124187
C42   C     C_R   0.869174 0.618640 0.133669 -0.124184
C43   C     C_R   0.128201 0.265253 0.813964 -0.049396
C44   C     C_R   0.871800 0.765251 0.186038 -0.049399
H1    H     H_    0.407295 0.883214 0.686099 0.093604
H2    H     H_    0.592700 0.383224 0.313895 0.093602
H3    H     H_    0.089480 0.375762 0.809398 0.084375
H4    H     H_    0.910523 0.875757 0.190605 0.084370
O11   O     O_R   0.937810 0.773680 0.060480 -0.541623
O12   O     O_R   0.062190 0.273680 0.939520 -0.541623
O13   O     O_R   0.086190 0.439740 0.092580 -0.557128
O14   O     O_R   0.913810 0.939740 0.907420 -0.557129
C45   C     C_R   0.112477 0.608303 0.114718 0.831201
C46   C     C_R   0.887523 0.108303 0.885282 0.831200
O15   O     O_R   0.939760 0.444210 0.069890 -0.562382
O16   O     O_R   0.060240 0.944210 0.930110 -0.562382
O17   O     O_R   0.914790 0.269640 0.916760 -0.558935
O18   O     O_R   0.085210 0.769640 0.083240 -0.558935
C47   C     C_R   0.919011 0.612341 0.084694 0.803914
C48   C     C_R   0.080989 0.112341 0.915306 0.803914
O19   O     O_3   0.992050 0.601530 0.949880 -0.286335
O20   O     O_3   0.007950 0.101530 0.050120 -0.286336
V3    V     V_3+5 0.001480 0.328340 0.009300 1.148677
V4    V     V_3+5 0.998520 0.828340 0.990700 1.148677
H5    H     H_    0.807030 0.401659 0.816025 0.106335
H6    H     H_    0.192970 0.901659 0.183975 0.106336
H7    H     H_    0.136435 0.533046 0.713054 0.065549
H8    H     H_    0.863571 0.033036 0.286953 0.065547
H9    H     H_    0.220864 0.547299 0.634909 0.061788
H10   H     H_    0.779144 0.047286 0.365100 0.061790
H11   H     H_    0.800225 0.981995 0.790565 0.071622
H12   H     H_    0.199775 0.481995 0.209435 0.071622
H13   H     H_    0.697975 0.422557 0.701758 0.102723
H14   H     H_    0.302024 0.922557 0.298241 0.102722
H15   H     H_    0.697152 0.999500 0.700839 0.078162
H16   H     H_    0.302848 0.499500 0.299161 0.078163
H17   H     H_    0.319337 0.411001 0.593722 0.077941
H18   H     H_    0.680669 0.910992 0.406285 0.077939
H19   H     H_    0.363821 0.729223 0.784793 0.125149
H20   H     H_    0.636172 0.229236 0.215199 0.125147
N1    N     N_R   0.287150 0.678047 0.883108 0.083732
O21   O     O_R   0.230605 0.588656 0.888114 -0.399954
O22   O     O_R   0.350936 0.609015 0.917370 -0.329773
N2    N     N_R   0.712845 0.178058 0.116886 0.083732
O23   O     O_R   0.769389 0.088657 0.111883 -0.399948
O24   O     O_R   0.649057 0.109047 0.082616 -0.329770
H21   H     H_    0.184815 0.870618 0.916100 0.152774
H22   H     H_    0.815183 0.370621 0.083898 0.152771

loop_
_geom_bond_atom_site_label_1
_geom_bond_atom_site_label_2
_geom_bond_distance
_ccdc_geom_bond_type
C18   C20   1.405901 A    
O13   C45   1.336620 A    
N1    O21   1.299993 A    
C43   H3    1.084396 S    
C15   C17   1.406168 A    
O1    C3    1.329674 A    
C35   H7    1.083732 S    
O2    C4    1.329674 A    
C2    O7    1.311731 A    
O3    V1    2.017780 S    
C27   C29   1.423397 A    
O5    C3    1.338029 A    
C4    C11   1.481904 S    
C46   O17   1.334325 A    
C45   O18   1.334325 A    
C26   H20   1.084188 S    
C3    C12   1.481904 S    
C7    C46   1.483184 S    
C33   C35   1.403850 A    
C37   H9    1.083703 S    
C27   N1    1.439775 S    
C21   C23   1.413036 A    
C42   C47   1.482741 S    
C40   C42   1.405942 A    
N2    O24   1.301427 A    
C23   C37   1.402094 A    
C19   C21   1.408635 A    
C20   C26   1.399717 A    
C6    C8    1.351515 D    
C6    H6    1.085911 S    
O11   C47   1.334471 A    
C36   C38   1.396854 A    
O6    V2    2.014280 S    
C11   H15   1.082643 S    
C29   C31   1.418615 A    
C30   C32   1.418617 A    
C28   N2    1.439773 S    
C7    H11   1.082508 S    
C32   C34   1.415437 A    
C9    H13   1.085969 S    
C41   C43   1.401769 A    
O11   V4    1.988919 S    
C39   H21   1.078672 S    
C25   C27   1.406138 A    
C42   C44   1.401773 A    
O20   V3    1.785732 S    
C25   H19   1.084185 S    
C21   C31   1.414274 A    
C8    C45   1.483184 S    
C22   C32   1.414275 A    
C35   C37   1.396850 A    
O5    V1    2.014283 S    
C40   H22   1.078677 S    
C5    C9    1.494068 S    
C19   C25   1.399716 A    
O16   C48   1.334681 A    
C39   C41   1.405939 A    
C20   C22   1.408636 A    
O4    V2    2.017778 S    
C1    C16   1.482629 S    
C12   H16   1.082643 S    
C2    C15   1.482630 S    
O6    C4    1.338029 A    
N2    O23   1.299992 A    
C5    H5    1.085912 S    
O14   V4    2.014184 S    
O12   C48   1.334471 A    
O1    V2    2.005390 S    
O2    V1    2.005391 S    
C31   C33   1.415435 A    
O14   C46   1.336620 A    
C13   C23   1.403896 A    
C14   C24   1.403896 A    
C17   H1    1.084353 S    
C9    C11   1.347459 D    
O18   V4    2.005562 S    
C13   C15   1.406746 A    
O19   V4    1.785734 S    
C10   C12   1.347460 D    
O12   V3    1.988919 S    
O4    C2    1.311866 A    
O16   V4    2.017815 S    
C24   C38   1.402096 A    
C38   H10   1.083706 S    
C6    C10   1.494066 S    
C13   H17   1.084412 S    
O3    C1    1.311867 A    
C14   H18   1.084415 S    
C14   C16   1.406748 A    
C36   H8    1.083734 S    
C8    H12   1.082509 S    
O7    V1    2.002015 S    
C16   C18   1.406168 A    
C17   C19   1.405899 A    
O8    V2    2.002014 S    
C26   C28   1.406138 A    
O13   V3    2.014187 S    
C18   H2    1.084354 S    
C28   C30   1.423398 A    
C5    C7    1.351514 D    
C22   C24   1.413037 A    
O17   V3    2.005564 S    
O15   C47   1.334681 A    
C10   H14   1.085970 S    
C34   C36   1.403852 A    
C44   H4    1.084398 S    
C1    O8    1.311731 A    
O15   V3    2.017818 S    
C33   C43   1.402961 A    
N1    O22   1.301427 A    
O9    V2    1.786827 S    
C34   C44   1.402961 A    
O10   V1    1.786825 S    
C41   C48   1.482741 S    
C29   C39   1.411906 A    
C30   C40   1.411903 A    
