data_mof_unit_66406.cif
_audit_creation_date              2012-12-10T16:48:13-0500
_audit_creation_method            fapswitch 2.2
_symmetry_space_group_name_H-M    P1
_symmetry_Int_Tables_number       1
_space_group_crystal_system       triclinic
_cell_length_a                    18.723845
_cell_length_b                    18.936373
_cell_length_c                    18.736141
_cell_angle_alpha                 109.461621
_cell_angle_beta                  108.94163
_cell_angle_gamma                 109.444937
_cell_volume                      5149.15098846

loop_
_atom_site_label
_atom_site_type_symbol
_atom_type_description
_atom_site_fract_x
_atom_site_fract_y
_atom_site_fract_z
_atom_type_partial_charge
C1    C     C_R   0.383224 0.881608 0.003031 0.931319
C2    C     C_R   0.002421 0.382993 0.881160 0.932063
C3    C     C_R   0.118864 0.616993 0.997597 0.932514
C4    C     C_R   0.881136 0.383009 0.002405 0.933854
C5    C     C_2   0.992567 0.317951 0.740232 -0.154718
C6    C     C_2   0.007427 0.682045 0.259764 -0.152628
C7    C     C_2   0.010800 0.323235 0.817562 -0.321500
C8    C     C_2   0.989202 0.676767 0.182438 -0.324757
C9    C     C_2   0.003310 0.256500 0.678685 -0.176091
C10   C     C_2   0.996686 0.743496 0.321313 -0.175923
C11   C     C_2   0.987033 0.180975 0.675685 -0.286917
C12   C     C_R   0.616775 0.118392 0.996967 0.936772
C13   C     C_2   0.012971 0.819025 0.324320 -0.289292
C14   C     C_R   0.621406 0.002315 0.119185 0.974706
C15   C     C_R   0.378601 0.997694 0.880814 0.968911
C16   C     C_2   0.819975 0.991147 0.236316 0.503540
C17   C     C_2   0.180053 0.008871 0.763688 0.456582
C18   C     C_2   0.813457 0.987976 0.304884 -0.488325
C19   C     C_2   0.186525 0.011965 0.695077 -0.460174
C20   C     C_2   0.745353 0.980798 0.167063 -0.208563
C21   C     C_2   0.254796 0.019425 0.832979 -0.258985
C22   C     C_2   0.695351 0.011793 0.185962 -0.422694
C23   C     C_2   0.324326 0.819023 0.012982 -0.327806
C24   C     C_2   0.304615 0.988171 0.814044 -0.402041
C25   C     C_2   0.259915 0.682087 0.007534 -0.151746
C26   C     C_2   0.740075 0.317903 0.992446 -0.153447
C27   C     C_2   0.182505 0.676744 0.989255 -0.329506
C28   C     C_2   0.817493 0.323262 0.010750 -0.326174
C29   C     C_2   0.321438 0.743539 0.996761 -0.149953
C30   C     C_2   0.678549 0.256451 0.003217 -0.152518
C31   C     C_2   0.675675 0.180977 0.987019 -0.321914
C32   C     C_R   0.996862 0.118383 0.616658 0.957127
C33   C     C_R   0.003144 0.881618 0.383348 0.959903
C34   C     C_R   0.880944 0.996504 0.377548 0.985245
C35   C     C_R   0.119051 0.003489 0.622449 0.975764
C36   C     C_R   0.997580 0.617008 0.118840 0.930534
H1    H     H_    0.039517 0.287276 0.837911 0.178426
H2    H     H_    0.287642 0.949708 0.747154 0.164531
H3    H     H_    0.276605 0.639129 0.026751 0.171343
H4    H     H_    0.723378 0.360844 0.973206 0.171532
H5    H     H_    0.162105 0.712649 0.960502 0.162988
H6    H     H_    0.837897 0.287372 0.039522 0.167582
H7    H     H_    0.365989 0.728085 0.978457 0.170966
H8    H     H_    0.633982 0.271894 0.021496 0.171452
H9    H     H_    0.286959 0.838564 0.040927 0.161851
H10   H     H_    0.713057 0.161443 0.959095 0.165609
H11   H     H_    0.939653 0.984595 0.116352 0.391396
H12   H     H_    0.960493 0.712733 0.162092 0.175203
H13   H     H_    0.111101 0.967161 0.880201 0.353402
H14   H     H_    0.021573 0.271967 0.634147 0.173640
H15   H     H_    0.978417 0.728026 0.365846 0.173077
H16   H     H_    0.973382 0.360954 0.723607 0.172313
H17   H     H_    0.026604 0.639035 0.276385 0.172295
H18   H     H_    0.959155 0.161414 0.713066 0.180636
H19   H     H_    0.040855 0.838588 0.286943 0.177291
H20   H     H_    0.751795 0.970651 0.304486 0.136669
H21   H     H_    0.248168 0.029234 0.695438 0.136859
H22   H     H_    0.732705 0.949648 0.100625 0.222178
H23   H     H_    0.267685 0.050956 0.899467 0.210489
H24   H     H_    0.712121 0.050003 0.252833 0.165789
O1    O     O_R   0.409560 0.858470 0.948950 -0.616421
O2    O     O_R   0.590460 0.039390 0.948920 -0.618992
O3    O     O_R   0.590480 0.948940 0.039400 -0.618337
O4    O     O_R   0.409520 0.051060 0.960600 -0.618972
O5    O     O_R   0.590470 0.051080 0.141520 -0.620662
O6    O     O_R   0.409530 0.948920 0.858480 -0.622430
O7    O     O_R   0.051050 0.141530 0.590440 -0.629808
O8    O     O_R   0.948950 0.858470 0.409560 -0.629965
O9    O     O_R   0.948920 0.039390 0.590460 -0.590947
O10   O     O_R   0.051080 0.960610 0.409540 -0.592213
O11   O     O_R   0.960590 0.051060 0.409530 -0.555399
O12   O     O_R   0.590440 0.141530 0.051050 -0.616384
O13   O     O_R   0.039410 0.948940 0.590470 -0.556497
O14   O     O_R   0.858460 0.948920 0.409550 -0.637334
O15   O     O_R   0.141540 0.051080 0.590450 -0.637702
O16   O     O_R   0.051060 0.590470 0.141520 -0.615551
O17   O     O_R   0.948940 0.409530 0.858480 -0.615939
O18   O     O_2   0.986779 0.087642 0.284656 -0.274905
O19   O     O_2   0.932757 0.933548 0.235316 -0.327183
O20   O     O_3   0.886536 0.979535 0.119581 -0.560213
O21   O     O_2   0.067940 0.067194 0.765651 -0.282530
O22   O     O_2   0.012424 0.913081 0.714750 -0.283370
O23   O     O_R   0.948910 0.590450 0.039380 -0.619500
O24   O     O_3   0.112567 0.019935 0.880167 -0.528621
O25   O     O_R   0.051090 0.409550 0.960620 -0.617070
O26   O     O_R   0.141530 0.590470 0.051060 -0.614968
O27   O     O_R   0.858470 0.409530 0.948940 -0.615310
O28   O     O_R   0.039370 0.590450 0.948920 -0.621738
O29   O     O_R   0.960630 0.409550 0.051080 -0.618997
O30   O     O_R   0.409540 0.960610 0.051080 -0.622757
S1    S     S_3+6 0.910294 0.998616 0.221051 0.036475
S2    S     S_3+6 0.089741 0.001489 0.779014 0.051536
Zn1   Zn    Zn3+2 0.500010 0.931800 0.931810 0.982516
Zn2   Zn    Zn3+2 0.499990 0.068200 0.068190 0.978693
Zn3   Zn    Zn3+2 0.068190 0.068200 0.499990 1.047678
Zn4   Zn    Zn3+2 0.931810 0.931800 0.500010 1.050294
Zn5   Zn    Zn3+2 0.068210 0.500010 0.068200 0.983912
Zn6   Zn    Zn3+2 0.931790 0.499990 0.931800 0.978931

loop_
_geom_bond_atom_site_label_1
_geom_bond_atom_site_label_2
_ccdc_geom_bond_type
C1    O30   A    
C23   H9    S    
O22   S2    D    
C2    C7    S    
O9    Zn4   S    
O15   Zn3   S    
C4    O27   A    
C19   H21   S    
C13   C33   S    
C35   O15   A    
O8    Zn4   S    
C23   C29   D    
H13   O24   S    
C21   H23   S    
C22   H24   S    
C30   C31   D    
O1    Zn1   S    
O11   Zn3   S    
C36   O23   A    
C12   O2    A    
C2    O25   A    
C8    C36   S    
O26   Zn5   S    
C36   O16   A    
C17   C19   D    
O21   S2    D    
O23   Zn6   S    
C24   H2    S    
C15   O4    A    
C5    H16   S    
O19   S1    D    
C18   H20   S    
O27   Zn6   S    
O12   Zn2   S    
C12   O12   A    
C29   H7    S    
C3    O26   A    
O7    Zn3   S    
C30   H8    S    
C17   S2    S    
H11   O20   S    
C10   H15   S    
C4    C28   S    
O30   Zn2   S    
C25   C29   S    
O14   Zn4   S    
C5    C7    D    
C6    C8    D    
O16   Zn5   S    
C15   O6    A    
C31   H10   S    
C17   C21   S    
O29   Zn5   S    
C8    H12   S    
C5    C9    S    
C9    C11   D    
C27   H5    S    
C16   C20   S    
C7    H1    S    
O17   Zn6   S    
C18   C34   S    
C11   H18   S    
C33   O10   A    
C34   O14   A    
C32   O7    A    
C15   C24   S    
C20   C22   D    
C11   C32   S    
C1    C23   S    
O6    Zn1   S    
C12   C31   S    
C21   C24   D    
C6    H17   S    
C20   H22   S    
C4    O29   A    
C35   O13   A    
C3    O28   A    
C9    H14   S    
C10   C13   D    
C1    O1    A    
C6    C10   S    
C26   C30   S    
C32   O9    A    
O18   S1    D    
C25   C27   D    
O3    Zn1   S    
C26   C28   D    
C14   C22   S    
O20   S1    S    
C3    C27   S    
O10   Zn3   S    
O4    Zn2   S    
C2    O17   A    
C19   C35   S    
C25   H3    S    
C26   H4    S    
C14   O3    A    
C28   H6    S    
O5    Zn2   S    
C14   O5    A    
O25   Zn5   S    
C16   S1    S    
C16   C18   D    
O2    Zn1   S    
O24   S2    S    
O13   Zn4   S    
C34   O11   A    
O28   Zn6   S    
C33   O8    A    
C13   H19   S    
