data_mof_unit_8323.cif
_audit_creation_date              2012-12-10T19:09:33-0500
_audit_creation_method            fapswitch 2.2
_symmetry_space_group_name_H-M    P1
_symmetry_Int_Tables_number       1
_space_group_crystal_system       triclinic
_cell_length_a                    14.825018
_cell_length_b                    15.560218
_cell_length_c                    9.668384
_cell_angle_alpha                 89.430743
_cell_angle_beta                  89.238137
_cell_angle_gamma                 89.734146
_cell_volume                      2229.97786914

loop_
_atom_site_label
_atom_site_type_symbol
_atom_type_description
_atom_site_fract_x
_atom_site_fract_y
_atom_site_fract_z
_atom_type_partial_charge
C1    C     C_R   0.122303 0.379409 0.499914 1.136154
C2    C     C_R   0.121911 0.620959 0.498570 1.117766
C3    C     C_R   0.622303 0.879409 0.499913 1.136135
C4    C     C_R   0.621912 0.120958 0.498569 1.117745
C5    C     C_3   0.910101 0.527715 0.082819 -0.229644
C6    C     C_3   0.909776 0.526732 0.919882 -0.211996
C7    C     C_3   0.410088 0.027675 0.082820 -0.229659
C8    C     C_3   0.409758 0.026671 0.919884 -0.211962
C9    C     C_R   0.876141 0.381345 0.500817 1.169816
C10   C     C_R   0.877910 0.620334 0.500080 1.165379
C11   C     C_R   0.376143 0.881343 0.500817 1.169833
C12   C     C_R   0.377916 0.120340 0.500080 1.165364
C13   C     C_3   0.836705 0.241859 0.603896 0.446396
C14   C     C_3   0.801327 0.276956 0.352655 0.373894
C15   C     C_3   0.816937 0.740021 0.362131 0.438530
C16   C     C_3   0.826515 0.749363 0.623201 0.453091
C17   C     C_3   0.336708 0.741855 0.603896 0.446412
C18   C     C_3   0.301330 0.776952 0.352656 0.373931
C19   C     C_3   0.316910 0.239998 0.362098 0.438497
C20   C     C_3   0.326554 0.249400 0.623152 0.453035
C21   C     C_3   0.266280 0.669986 0.603409 0.136054
C22   C     C_3   0.224539 0.711824 0.343607 0.206545
C23   C     C_3   0.246829 0.312679 0.361205 0.255228
C24   C     C_3   0.252029 0.318111 0.630322 0.232541
C25   C     C_3   0.766282 0.169987 0.603407 0.136074
C26   C     C_3   0.724538 0.211825 0.343606 0.206548
C27   C     C_3   0.746831 0.812680 0.361205 0.255224
C28   C     C_3   0.752030 0.818116 0.630309 0.232538
C29   C     C_3   0.713698 0.349670 0.546454 0.861953
C30   C     C_3   0.714157 0.648650 0.512872 0.857794
C31   C     C_3   0.213701 0.849669 0.546452 0.861922
C32   C     C_3   0.214166 0.148655 0.512940 0.857788
C33   C     C_3   0.807919 0.313728 0.501356 -0.555673
C34   C     C_3   0.810108 0.688316 0.499871 -0.568448
C35   C     C_3   0.307921 0.813725 0.501356 -0.555686
C36   C     C_3   0.310115 0.188322 0.499869 -0.568425
C37   C     C_3   0.189160 0.690359 0.495774 -0.532428
C38   C     C_3   0.190574 0.310638 0.500121 -0.496267
C39   C     C_3   0.689160 0.190359 0.495773 -0.532403
C40   C     C_3   0.690573 0.810637 0.500116 -0.496258
C41   C     C_3   0.142846 0.775751 0.547479 0.925126
C42   C     C_3   0.142358 0.221685 0.511011 0.904703
C43   C     C_3   0.642844 0.275751 0.547477 0.925093
C44   C     C_3   0.642355 0.721685 0.511003 0.904717
C45   C     C_3   0.017489 0.412984 0.082267 -0.224076
C46   C     C_3   0.018856 0.413279 0.919493 -0.230979
C47   C     C_3   0.066992 0.559815 0.916736 -0.256018
C48   C     C_3   0.067475 0.558772 0.079287 -0.256956
C49   C     C_3   0.517528 0.912992 0.082265 -0.224087
C50   C     C_3   0.518924 0.913294 0.919491 -0.231017
C51   C     C_3   0.566944 0.059862 0.916737 -0.256004
C52   C     C_3   0.567447 0.058801 0.079287 -0.256957
H1    H     H_    0.839987 0.268410 0.710368 0.104907
H2    H     H_    0.786230 0.329559 0.277226 0.110844
H3    H     H_    0.802951 0.697370 0.273183 0.074002
H4    H     H_    0.824736 0.712660 0.722635 0.069177
H5    H     H_    0.339991 0.768407 0.710368 0.104899
H6    H     H_    0.286236 0.829554 0.277223 0.110830
H7    H     H_    0.302873 0.197331 0.273189 0.074028
H8    H     H_    0.324852 0.212716 0.722608 0.069181
H9    H     H_    0.232865 0.674437 0.706889 0.150694
H10   H     H_    0.167310 0.743928 0.289402 0.149724
H11   H     H_    0.198849 0.300011 0.275394 0.089802
H12   H     H_    0.208485 0.303153 0.722872 0.087913
H13   H     H_    0.732865 0.174435 0.706886 0.150696
H14   H     H_    0.667308 0.243928 0.289402 0.149736
H15   H     H_    0.698858 0.799989 0.275395 0.089794
H16   H     H_    0.708479 0.803222 0.722876 0.087846
H17   H     H_    0.965717 0.366938 0.121370 0.204208
H18   H     H_    0.969077 0.366132 0.881201 0.183090
H19   H     H_    0.052979 0.626293 0.879135 0.211230
H20   H     H_    0.055300 0.624861 0.118353 0.191892
H21   H     H_    0.465764 0.866929 0.121342 0.204194
H22   H     H_    0.469196 0.866109 0.881172 0.183140
H23   H     H_    0.552869 0.126333 0.879159 0.211208
H24   H     H_    0.555256 0.124881 0.118378 0.191921
H25   H     H_    0.083238 0.388739 0.120349 0.160487
H26   H     H_    0.086094 0.391062 0.881981 0.163968
H27   H     H_    0.135112 0.542500 0.876244 0.154931
H28   H     H_    0.134568 0.538075 0.116025 0.176063
H29   H     H_    0.583275 0.888764 0.120371 0.160493
H30   H     H_    0.586189 0.891137 0.882006 0.163875
H31   H     H_    0.635072 0.042608 0.876223 0.154903
H32   H     H_    0.634551 0.038116 0.115997 0.176068
H33   H     H_    0.855861 0.485211 0.124550 0.179374
H34   H     H_    0.856305 0.482719 0.883559 0.203993
H35   H     H_    0.891828 0.591924 0.880768 0.173088
H36   H     H_    0.893663 0.593686 0.118653 0.173908
H37   H     H_    0.355867 0.985158 0.124571 0.179361
H38   H     H_    0.356323 0.982612 0.883583 0.203988
H39   H     H_    0.391752 0.091843 0.880751 0.173108
H40   H     H_    0.393625 0.093645 0.118636 0.173923
N1    N     N_3   0.998760 0.500000 0.138610 -0.068503
N2    N     N_3   0.998760 0.500000 0.861390 -0.068168
N3    N     N_3   0.498760 0.000000 0.138610 -0.068499
N4    N     N_3   0.498760 0.000000 0.861390 -0.068187
O1    O     O_R   0.092530 0.407440 0.616040 -0.625050
O2    O     O_R   0.092530 0.407440 0.383960 -0.630049
O3    O     O_R   0.092530 0.592560 0.383960 -0.609556
O4    O     O_R   0.092530 0.592560 0.616040 -0.614858
O5    O     O_R   0.592530 0.907440 0.616040 -0.625135
O6    O     O_R   0.592530 0.907440 0.383960 -0.630002
O7    O     O_R   0.592530 0.092560 0.383960 -0.609538
O8    O     O_R   0.592530 0.092560 0.616040 -0.614895
O9    O     O_R   0.907330 0.407420 0.616040 -0.622934
O10   O     O_R   0.907330 0.407420 0.383960 -0.615663
O11   O     O_R   0.907330 0.592580 0.383960 -0.627684
O12   O     O_R   0.907330 0.592580 0.616040 -0.625095
O13   O     O_R   0.407330 0.907420 0.616040 -0.622922
O14   O     O_R   0.407330 0.907420 0.383960 -0.615667
O15   O     O_R   0.407330 0.092580 0.383960 -0.627621
O16   O     O_R   0.407330 0.092580 0.616040 -0.625146
Zn1   Zn    Zn3+2 0.999890 0.500000 0.654960 1.001124
Zn2   Zn    Zn3+2 0.999890 0.500000 0.345040 0.994499
Zn3   Zn    Zn3+2 0.499890 1.000000 0.654960 1.001060
Zn4   Zn    Zn3+2 0.499890 0.000000 0.345040 0.994532
F1    F     F_    0.922341 0.211676 0.573057 -0.507687
F2    F     F_    0.883779 0.241470 0.313336 -0.572458
F3    F     F_    0.903747 0.771529 0.342434 -0.519169
F4    F     F_    0.911137 0.786669 0.611518 -0.478819
F5    F     F_    0.422342 0.711669 0.573055 -0.507664
F6    F     F_    0.383782 0.741461 0.313341 -0.572430
F7    F     F_    0.403725 0.271474 0.342301 -0.519270
F8    F     F_    0.411146 0.286755 0.611337 -0.478754
O17   O     O_3   0.304405 0.586290 0.609554 -0.620557
C53   C     C_3   0.338797 0.556713 0.483013 0.234524
H41   H     H_    0.377161 0.605017 0.422896 0.256488
H42   H     H_    0.282193 0.531129 0.424277 0.187760
H43   H     H_    0.386906 0.503486 0.503343 0.240871
O18   O     O_3   0.250472 0.639010 0.264720 -0.594715
C54   C     C_3   0.260643 0.660392 0.122191 -0.243828
H44   H     H_    0.198798 0.690490 0.079335 0.142942
H45   H     H_    0.274476 0.600705 0.063743 0.152463
H46   H     H_    0.318820 0.703375 0.101830 0.224319
O19   O     O_3   0.290037 0.392738 0.341895 -0.526661
C55   C     C_3   0.302877 0.411477 0.199549 -0.184239
H47   H     H_    0.237524 0.425647 0.149724 0.098213
H48   H     H_    0.337888 0.358378 0.144090 0.175726
H49   H     H_    0.345635 0.469513 0.188960 0.204075
O20   O     O_3   0.289294 0.401297 0.642436 -0.508890
C56   C     C_3   0.309369 0.418216 0.782467 -0.087016
H50   H     H_    0.347416 0.364712 0.832390 0.146565
H51   H     H_    0.246468 0.431262 0.842351 0.076465
H52   H     H_    0.352615 0.475956 0.787471 0.230573
O21   O     O_3   0.804411 0.086292 0.609547 -0.620582
C57   C     C_3   0.838812 0.056725 0.483004 0.234404
H53   H     H_    0.877166 0.105037 0.422891 0.256514
H54   H     H_    0.782214 0.031134 0.424263 0.187835
H55   H     H_    0.886933 0.003509 0.503327 0.240814
O22   O     O_3   0.750472 0.139013 0.264717 -0.594706
C58   C     C_3   0.760640 0.160396 0.122189 -0.243814
H56   H     H_    0.698790 0.190486 0.079334 0.142942
H57   H     H_    0.774481 0.100711 0.063740 0.152476
H58   H     H_    0.818811 0.203387 0.101826 0.224308
O23   O     O_3   0.790011 0.892750 0.341872 -0.526679
C59   C     C_3   0.802876 0.911465 0.199523 -0.184257
H59   H     H_    0.737534 0.925635 0.149670 0.098218
H60   H     H_    0.837894 0.858356 0.144098 0.175681
H61   H     H_    0.845641 0.969496 0.188929 0.204086
O24   O     O_3   0.789354 0.901280 0.642326 -0.508923
C60   C     C_3   0.809427 0.918267 0.782334 -0.086432
H62   H     H_    0.852970 0.975787 0.787223 0.230679
H63   H     H_    0.847140 0.864672 0.832530 0.145854
H64   H     H_    0.746567 0.931686 0.842024 0.076788
F9    F     F_    0.718605 0.385467 0.677067 -0.592948
F10   F     F_    0.687550 0.414174 0.455175 -0.550760
F11   F     F_    0.699845 0.593061 0.404020 -0.569948
F12   F     F_    0.706783 0.601344 0.635009 -0.571491
F13   F     F_    0.218608 0.885469 0.677063 -0.592948
F14   F     F_    0.187552 0.914170 0.455169 -0.550770
F15   F     F_    0.199843 0.093019 0.404154 -0.569860
F16   F     F_    0.206812 0.101400 0.635131 -0.571601
F17   F     F_    0.107140 0.765135 0.680097 -0.608001
F18   F     F_    0.071413 0.797990 0.462853 -0.521045
F19   F     F_    0.084957 0.211282 0.400149 -0.559321
F20   F     F_    0.090466 0.217355 0.631336 -0.573180
F21   F     F_    0.607135 0.265134 0.680092 -0.608056
F22   F     F_    0.571414 0.297989 0.462846 -0.521044
F23   F     F_    0.584928 0.711298 0.400169 -0.559251
F24   F     F_    0.590489 0.717346 0.631354 -0.573228

loop_
_geom_bond_atom_site_label_1
_geom_bond_atom_site_label_2
_ccdc_geom_bond_type
C16   C28   S    
C41   F18   S    
C43   F22   S    
C53   H41   S    
O14   Zn4   S    
C11   O13   A    
C57   H55   S    
C10   O12   A    
C8    N4    S    
C47   H27   S    
C54   H46   S    
C13   C25   S    
C44   F24   S    
O3    Zn2   S    
C60   H62   S    
O19   C55   S    
C45   C46   S    
C24   O20   S    
C19   F7    S    
O10   Zn2   S    
C32   C36   S    
O9    Zn1   S    
C59   H59   S    
C28   H16   S    
C48   H20   S    
C30   F11   S    
C38   C42   S    
C42   F19   S    
C56   H51   S    
C5    C6    S    
C26   C39   S    
O2    Zn2   S    
C28   C40   S    
C29   F9    S    
C7    H37   S    
C4    O7    A    
C29   C33   S    
C28   O24   S    
O16   Zn3   S    
C52   N3    S    
C58   H58   S    
C49   H29   S    
C52   H32   S    
C16   C34   S    
C5    H36   S    
C59   H60   S    
C18   H6    S    
C20   C24   S    
C14   F2    S    
C24   C38   S    
C58   H56   S    
N4    Zn3   S    
O15   Zn4   S    
C12   C36   S    
C18   C35   S    
C27   C40   S    
C15   C34   S    
C21   H9    S    
C51   N4    S    
C5    H33   S    
C3    O5    A    
C23   H11   S    
C32   F16   S    
C2    O4    A    
C24   H12   S    
C22   O18   S    
C11   O14   A    
C9    C33   S    
C30   C44   S    
C10   O11   A    
C14   C33   S    
C55   H49   S    
C44   F23   S    
C60   H63   S    
N2    Zn1   S    
O21   C57   S    
C57   H54   S    
C27   O23   S    
O23   C59   S    
C46   H18   S    
C48   N1    S    
C30   C34   S    
C9    O9    A    
C45   H17   S    
C51   C52   S    
C26   H14   S    
C7    C8    S    
C25   H13   S    
O20   C56   S    
C55   H48   S    
C56   H52   S    
C1    O1    A    
C46   H26   S    
C39   C43   S    
C31   F13   S    
C53   H43   S    
C19   H7    S    
C9    O10   A    
C22   C37   S    
C14   C26   S    
C6    H35   S    
C15   H3    S    
C29   F10   S    
C19   C23   S    
C16   H4    S    
O11   Zn2   S    
C13   C33   S    
C22   H10   S    
O8    Zn3   S    
C15   C27   S    
C47   C48   S    
C46   N2    S    
C4    C39   S    
C26   O22   S    
N3    Zn4   S    
C10   C34   S    
C8    H39   S    
C49   N3    S    
C47   H19   S    
C1    C38   S    
C18   F6    S    
C3    O6    A    
C17   F5    S    
C14   H2    S    
C32   F15   S    
C45   N1    S    
C52   H24   S    
O17   C53   S    
O5    Zn3   S    
C31   C35   S    
C20   H8    S    
C21   O17   S    
C54   H44   S    
C23   C38   S    
C51   H31   S    
C12   O16   A    
C60   H64   S    
C50   H30   S    
C57   H53   S    
C41   F17   S    
C43   F21   S    
C53   H42   S    
C31   C41   S    
C16   F4    S    
C18   C22   S    
C59   H61   S    
O4    Zn1   S    
C51   H23   S    
C55   H47   S    
C54   H45   S    
C1    O2    A    
C3    C40   S    
C8    H38   S    
C5    N1    S    
C31   F14   S    
O12   Zn1   S    
C7    N3    S    
C6    H34   S    
C23   O19   S    
C19   C36   S    
O24   C60   S    
C48   H28   S    
C50   H22   S    
C2    O3    A    
C30   F12   S    
C42   F20   S    
C56   H50   S    
C25   C39   S    
C2    C37   S    
C6    N2    S    
C7    H40   S    
C4    O8    A    
C11   C35   S    
C47   N2    S    
C15   F3    S    
O7    Zn4   S    
C49   H21   S    
N1    Zn2   S    
C58   H57   S    
C37   C41   S    
C17   C21   S    
C20   F8    S    
O6    Zn4   S    
C13   H1    S    
O13   Zn3   S    
C20   C36   S    
C40   C44   S    
C21   C37   S    
C27   H15   S    
C49   C50   S    
C50   N4    S    
O18   C54   S    
C13   F1    S    
C32   C42   S    
O22   C58   S    
C25   O21   S    
C17   C35   S    
C45   H25   S    
O1    Zn1   S    
C12   O15   A    
C29   C43   S    
C17   H5    S    
