data_mof_unit_6727.cif
_audit_creation_date              2012-12-11T14:13:11-0500
_audit_creation_method            fapswitch 2.2
_symmetry_space_group_name_H-M    P1
_symmetry_Int_Tables_number       1
_space_group_crystal_system       triclinic
_cell_length_a                    11.656302
_cell_length_b                    18.389637
_cell_length_c                    10.23421
_cell_angle_alpha                 90.001748
_cell_angle_beta                  111.568082
_cell_angle_gamma                 89.998342
_cell_volume                      2040.15207186

loop_
_atom_site_label
_atom_site_type_symbol
_atom_type_description
_atom_site_fract_x
_atom_site_fract_y
_atom_site_fract_z
_atom_type_partial_charge
C1    C     C_R   0.075319 0.645688 0.142388 0.588734
C2    C     C_R   0.925704 0.353986 0.858411 0.581120
C3    C     C_R   0.924680 0.145688 0.857609 0.588746
C4    C     C_R   0.074294 0.853987 0.141591 0.581144
C5    C     C_R   0.397602 0.464771 0.517181 -0.014201
C6    C     C_R   0.602360 0.536476 0.489544 -0.032868
C7    C     C_R   0.602404 0.964768 0.482811 -0.014358
C8    C     C_R   0.397649 0.036471 0.510496 -0.032847
C9    C     C_2   0.372856 0.940854 0.002799 0.210164
C10   C     C_2   0.616398 0.062522 0.026034 0.205032
C11   C     C_2   0.627174 0.440860 0.997195 0.210188
C12   C     C_2   0.383645 0.562534 0.973881 0.205016
C13   C     C_2   0.484464 0.970928 0.070480 0.389496
C14   C     C_2   0.511072 0.046012 0.044861 0.430476
C15   C     C_2   0.515622 0.470965 0.929345 0.389447
C16   C     C_2   0.488994 0.546041 0.955066 0.430611
C17   C     C_2   0.017647 0.925525 0.123666 0.294889
C18   C     C_2   0.975355 0.072837 0.869579 0.307456
C19   C     C_2   0.982351 0.425521 0.876337 0.294926
C20   C     C_2   0.024638 0.572840 0.130410 0.307442
C21   C     C_2   0.988783 0.958908 0.000765 0.276774
C22   C     C_2   0.008648 0.038108 0.991576 0.267908
C23   C     C_2   0.011219 0.458909 0.999234 0.276708
C24   C     C_2   0.991337 0.538107 0.008416 0.267860
C25   C     C_R   0.472709 0.647527 0.443400 0.613594
C26   C     C_R   0.527265 0.352951 0.557482 0.611862
C27   C     C_R   0.527290 0.147526 0.556601 0.613611
C28   C     C_R   0.472738 0.852949 0.442522 0.611792
C29   C     C_R   0.356605 0.636575 0.002739 0.580825
C30   C     C_R   0.647290 0.362466 0.989140 0.580518
C31   C     C_R   0.643401 0.136575 0.997256 0.580878
C32   C     C_R   0.352715 0.862466 0.010856 0.580495
C33   C     C_R   0.489408 0.424642 0.486963 0.055017
C34   C     C_R   0.509823 0.576899 0.517253 0.062389
C35   C     C_R   0.510607 0.924638 0.513052 0.055068
C36   C     C_R   0.490171 0.076895 0.482755 0.062444
C37   C     C_R   0.287210 0.432559 0.520065 0.332292
C38   C     C_R   0.714682 0.567724 0.490302 0.296379
C39   C     C_R   0.712789 0.932556 0.479891 0.332145
C40   C     C_R   0.285332 0.067716 0.509773 0.296368
C41   C     C_R   0.212734 0.470780 0.575511 0.028592
C42   C     C_R   0.792436 0.527568 0.441822 -0.015932
C43   C     C_R   0.787233 0.970774 0.424398 0.028447
C44   C     C_R   0.207614 0.027565 0.558309 -0.015985
C45   C     C_R   0.242990 0.540888 0.626525 -0.045241
C46   C     C_R   0.760380 0.457741 0.389350 -0.044522
C47   C     C_R   0.756960 0.040882 0.373380 -0.045404
C48   C     C_R   0.239699 0.957743 0.610798 -0.044646
C49   C     C_R   0.345602 0.575422 0.616317 0.235629
C50   C     C_R   0.650829 0.426806 0.386593 0.237250
C51   C     C_R   0.654360 0.075418 0.383631 0.235603
C52   C     C_R   0.349231 0.926802 0.613492 0.237219
C53   C     C_R   0.418917 0.539481 0.551901 -0.036455
C54   C     C_R   0.579201 0.462463 0.452147 -0.045974
C55   C     C_R   0.581073 0.039477 0.448086 -0.036510
C56   C     C_R   0.420825 0.962458 0.547896 -0.045910
Cr1   Cr    Cr6+3 0.187610 0.750000 0.979860 1.199107
Cr2   Cr    Cr6+3 0.812390 0.250000 0.020140 1.199098
Cr3   Cr    Cr6+3 0.245810 0.750000 0.341640 1.153623
Cr4   Cr    Cr6+3 0.754190 0.250000 0.658360 1.153629
Cr5   Cr    Cr6+3 0.485760 0.750000 0.219910 1.224536
Cr6   Cr    Cr6+3 0.514240 0.250000 0.780090 1.224546
H1    H     H_    0.129674 0.445665 0.576954 0.225826
H2    H     H_    0.878505 0.550874 0.444836 0.230195
H3    H     H_    0.870284 0.945655 0.422927 0.225876
H4    H     H_    0.121551 0.050870 0.555322 0.230232
H5    H     H_    0.185526 0.568753 0.672970 0.212734
H6    H     H_    0.820331 0.427860 0.349163 0.229611
H7    H     H_    0.814398 0.068744 0.326892 0.212728
H8    H     H_    0.179776 0.927866 0.651027 0.229616
O1    O     O_R   0.267710 0.668200 0.902110 -0.438655
O2    O     O_R   0.732290 0.331800 0.097890 -0.421939
O3    O     O_R   0.732290 0.168200 0.097890 -0.438708
O4    O     O_R   0.267710 0.831800 0.902110 -0.421990
O5    O     O_R   0.099480 0.674460 0.038850 -0.480607
O6    O     O_R   0.900520 0.325540 0.961150 -0.485589
O7    O     O_R   0.900520 0.174460 0.961150 -0.480604
O8    O     O_R   0.099480 0.825540 0.038850 -0.485557
O9    O     O_R   0.116720 0.669210 0.267660 -0.463640
O10   O     O_R   0.883280 0.330790 0.732340 -0.466805
O11   O     O_R   0.883280 0.169210 0.732340 -0.463628
O12   O     O_R   0.116720 0.830790 0.267660 -0.466790
O13   O     O_R   0.366710 0.675440 0.427590 -0.460501
O14   O     O_R   0.633290 0.324560 0.572410 -0.466524
O15   O     O_R   0.633290 0.175440 0.572410 -0.460483
O16   O     O_R   0.366710 0.824560 0.427590 -0.466498
O17   O     O_R   0.534870 0.669390 0.371760 -0.480475
O18   O     O_R   0.465130 0.330610 0.628240 -0.449004
O19   O     O_R   0.465130 0.169390 0.628240 -0.480506
O20   O     O_R   0.534870 0.830610 0.371760 -0.449188
O21   O     O_R   0.453080 0.674480 0.075160 -0.423996
O22   O     O_R   0.546920 0.325520 0.924840 -0.391776
O23   O     O_R   0.546920 0.174480 0.924840 -0.423993
O24   O     O_R   0.453080 0.825520 0.075160 -0.391750
O25   O     O_3   0.306390 0.750000 0.180470 -0.399641
O26   O     O_3   0.693610 0.250000 0.819530 -0.399645
Cl1   Cl    Cl    0.230133 0.346724 0.446978 -0.346766
Cl2   Cl    Cl    0.770164 0.653934 0.562315 -0.348982
Cl3   Cl    Cl    0.769895 0.846723 0.552981 -0.346703
Cl4   Cl    Cl    0.229809 0.153916 0.437735 -0.349001
Cl5   Cl    Cl    0.386036 0.661254 0.697888 -0.393995
Cl6   Cl    Cl    0.597540 0.346975 0.287606 -0.409921
Cl7   Cl    Cl    0.613889 0.161255 0.302067 -0.393877
Cl8   Cl    Cl    0.402543 0.846965 0.712450 -0.409822
F1    F     F_    0.428996 0.098979 0.043975 -0.524450
F2    F     F_    0.580150 0.931018 0.158117 -0.610798
F3    F     F_    0.571094 0.599018 0.956069 -0.524398
F4    F     F_    0.420000 0.431089 0.841465 -0.611060
Cl9   Cl    Cl    0.719857 0.995434 0.015268 -0.519772
Cl10  Cl    Cl    0.246028 0.995083 0.909771 -0.538993
Cl11  Cl    Cl    0.280114 0.495413 0.984343 -0.519745
Cl12  Cl    Cl    0.753972 0.495067 0.090429 -0.538961
Cl13  Cl    Cl    0.111108 0.086847 0.135604 -0.394829
Cl14  Cl    Cl    0.895480 0.907307 0.855481 -0.382321
Cl15  Cl    Cl    0.888870 0.586836 0.864388 -0.394933
Cl16  Cl    Cl    0.104607 0.407332 0.144494 -0.382492
Cl17  Cl    Cl    0.968643 0.030565 0.711686 -0.551744
Cl18  Cl    Cl    0.011161 0.969800 0.273334 -0.574592
Cl19  Cl    Cl    0.031346 0.530568 0.288293 -0.551800
Cl20  Cl    Cl    0.988875 0.469783 0.726683 -0.574609

loop_
_geom_bond_atom_site_label_1
_geom_bond_atom_site_label_2
_ccdc_geom_bond_type
Cr1   O4    S    
C32   O24   A    
C5    C37   A    
C12   C29   S    
C44   H4    S    
Cr3   O12   S    
C7    C55   A    
C38   Cl2   S    
C8    C56   A    
C37   Cl1   S    
Cr2   O6    S    
C46   H6    S    
C30   O2    A    
C40   Cl4   S    
C50   C54   A    
C3    C18   S    
C7    C39   A    
C5    C53   A    
Cr3   O13   S    
C38   C42   A    
Cr6   O26   S    
C49   Cl5   S    
C31   O3    A    
C51   Cl7   S    
C15   C16   S    
Cr6   O19   S    
C33   C54   A    
C10   Cl9   S    
C8    C36   A    
C27   O15   A    
C9    C13   D    
C47   H7    S    
Cr2   O26   S    
Cr5   O17   S    
C9    C32   S    
C42   C46   A    
C23   Cl16  S    
C11   C15   D    
C10   C31   S    
C14   F1    S    
C52   Cl8   S    
C20   C24   D    
C11   C30   S    
Cr6   O22   S    
C3    O11   A    
C23   C24   S    
C6    C38   A    
C40   C44   A    
Cr2   O7    S    
C25   C34   S    
C2    C19   S    
C21   C22   S    
Cr3   O25   S    
C6    C54   A    
C22   Cl13  S    
C1    O5    A    
C12   C16   D    
C44   C48   A    
C28   C35   S    
C30   O22   A    
C10   C14   D    
Cr3   O9    S    
Cr5   O24   S    
C21   Cl14  S    
C47   C51   A    
C31   O23   A    
Cr6   O18   S    
C17   C21   D    
C6    C34   A    
C5    C33   A    
C15   F4    S    
C19   C23   D    
C4    O8    A    
Cr4   O11   S    
C26   C33   S    
C39   Cl3   S    
C45   C49   A    
C43   H3    S    
Cr1   O1    S    
C18   Cl17  S    
C17   Cl18  S    
C24   Cl15  S    
C4    C17   S    
Cr4   O26   S    
C19   Cl20  S    
C50   Cl6   S    
C28   O16   A    
C1    O9    A    
C41   H1    S    
C3    O7    A    
C42   H2    S    
C29   O21   A    
C2    O6    A    
Cr5   O20   S    
C9    Cl10  S    
Cr4   O10   S    
C1    C20   S    
C26   O14   A    
C11   Cl12  S    
C18   C22   D    
C7    C35   A    
Cr1   O8    S    
C48   H8    S    
C13   F2    S    
C35   C56   A    
C39   C43   A    
Cr4   O15   S    
Cr5   O25   S    
C45   H5    S    
C27   C36   S    
C46   C50   A    
Cr1   O5    S    
Cr3   O16   S    
C36   C55   A    
C32   O4    A    
Cr4   O14   S    
Cr2   O2    S    
C49   C53   A    
C27   O19   A    
C51   C55   A    
C20   Cl19  S    
C37   C41   A    
C16   F3    S    
C2    O10   A    
C25   O17   A    
C52   C56   A    
C48   C52   A    
C4    O12   A    
C34   C53   A    
C26   O18   A    
Cr1   O25   S    
Cr6   O23   S    
C25   O13   A    
C41   C45   A    
C28   O20   A    
C8    C40   A    
C13   C14   S    
C43   C47   A    
C12   Cl11  S    
Cr5   O21   S    
Cr2   O3    S    
C29   O1    A    
