data_mof_unit_58586.cif
_audit_creation_date              2012-10-26T18:44:13-0400
_audit_creation_method            fapswitch 2.2
_symmetry_space_group_name_H-M    P1
_symmetry_Int_Tables_number       1
_space_group_crystal_system       triclinic
_cell_length_a                    19.309111
_cell_length_b                    9.088916
_cell_length_c                    7.770483
_cell_angle_alpha                 90.045963
_cell_angle_beta                  90.000042
_cell_angle_gamma                 90.000028
_cell_volume                      1363.71068625

loop_
_atom_site_label
_atom_site_type_symbol
_atom_type_description
_atom_site_fract_x
_atom_site_fract_y
_atom_site_fract_z
_atom_type_partial_charge
C1    C     C_R   0.500000 0.219958 0.499951 0.563250
C2    C     C_R   0.255695 0.586103 0.369877 0.202776
C3    C     C_R   0.179668 0.426620 0.616494 0.085825
C4    C     C_R   0.816728 0.581820 0.360428 0.078468
C5    C     C_R   0.820332 0.426619 0.616493 0.085822
C6    C     C_R   0.183272 0.581817 0.360425 0.078468
C7    C     C_R   0.145391 0.502211 0.483472 -0.040321
C8    C     C_R   0.854609 0.502211 0.483473 -0.040321
C9    C     C_R   0.290593 0.507171 0.500265 -0.023126
C10   C     C_R   0.709407 0.507172 0.500266 -0.023127
C11   C     C_R   0.930137 0.502804 0.477070 0.379122
C12   C     C_R   0.500000 0.780026 0.500030 0.528552
C13   C     C_R   0.069863 0.502803 0.477070 0.379122
C14   C     C_3   0.289292 0.448002 0.906393 -0.022159
C15   C     C_3   0.693149 0.805286 0.312137 -0.070792
C16   C     C_3   0.710710 0.448008 0.906394 -0.022162
C17   C     C_3   0.306851 0.805281 0.312130 -0.070793
C18   C     C_R   0.366921 0.501186 0.500216 0.581372
C19   C     C_R   0.633079 0.501186 0.500216 0.581372
C20   C     C_1   0.500000 0.065343 0.499896 -0.040353
C21   C     C_1   0.500000 0.934611 0.500003 -0.059108
C22   C     C_R   0.252190 0.433824 0.629149 0.212298
C23   C     C_R   0.744305 0.586106 0.369880 0.202776
C24   C     C_R   0.747810 0.433824 0.629149 0.212296
Cu1   Cu    Cu3+1 0.500000 0.500000 0.669080 1.045534
Cu2   Cu    Cu3+1 0.500000 0.500000 0.330920 1.044484
H1    H     H_    0.310857 0.559013 0.878019 0.149406
H2    H     H_    0.339888 0.800091 0.429278 0.105448
H3    H     H_    0.258394 0.867109 0.340291 0.155321
H4    H     H_    0.335897 0.867766 0.213063 0.155910
H5    H     H_    0.323998 0.395042 0.001784 0.167950
H6    H     H_    0.237638 0.459915 0.967287 0.171425
H7    H     H_    0.660112 0.800094 0.429285 0.105448
H8    H     H_    0.664103 0.867773 0.213070 0.155910
H9    H     H_    0.741606 0.867113 0.340299 0.155321
H10   H     H_    0.689135 0.559009 0.878020 0.149410
H11   H     H_    0.762366 0.459941 0.967270 0.171420
H12   H     H_    0.676014 0.395039 0.001799 0.167951
I1    I     I_    0.122812 0.297033 0.797522 -0.164193
I2    I     I_    0.867478 0.691983 0.153088 -0.205749
I3    I     I_    0.877187 0.297030 0.797519 -0.164192
I4    I     I_    0.132522 0.691976 0.153082 -0.205748
N1    N     N_1   0.500000 0.500000 0.076820 -0.081178
N2    N     N_1   0.500000 0.500000 0.923180 -0.084303
N3    N     N_R   0.034425 0.625559 0.522516 -0.156475
N4    N     N_R   0.965541 0.380210 0.430422 -0.153638
N5    N     N_R   0.965575 0.625559 0.522517 -0.156475
N6    N     N_R   0.034459 0.380210 0.430422 -0.153638
O1    O     O_R   0.500000 0.288390 0.642760 -0.479328
O2    O     O_3   0.707617 0.663668 0.246833 -0.562186
O3    O     O_3   0.714034 0.357684 0.758486 -0.546118
O4    O     O_3   0.292382 0.663663 0.246829 -0.562187
O5    O     O_R   0.500000 0.711610 0.357240 -0.498057
O6    O     O_R   0.500000 0.711610 0.642760 -0.503523
O7    O     O_R   0.500000 0.288390 0.357240 -0.507026
O8    O     O_R   0.400140 0.500000 0.642830 -0.490569
O9    O     O_R   0.599860 0.500000 0.357170 -0.474460
O10   O     O_R   0.599860 0.500000 0.642830 -0.490570
O11   O     O_R   0.400140 0.500000 0.357170 -0.474461
O12   O     O_3   0.285966 0.357681 0.758484 -0.546121

loop_
_geom_bond_atom_site_label_1
_geom_bond_atom_site_label_2
_ccdc_geom_bond_type
C13   N6    A    
N1    N2    T    
C16   O3    S    
C6    C7    A    
C14   H1    S    
C5    C8    A    
C17   H3    S    
Cu2   O11   S    
C10   C19   S    
C15   H8    S    
C11   N5    A    
C12   O5    A    
Cu1   O8    S    
C18   O8    A    
C14   H5    S    
C4    C8    A    
Cu2   O7    S    
C20   C21   T    
C24   O3    S    
C1    O7    A    
C3    I1    S    
C16   H10   S    
C13   N3    A    
C17   H4    S    
C2    C9    A    
C2    C6    A    
C5    C24   A    
C2    O4    S    
C9    C18   S    
C8    C11   S    
C19   O9    A    
C17   O4    S    
C15   H9    S    
Cu2   N1    S    
C11   N4    A    
C3    C7    A    
N3    N5    A    
C19   O10   A    
C22   O12   S    
C10   C23   A    
Cu2   O9    S    
N4    N6    A    
C9    C22   A    
Cu1   O10   S    
Cu2   O5    S    
C18   O11   A    
C7    C13   S    
C14   O12   S    
Cu1   O6    S    
Cu1   N2    S    
C6    I4    S    
C15   O2    S    
C14   H6    S    
C4    C23   A    
C5    I3    S    
C23   O2    S    
C3    C22   A    
C10   C24   A    
Cu1   Cu2   S    
C17   H2    S    
C1    O1    A    
C12   C21   S    
C15   H7    S    
C12   O6    A    
C4    I2    S    
C16   H11   S    
C16   H12   S    
C1    C20   S    
Cu1   O1    S    
