data_mof_unit_59210.cif
_audit_creation_date              2012-12-10T17:33:01-0500
_audit_creation_method            fapswitch 2.2
_symmetry_space_group_name_H-M    P1
_symmetry_Int_Tables_number       1
_space_group_crystal_system       triclinic
_cell_length_a                    12.382037
_cell_length_b                    13.242622
_cell_length_c                    14.261621
_cell_angle_alpha                 93.139705
_cell_angle_beta                  108.150064
_cell_angle_gamma                 117.073843
_cell_volume                      1924.50802981

loop_
_atom_site_label
_atom_site_type_symbol
_atom_type_description
_atom_site_fract_x
_atom_site_fract_y
_atom_site_fract_z
_atom_type_partial_charge
C1    C     C_R   0.650775 0.714155 0.508703 0.753819
C2    C     C_R   0.823553 0.459969 0.907852 0.015163
C3    C     C_R   0.743120 0.424219 0.965236 0.044433
C4    C     C_R   0.936177 0.446964 0.934748 -0.062867
C5    C     C_R   0.986375 0.430414 0.032780 0.021639
C6    C     C_R   0.905028 0.396298 0.089346 -0.068232
C7    C     C_R   0.783615 0.390283 0.054476 -0.209038
C8    C     C_R   0.994557 0.441210 0.865004 0.622597
C9    C     C_R   0.109364 0.435418 0.896246 -0.232841
C10   C     C_R   0.171856 0.439704 0.997756 -0.128151
C11   C     C_R   0.112975 0.441788 0.068145 -0.116718
C12   C     C_R   0.616250 0.513576 0.686319 0.814844
C13   C     C_R   0.292650 0.442285 0.030031 0.644880
C14   C     C_R   0.358308 0.452753 0.132172 -0.356450
C15   C     C_R   0.185754 0.461929 0.172053 0.574578
C16   C     C_R   0.135819 0.965749 0.361470 -0.182890
C17   C     C_R   0.248553 0.161903 0.463439 -0.044331
C18   C     C_R   0.733636 0.921829 0.576842 -0.185876
C19   C     C_R   0.825256 0.038905 0.596894 -0.128380
C20   C     C_R   0.924558 0.073498 0.559465 -0.160956
C21   C     C_R   0.931373 0.990936 0.497394 0.073962
C22   C     C_R   0.828242 0.873541 0.466929 0.065498
C23   C     C_R   0.345319 0.285206 0.485120 0.802075
C24   C     C_R   0.037097 0.020928 0.464574 0.068681
C25   C     C_R   0.031763 0.937049 0.394151 0.148259
C26   C     C_R   0.921735 0.826220 0.355734 -0.245481
C27   C     C_R   0.820665 0.795254 0.390515 -0.201401
C28   C     C_R   0.149289 0.131503 0.500994 -0.211215
C29   C     C_R   0.243471 0.078139 0.395368 -0.184565
C30   C     C_R   0.735871 0.837834 0.514267 -0.099935
C31   C     C_R   0.257143 0.694026 0.653316 -0.252532
C32   C     C_R   0.651833 0.341822 0.363138 -0.010427
C33   C     C_R   0.727406 0.309040 0.329176 0.498902
C34   C     C_R   0.379759 0.481598 0.312824 0.874958
C35   C     C_R   0.863321 0.369523 0.378069 -0.196512
C36   C     C_R   0.926748 0.463675 0.463458 -0.067077
C37   C     C_R   0.844294 0.495903 0.493354 0.195134
C38   C     C_R   0.067382 0.528261 0.519275 -0.163183
C39   C     C_R   0.121104 0.627997 0.598182 -0.000932
C40   C     C_R   0.039398 0.662030 0.621848 0.439744
C41   C     C_R   0.903802 0.593347 0.573665 -0.140905
C42   C     C_R   0.158959 0.499616 0.502120 0.812399
C43   C     C_R   0.340235 0.662059 0.631602 -0.058971
C44   C     C_R   0.665399 0.498696 0.789207 -0.212679
C45   C     C_R   0.307194 0.465347 0.204170 -0.250916
C46   C     C_R   0.623144 0.422852 0.932348 -0.157959
C47   C     C_R   0.582101 0.455418 0.842396 -0.229397
C48   C     C_R   0.791240 0.512390 0.828403 0.501856
Cu1   Cu    Cu3+1 0.416420 0.526630 0.522910 1.018114
Cu2   Cu    Cu3+1 0.583580 0.473370 0.477090 0.945902
H1    H     H_    0.722480 0.361241 0.098597 0.183684
H2    H     H_    0.319655 0.100731 0.365259 0.161047
H3    H     H_    0.913962 0.762819 0.298860 0.156747
H4    H     H_    0.132153 0.902180 0.307542 0.148007
H5    H     H_    0.161838 0.196891 0.558132 0.149500
H6    H     H_    0.662708 0.896778 0.612592 0.154000
H7    H     H_    0.992639 0.165772 0.578896 0.149323
H8    H     H_    0.821889 0.103077 0.644565 0.165232
H9    H     H_    0.735551 0.709833 0.354916 0.180924
H10   H     H_    0.444947 0.713509 0.673405 0.152086
H11   H     H_    0.300009 0.770614 0.713250 0.199862
H12   H     H_    0.546423 0.294855 0.324350 0.153808
H13   H     H_    0.914452 0.341444 0.344673 0.247646
H14   H     H_    0.848407 0.620144 0.601705 0.208878
H15   H     H_    0.451478 0.454833 0.155253 0.197862
H16   H     H_    0.150485 0.429656 0.840633 0.214522
H17   H     H_    0.559230 0.392634 0.974190 0.198581
H18   H     H_    0.484897 0.445216 0.813751 0.213977
H19   H     H_    0.929431 0.366129 0.157509 0.216466
N1    N     N_R   0.290690 0.566960 0.557640 -0.222212
N2    N     N_R   0.709100 0.433710 0.442970 -0.229809
O1    O     O_R   0.545970 0.684450 0.528810 -0.582381
O2    O     O_R   0.687130 0.639470 0.490120 -0.621481
O3    O     O_R   0.519670 0.535100 0.660030 -0.596281
O4    O     O_R   0.660830 0.490120 0.621340 -0.540260
O5    O     O_R   0.312870 0.360530 0.509880 -0.528985
O6    O     O_R   0.454030 0.315550 0.471190 -0.593227
O7    O     O_R   0.339170 0.509880 0.378660 -0.462605
O8    O     O_R   0.480330 0.464900 0.339970 -0.615290
F1    F     F_    0.348188 0.436214 0.962996 -0.697657
F2    F     F_    0.145052 0.489434 0.242666 -0.653874
O9    O     O_3   0.093208 0.759724 0.698407 -0.587542
C49   C     C_3   0.079319 0.848704 0.655368 0.012502
H20   H     H_    0.976156 0.829057 0.631669 0.149939
H21   H     H_    0.109753 0.859706 0.589045 0.159578
C50   C     C_3   0.165663 0.963683 0.734438 -0.754351
H22   H     H_    0.269889 0.986125 0.759501 0.250882
H23   H     H_    0.154903 0.034195 0.701478 0.208970
H24   H     H_    0.136682 0.957010 0.801085 0.242995
F3    F     F_    0.120132 0.404303 0.432566 -0.655569
F4    F     F_    0.668771 0.218909 0.247541 -0.671337
O10   O     O_3   0.886142 0.587546 0.795825 -0.537224
C51   C     C_3   0.942039 0.703408 0.850868 0.049784
H25   H     H_    0.884274 0.716536 0.892048 0.105128
H26   H     H_    0.947120 0.760112 0.796168 0.183807
C52   C     C_3   0.080307 0.744965 0.926402 -0.712403
H27   H     H_    0.138530 0.729410 0.887918 0.289321
H28   H     H_    0.129409 0.839698 0.960235 0.202181
H29   H     H_    0.076493 0.697552 0.988159 0.220601
F5    F     F_    0.934080 0.427783 0.764080 -0.641978

loop_
_geom_bond_atom_site_label_1
_geom_bond_atom_site_label_2
_ccdc_geom_bond_type
C6    H19   S    
C26   H3    S    
C51   H25   S    
C12   O3    A    
C17   C29   A    
C31   H11   S    
C35   C36   A    
C23   O5    A    
C4    C8    A    
Cu2   O8    S    
C15   F2    S    
C26   C27   A    
C17   C23   S    
C31   C43   A    
C36   C37   A    
C5    C11   A    
C3    C7    A    
C33   F4    S    
C5    C6    A    
C50   H23   S    
C52   H29   S    
C42   N1    A    
Cu1   O7    S    
C18   C19   A    
C9    H16   S    
C1    C30   S    
C11   C15   A    
C19   C20   A    
C8    C9    A    
Cu1   O1    S    
C52   H28   S    
C18   C30   A    
C32   N2    A    
C9    C10   A    
C44   C47   A    
C18   H6    S    
C13   F1    S    
C51   H26   S    
C21   C22   A    
C37   C41   A    
C28   H5    S    
C14   C45   A    
C19   H8    S    
C1    O1    A    
C40   O9    S    
C24   C25   A    
Cu2   O2    S    
C39   C40   A    
C50   H22   S    
C2    C48   A    
C16   C29   A    
C50   H24   S    
C42   F3    S    
C2    C4    A    
Cu2   N2    S    
C34   O8    A    
C49   H20   S    
C52   H27   S    
Cu1   O5    S    
C34   C45   S    
C23   O6    A    
C43   H10   S    
C40   C41   A    
C49   H21   S    
O9    C49   S    
C51   C52   S    
C22   C27   A    
C37   N2    A    
C12   O4    A    
C15   C45   A    
Cu2   O6    S    
C47   H18   S    
C16   C25   A    
C46   C47   A    
C22   C30   A    
C17   C28   A    
C24   C28   A    
C4    C5    A    
C10   C13   A    
C38   C42   A    
C6    C7    A    
C43   N1    A    
C3    C46   A    
Cu1   N1    S    
C1    O2    A    
C32   C33   A    
C36   C38   A    
C2    C3    A    
C25   C26   A    
C7    H1    S    
C46   H17   S    
C12   C44   S    
C27   H9    S    
Cu2   O4    S    
C34   O7    A    
C38   C39   A    
O10   C51   S    
C33   C35   A    
C14   H15   S    
C31   C39   A    
C8    F5    S    
C16   H4    S    
C10   C11   A    
C32   H12   S    
C49   C50   S    
C20   C21   A    
Cu1   Cu2   S    
C48   O10   S    
C21   C24   A    
Cu1   O3    S    
C35   H13   S    
C41   H14   S    
C20   H7    S    
C13   C14   A    
C44   C48   A    
C29   H2    S    
