data_mof_unit_21461.cif
_audit_creation_date              2013-03-05T15:42:50-0500
_audit_creation_method            fapswitch 2.2
_symmetry_space_group_name_H-M    P1
_symmetry_Int_Tables_number       1
_space_group_crystal_system       triclinic
_cell_length_a                    27.940124
_cell_length_b                    17.282772
_cell_length_c                    18.009602
_cell_angle_alpha                 90.143931
_cell_angle_beta                  138.056579
_cell_angle_gamma                 89.921497
_cell_volume                      5812.70760347

loop_
_atom_site_label
_atom_site_type_symbol
_atom_site_description
_atom_site_fract_x
_atom_site_fract_y
_atom_site_fract_z
_atom_type_partial_charge
C1    C     C_R   0.668175 0.922649 0.817598 -0.102870
C2    C     C_R   0.331833 0.077337 0.182404 -0.102956
C3    C     C_R   0.312260 0.898990 0.196588 -0.139927
C4    C     C_R   0.687695 0.100990 0.803559 -0.140626
C5    C     C_R   0.187893 0.398815 0.802703 -0.136205
C6    C     C_R   0.812107 0.601180 0.197294 -0.136252
C7    C     C_R   0.833361 0.423472 0.182865 -0.109195
C8    C     C_R   0.166748 0.576587 0.817158 -0.108262
H1    H     H_    0.716764 0.955156 0.882654 0.100522
H2    H     H_    0.283257 0.044809 0.117352 0.100611
H3    H     H_    0.260742 0.926628 0.143838 0.102221
H4    H     H_    0.739247 0.073413 0.856387 0.102644
H5    H     H_    0.239363 0.426642 0.855521 0.104277
H6    H     H_    0.760640 0.573344 0.144469 0.104324
H7    H     H_    0.785021 0.456095 0.117398 0.102890
H8    H     H_    0.215069 0.543922 0.882551 0.102293
N1    N     N_R   0.625380 0.928280 0.709340 -0.041411
N2    N     N_R   0.374620 0.071720 0.290660 -0.041430
N3    N     N_R   0.374620 0.928280 0.290660 -0.037345
N4    N     N_R   0.625380 0.071720 0.709340 -0.037291
N5    N     N_R   0.125380 0.428280 0.709340 -0.037464
N6    N     N_R   0.874620 0.571720 0.290660 -0.037417
N7    N     N_R   0.874620 0.428280 0.290660 -0.042291
N8    N     N_R   0.125380 0.571720 0.709340 -0.042281
C9    C     C_R   0.360538 0.070725 0.492849 -0.102996
C10   C     C_R   0.639450 0.929281 0.507132 -0.102953
C11   C     C_R   0.674877 0.104553 0.595642 -0.138536
C12   C     C_R   0.325124 0.895447 0.404362 -0.138510
C13   C     C_R   0.825180 0.604485 0.404672 -0.138515
C14   C     C_R   0.174823 0.395514 0.595338 -0.138505
C15   C     C_R   0.139647 0.570710 0.507437 -0.111148
C16   C     C_R   0.860353 0.429290 0.492564 -0.111233
N9    N     N_R   0.386100 0.070250 0.452470 -0.045994
N10   N     N_R   0.613900 0.929750 0.547530 -0.045990
N11   N     N_R   0.613900 0.070250 0.547530 -0.046863
N12   N     N_R   0.386100 0.929750 0.452470 -0.046841
N13   N     N_R   0.886100 0.570250 0.452470 -0.043700
N14   N     N_R   0.113900 0.429750 0.547530 -0.043703
N15   N     N_R   0.113900 0.570250 0.547530 -0.045407
N16   N     N_R   0.886100 0.429750 0.452470 -0.045423
C17   C     C_R   0.408397 0.803257 0.495328 -0.129951
C18   C     C_R   0.591603 0.196743 0.504674 -0.129971
C19   C     C_R   0.557307 0.834570 0.420627 -0.099373
C20   C     C_R   0.442664 0.165451 0.579332 -0.099282
C21   C     C_R   0.942464 0.334573 0.578922 -0.100015
C22   C     C_R   0.057537 0.665428 0.421079 -0.099995
C23   C     C_R   0.091542 0.303255 0.504291 -0.123666
C24   C     C_R   0.908463 0.696743 0.495726 -0.123525
N17   N     N_R   0.437800 0.869550 0.507970 -0.043621
N18   N     N_R   0.562200 0.130450 0.492030 -0.043655
N19   N     N_R   0.562200 0.869550 0.492030 -0.047421
N20   N     N_R   0.437800 0.130450 0.507970 -0.047433
N21   N     N_R   0.937800 0.369550 0.507970 -0.047647
N22   N     N_R   0.062200 0.630450 0.492030 -0.047634
N23   N     N_R   0.062200 0.369550 0.492030 -0.043144
N24   N     N_R   0.937800 0.630450 0.507970 -0.043147
C25   C     C_R   0.604974 0.193508 0.714316 -0.161929
C26   C     C_R   0.394955 0.806452 0.285787 -0.162383
C27   C     C_R   0.416749 0.168661 0.272679 -0.130157
C28   C     C_R   0.583252 0.831334 0.727319 -0.130154
C29   C     C_R   0.082134 0.668319 0.726591 -0.128181
C30   C     C_R   0.917950 0.331744 0.273459 -0.127525
C31   C     C_R   0.894903 0.693629 0.286483 -0.162333
C32   C     C_R   0.105095 0.306370 0.713515 -0.162319
N25   N     N_R   0.573690 0.128980 0.653840 -0.039555
N26   N     N_R   0.426310 0.871020 0.346160 -0.039589
N27   N     N_R   0.426310 0.128980 0.346160 -0.043062
N28   N     N_R   0.573690 0.871020 0.653840 -0.043061
N29   N     N_R   0.073690 0.628980 0.653840 -0.043971
N30   N     N_R   0.926310 0.371020 0.346160 -0.044020
N31   N     N_R   0.926310 0.628980 0.346160 -0.039282
N32   N     N_R   0.073690 0.371020 0.653840 -0.039288
C33   C     C_R   0.641854 0.863243 0.830238 0.031852
C34   C     C_R   0.358150 0.136746 0.169760 0.031875
C35   C     C_R   0.324375 0.823423 0.192238 0.051851
C36   C     C_R   0.675513 0.176514 0.808024 0.052114
C37   C     C_R   0.175824 0.323174 0.806550 0.053767
C38   C     C_R   0.824175 0.676821 0.193448 0.053759
C39   C     C_R   0.860342 0.364356 0.170625 0.034352
C40   C     C_R   0.139867 0.635792 0.829439 0.034503
C41   C     C_R   0.397213 0.127703 0.575563 0.081665
C42   C     C_R   0.602760 0.872315 0.424398 0.081638
C43   C     C_R   0.662991 0.183676 0.572893 0.109269
C44   C     C_R   0.337009 0.816324 0.427108 0.109106
C45   C     C_R   0.837129 0.683614 0.427879 0.109722
C46   C     C_R   0.162876 0.316383 0.572144 0.109757
C47   C     C_R   0.103261 0.627811 0.425185 0.082368
C48   C     C_R   0.896741 0.372190 0.574817 0.082386
Ni1   Ni    Ni4+2 0.616560 0.000000 0.627280 0.231660
Ni2   Ni    Ni4+2 0.383440 0.000000 0.372720 0.231617
Ni3   Ni    Ni4+2 0.116560 0.500000 0.627280 0.230955
Ni4   Ni    Ni4+2 0.883440 0.500000 0.372720 0.230880
Ni5   Ni    Ni4+2 0.497990 0.870580 0.500000 0.220847
Ni6   Ni    Ni4+2 0.502010 0.129420 0.500000 0.220875
Ni7   Ni    Ni4+2 0.997990 0.370580 0.500000 0.221906
Ni8   Ni    Ni4+2 0.002010 0.629420 0.500000 0.221914
C49   C     C_3   0.707843 0.278525 0.942618 -0.138414
C50   C     C_3   0.291564 0.723565 0.055592 -0.136658
C51   C     C_3   0.334306 0.221940 0.019285 -0.124180
C52   C     C_3   0.665691 0.778045 0.980700 -0.124159
C53   C     C_3   0.163917 0.725989 0.977217 -0.132430
C54   C     C_3   0.836675 0.271867 0.024991 -0.133636
C55   C     C_3   0.791541 0.771957 0.053820 -0.132799
C56   C     C_3   0.208463 0.228039 0.946184 -0.132809
C57   C     C_3   0.235804 0.700449 0.096279 -0.136266
C58   C     C_3   0.765923 0.297889 0.905223 -0.135058
C59   C     C_3   0.719253 0.746618 0.938266 -0.133536
C60   C     C_3   0.280755 0.253374 0.061736 -0.133489
C61   C     C_3   0.777370 0.251827 0.059945 -0.131819
C62   C     C_3   0.220938 0.749806 0.939008 -0.133280
C63   C     C_3   0.260743 0.197332 0.901263 -0.133146
C64   C     C_3   0.739250 0.802656 0.098725 -0.133138
H9    H     H_    0.243535 0.682292 0.163746 0.134588
H10   H     H_    0.759578 0.314711 0.838798 0.134547
H11   H     H_    0.710592 0.724253 0.871083 0.138033
H12   H     H_    0.289422 0.275742 0.128922 0.138048
H13   H     H_    0.782581 0.233572 0.124828 0.136561
H14   H     H_    0.214353 0.769449 0.873118 0.136333
H15   H     H_    0.250985 0.176462 0.832527 0.137717
H16   H     H_    0.749001 0.823524 0.167456 0.137706
H17   H     H_    0.654291 0.280070 0.907634 0.138689
H18   H     H_    0.344618 0.723757 0.088940 0.138479
H19   H     H_    0.386926 0.217715 0.051639 0.142851
H20   H     H_    0.613068 0.782265 0.948337 0.142848
H21   H     H_    0.110553 0.725250 0.942755 0.139737
H22   H     H_    0.890539 0.270866 0.061092 0.139761
H23   H     H_    0.843849 0.768292 0.085032 0.138579
H24   H     H_    0.156158 0.231708 0.914982 0.138585
C65   C     C_3   0.271896 0.770580 0.101970 0.154452
C66   C     C_3   0.727990 0.229392 0.898288 0.154536
C67   C     C_3   0.685809 0.820275 0.932280 0.150734
C68   C     C_3   0.314192 0.179713 0.067714 0.150714
C69   C     C_3   0.815950 0.320744 0.068711 0.155743
C70   C     C_3   0.184191 0.679253 0.931466 0.155912
C71   C     C_3   0.227924 0.270607 0.897078 0.151743
C72   C     C_3   0.772075 0.729385 0.102918 0.151754
C73   C     C_3   0.746557 0.347900 0.951614 -0.150103
C74   C     C_3   0.254709 0.652585 0.047865 -0.150051
C75   C     C_3   0.300152 0.296204 0.012259 -0.156155
C76   C     C_3   0.699852 0.703784 0.987734 -0.156196
C77   C     C_3   0.201334 0.797078 0.985728 -0.159138
C78   C     C_3   0.797436 0.202438 0.015276 -0.158839
C79   C     C_3   0.757991 0.846009 0.047662 -0.154270
C80   C     C_3   0.242006 0.153984 0.952335 -0.154281
H25   H     H_    0.726998 0.408522 0.927521 0.127398
H26   H     H_    0.275385 0.592386 0.071528 0.127137
H27   H     H_    0.323286 0.355285 0.035854 0.131295
H28   H     H_    0.676721 0.644701 0.964137 0.131321
H29   H     H_    0.180211 0.857095 0.961185 0.128006
H30   H     H_    0.817485 0.142016 0.040393 0.127582
H31   H     H_    0.780772 0.905239 0.070663 0.127060
H32   H     H_    0.219221 0.094756 0.929335 0.127146
C81   C     C_R   0.611685 0.852483 0.355761 0.061511
C82   C     C_R   0.388288 0.147534 0.644199 0.061518
C83   C     C_R   0.283195 0.755460 0.377514 0.048664
C84   C     C_R   0.716803 0.244540 0.622476 0.048149
C85   C     C_R   0.216683 0.255540 0.621591 0.035823
C86   C     C_R   0.783322 0.744456 0.378443 0.035827
C87   C     C_R   0.887498 0.352179 0.642961 0.047546
C88   C     C_R   0.112505 0.647824 0.357043 0.047556
C89   C     C_R   0.398313 0.248431 0.749284 0.351813
C90   C     C_R   0.601681 0.751570 0.250715 0.351840
C91   C     C_R   0.740163 0.375932 0.608023 0.350518
C92   C     C_R   0.259834 0.624067 0.391967 0.350620
C93   C     C_R   0.761397 0.875247 0.396808 0.367117
C94   C     C_R   0.238602 0.124752 0.603210 0.367130
C95   C     C_R   0.103336 0.750374 0.255397 0.365962
C96   C     C_R   0.896665 0.249628 0.744605 0.366042
C97   C     C_R   0.425131 0.210813 0.717507 -0.267323
C98   C     C_R   0.574851 0.789196 0.282468 -0.267412
C99   C     C_R   0.695861 0.322336 0.591995 -0.300082
C100  C     C_R   0.304135 0.677663 0.407990 -0.300667
C101  C     C_R   0.804311 0.822325 0.408762 -0.281621
C102  C     C_R   0.195693 0.177671 0.591273 -0.281670
C103  C     C_R   0.075199 0.710691 0.283418 -0.244989
C104  C     C_R   0.924803 0.289312 0.716586 -0.245035
C105  C     C_R   0.335272 0.110980 0.624807 -0.184677
C106  C     C_R   0.664706 0.889033 0.375162 -0.184669
C107  C     C_R   0.787870 0.224477 0.690023 -0.191673
C108  C     C_R   0.212129 0.775523 0.309970 -0.190894
C109  C     C_R   0.712537 0.724229 0.312508 -0.164080
C110  C     C_R   0.287468 0.275767 0.687522 -0.164082
C111  C     C_R   0.166667 0.612618 0.378135 -0.157416
C112  C     C_R   0.833333 0.387385 0.621869 -0.157431
C113  C     C_R   0.303508 0.150707 0.647065 -0.037359
C114  C     C_R   0.696484 0.849296 0.352935 -0.037358
C115  C     C_R   0.831152 0.274857 0.699414 -0.037623
C116  C     C_R   0.168847 0.725145 0.300583 -0.037845
C117  C     C_R   0.668299 0.776135 0.299257 -0.011273
C118  C     C_R   0.331699 0.223863 0.700755 -0.011275
C119  C     C_R   0.196119 0.651171 0.351337 -0.009187
C120  C     C_R   0.803881 0.348831 0.648660 -0.009213
N33   N     N_R   0.788821 0.951469 0.442038 0.229694
O1    O     O_R   0.805621 0.995122 0.405326 -0.387351
O2    O     O_R   0.813177 0.969314 0.535680 -0.365152
N34   N     N_R   0.211176 0.048531 0.557977 0.229693
O3    O     O_R   0.194393 0.004871 0.594708 -0.387354
O4    O     O_R   0.186802 0.030695 0.464319 -0.365168
N35   N     N_R   0.069548 0.820799 0.193440 0.228894
O5    O     O_R   0.003100 0.819050 0.095178 -0.375583
O6    O     O_R   0.098028 0.886961 0.244326 -0.354081
N36   N     N_R   0.930452 0.179203 0.806561 0.228891
O7    O     O_R   0.996897 0.180953 0.904828 -0.375588
O8    O     O_R   0.901975 0.113042 0.755673 -0.354059
N37   N     N_R   0.435622 0.314404 0.822393 0.236806
O9    O     O_R   0.477673 0.355546 0.828997 -0.373339
O10   O     O_R   0.435057 0.327544 0.892934 -0.390083
N38   N     N_R   0.564380 0.685590 0.177618 0.236794
O11   O     O_R   0.522327 0.644450 0.171012 -0.373238
O12   O     O_R   0.564953 0.672441 0.107089 -0.390089
N39   N     N_R   0.717355 0.455170 0.574696 0.232604
O13   O     O_R   0.649542 0.472494 0.496955 -0.379316
O14   O     O_R   0.764146 0.510955 0.631403 -0.390155
N40   N     N_R   0.282641 0.544829 0.425289 0.232586
O15   O     O_R   0.350453 0.527503 0.503019 -0.379348
O16   O     O_R   0.235848 0.489045 0.368586 -0.390162
H33   H     H_    0.321296 0.030690 0.468738 0.125183
H34   H     H_    0.678693 0.969313 0.531243 0.125191
H35   H     H_    0.726512 0.076763 0.659285 0.118670
H36   H     H_    0.273489 0.923237 0.340716 0.118625
H37   H     H_    0.773521 0.576686 0.340726 0.110134
H38   H     H_    0.226480 0.423315 0.659284 0.110125
H39   H     H_    0.178781 0.530538 0.531395 0.114344
H40   H     H_    0.821219 0.469462 0.468606 0.114359
H41   H     H_    0.434088 0.748076 0.516204 0.098520
H42   H     H_    0.565911 0.251924 0.483796 0.098555
H43   H     H_    0.521038 0.787844 0.366469 0.105817
H44   H     H_    0.478898 0.212206 0.633449 0.105732
H45   H     H_    0.978694 0.287896 0.632874 0.103266
H46   H     H_    0.021306 0.712104 0.367127 0.103255
H47   H     H_    0.065901 0.248054 0.483468 0.095996
H48   H     H_    0.934106 0.751944 0.516558 0.095974
H49   H     H_    0.580988 0.250465 0.686389 0.111205
H50   H     H_    0.418947 0.749498 0.313698 0.111574
H51   H     H_    0.446844 0.219283 0.291002 0.115793
H52   H     H_    0.553156 0.780713 0.708993 0.115795
H53   H     H_    0.052529 0.719503 0.708268 0.114933
H54   H     H_    0.947546 0.280544 0.291801 0.114725
H55   H     H_    0.919316 0.750405 0.314100 0.110459
H56   H     H_    0.080681 0.249595 0.685896 0.110463
H57   H     H_    0.687573 0.942603 0.421147 0.170648
H58   H     H_    0.312398 0.057415 0.578809 0.170654
H59   H     H_    0.193917 0.833389 0.277388 0.172553
H60   H     H_    0.806082 0.166612 0.722607 0.172718
H61   H     H_    0.304841 0.334839 0.715031 0.165249
H62   H     H_    0.695165 0.665156 0.285003 0.165254
H63   H     H_    0.807216 0.438433 0.570504 0.162439
H64   H     H_    0.192788 0.561571 0.429501 0.162438
H65   H     H_    0.527747 0.765940 0.254758 0.160447
H66   H     H_    0.472234 0.234069 0.745215 0.160461
H67   H     H_    0.356146 0.658681 0.449353 0.167869
H68   H     H_    0.643849 0.341317 0.550624 0.167909
H69   H     H_    0.143254 0.158572 0.548085 0.155751
H70   H     H_    0.856752 0.841424 0.451958 0.155754
H71   H     H_    0.971412 0.265265 0.743317 0.148081
H72   H     H_    0.028591 0.734738 0.256688 0.148079

loop_
_geom_bond_atom_site_label_1
_geom_bond_atom_site_label_2
_geom_bond_distance
_ccdc_geom_bond_type
C68   C80   1.531893 S    
C33   C67   1.443571 S    
C11   H35   1.080161 S    
C50   C62   1.531960 S    
C56   C71   1.529291 S    
C34   C68   1.443602 S    
C10   H34   1.077839 S    
C94   C113  1.408373 A    
C32   C37   1.367642 A    
C9    H33   1.077839 S    
C55   C79   1.540034 S    
C28   H52   1.081284 S    
C3    H3    1.081075 S    
C69   C73   1.531900 S    
C72   C76   1.530247 S    
N29   Ni8   1.852798 S    
C89   N37   1.440223 S    
C1    C33   1.378058 A    
C76   H28   1.109967 S    
C52   C67   1.530550 S    
C77   H29   1.110032 S    
C103  H72   1.080386 S    
C14   H38   1.080155 S    
C53   C70   1.530338 S    
C89   C118  1.410190 A    
N9    N20   1.420976 A    
C71   C75   1.530248 S    
N33   O1    1.300691 A    
N13   N24   1.420976 A    
C75   H27   1.109963 S    
N10   N19   1.420975 A    
N36   O8    1.301132 A    
C51   C68   1.530552 S    
C58   H10   1.110496 S    
C116  C119  1.420461 A    
C64   C79   1.549891 S    
C57   H9    1.110309 S    
C94   N34   1.433488 S    
C49   C66   1.529436 S    
C31   H55   1.081753 S    
C84   C107  1.396313 A    
N40   O16   1.301538 A    
C6    C38   1.365253 A    
N15   N22   1.421753 A    
C12   C44   1.395436 A    
C105  C113  1.394946 A    
C29   N29   1.330673 A    
C110  C118  1.395951 A    
C16   C48   1.402162 A    
C7    H7    1.079139 S    
C28   C33   1.379581 A    
N34   O3    1.300690 A    
C40   C70   1.443819 S    
C47   C88   1.471836 S    
C30   N30   1.330649 A    
N3    N26   1.384845 A    
C63   H15   1.110314 S    
C8    H8    1.079064 S    
C48   C87   1.471830 S    
N15   Ni3   1.841786 S    
C59   C76   1.535710 S    
C49   H17   1.110865 S    
C108  C116  1.395372 A    
C27   N27   1.330837 A    
C57   C74   1.550436 S    
C42   C81   1.470996 S    
C109  C117  1.395953 A    
C83   C100  1.405417 A    
C10   N10   1.345952 A    
C114  C117  1.420406 A    
N14   N23   1.420975 A    
C19   H43   1.076255 S    
N38   O11   1.301601 A    
N33   O2    1.301165 A    
C56   H24   1.110752 S    
C81   C98   1.404567 A    
C26   C35   1.368138 A    
N27   Ni6   1.852652 S    
C53   H21   1.109907 S    
C112  C120  1.395609 A    
C3    N3    1.330108 A    
C61   C78   1.535032 S    
C87   C112  1.395788 A    
C14   C46   1.395416 A    
C92   C119  1.409135 A    
C52   C76   1.546561 S    
C88   C111  1.395720 A    
C5    H5    1.081116 S    
C107  H60   1.077393 S    
C2    C34   1.378069 A    
C54   C78   1.545815 S    
C85   C102  1.405466 A    
C106  H57   1.077907 S    
C89   C97   1.395118 A    
C20   N20   1.331402 A    
N37   O10   1.301587 A    
C105  H58   1.077907 S    
C23   N23   1.327791 A    
C51   C63   1.556318 S    
N35   O5    1.300694 A    
C12   H36   1.080159 S    
C96   C115  1.409404 A    
C9    C41   1.401219 A    
C22   H46   1.076147 S    
N7    N30   1.384845 A    
C62   H14   1.111003 S    
C53   C77   1.546002 S    
C64   C72   1.531260 S    
C67   C79   1.531892 S    
C49   C73   1.541336 S    
C16   H40   1.077663 S    
C26   N26   1.332119 A    
N8    N29   1.384842 A    
C18   H42   1.079146 S    
C53   C57   1.556377 S    
C4    C36   1.365646 A    
C39   C69   1.443727 S    
C17   H41   1.079147 S    
C94   C102  1.390869 A    
C60   C68   1.533918 S    
N36   O7    1.300689 A    
C58   C66   1.531692 S    
N5    N32   1.384081 A    
C61   H13   1.111207 S    
N2    Ni2   1.802170 S    
C23   C46   1.376162 A    
N4    N25   1.384842 A    
C113  C118  1.420406 A    
C21   C48   1.384790 A    
C15   C47   1.402163 A    
C91   C99   1.394197 A    
N23   Ni7   1.903275 S    
C20   C41   1.384435 A    
C110  H61   1.079089 S    
C25   N25   1.332054 A    
C64   H16   1.110322 S    
C91   N39   1.440300 S    
N40   O15   1.301571 A    
N18   Ni6   1.791166 S    
C65   C77   1.530278 S    
C57   C65   1.531489 S    
C43   C84   1.472001 S    
C92   N40   1.440298 S    
N2    N27   1.384084 A    
N37   O9    1.301601 A    
C17   C44   1.376069 A    
C61   C69   1.534588 S    
C99   H68   1.078806 S    
C41   C82   1.470989 S    
C63   C71   1.531263 S    
C82   C97   1.404572 A    
C93   N33   1.433489 S    
C52   H20   1.109919 S    
C5    N5    1.330503 A    
C24   H48   1.079103 S    
C97   H66   1.079847 S    
C62   C77   1.535045 S    
C13   H37   1.080155 S    
C55   C72   1.529291 S    
C54   H22   1.110102 S    
N21   Ni7   1.791167 S    
C6    H6    1.081122 S    
C49   C61   1.532195 S    
C86   C109  1.396402 A    
C30   C39   1.380796 A    
C102  H69   1.079522 S    
N39   O13   1.301573 A    
C90   C98   1.395122 A    
C101  H70   1.079519 S    
C1    H1    1.078891 S    
C22   N22   1.330854 A    
N11   N18   1.421753 A    
C56   C80   1.540034 S    
N1    Ni1   1.802174 S    
C30   H54   1.081221 S    
N16   Ni4   1.841788 S    
N20   Ni6   1.903276 S    
C29   H53   1.081222 S    
C20   H44   1.076216 S    
C27   C34   1.379601 A    
C59   H11   1.110951 S    
C115  C120  1.420460 A    
C91   C120  1.409129 A    
C51   C75   1.546560 S    
C63   C80   1.549890 S    
C18   N18   1.327565 A    
N26   Ni5   1.852799 S    
C15   H39   1.077665 S    
N11   Ni1   1.841786 S    
C23   H47   1.079103 S    
N38   O12   1.301587 A    
N25   Ni6   1.852798 S    
N39   O14   1.301536 A    
C50   C74   1.540786 S    
C52   C64   1.556316 S    
C87   C104  1.404733 A    
C96   C104  1.391581 A    
C60   H12   1.110948 S    
C88   C103  1.404731 A    
C62   C70   1.534452 S    
C4    H4    1.081112 S    
C45   C86   1.472319 S    
C5    C37   1.365258 A    
C2    H2    1.078906 S    
N8    Ni3   1.797524 S    
C26   H50   1.081808 S    
N6    N31   1.384084 A    
C56   C60   1.532011 S    
C55   H23   1.110758 S    
C83   C108  1.396312 A    
C25   C36   1.368093 A    
C7    C39   1.380099 A    
C22   C47   1.384796 A    
N5    Ni3   1.802174 S    
C108  H59   1.077393 S    
N12   Ni2   1.841788 S    
N7    Ni4   1.797523 S    
C24   N24   1.327789 A    
C81   C106  1.395415 A    
N1    N28   1.384081 A    
C95   N35   1.433296 S    
C84   C99   1.405418 A    
N13   Ni4   1.837158 S    
C90   N38   1.440223 S    
C109  H62   1.079088 S    
N22   Ni8   1.791166 S    
C21   H45   1.076147 S    
C27   H51   1.081284 S    
C18   C43   1.376067 A    
N28   Ni5   1.852650 S    
C31   N31   1.331869 A    
C2    N2    1.331576 A    
C58   C73   1.550947 S    
C111  C119  1.395683 A    
C70   C74   1.531994 S    
C60   C75   1.535707 S    
C25   H49   1.081811 S    
C73   H25   1.110219 S    
N31   Ni8   1.852652 S    
C4    N4    1.330316 A    
C51   H19   1.109915 S    
C17   N17   1.327570 A    
C37   C71   1.440753 S    
N4    Ni1   1.797524 S    
C100  H67   1.078809 S    
C1    N1    1.331572 A    
C93   C114  1.408375 A    
N19   Ni5   1.903275 S    
N32   Ni7   1.852650 S    
C98   H65   1.079847 S    
C28   N28   1.330831 A    
C11   N11   1.344995 A    
C78   H30   1.110281 S    
C59   C67   1.533914 S    
C11   C43   1.395435 A    
N30   Ni7   1.852799 S    
C3    C35   1.365328 A    
C54   C69   1.530494 S    
C13   C45   1.395424 A    
C80   H32   1.109973 S    
N3    Ni2   1.797523 S    
N9    Ni2   1.837158 S    
C104  H71   1.080385 S    
C19   N19   1.331397 A    
N10   Ni1   1.837159 S    
C74   H26   1.110009 S    
C15   N15   1.346002 A    
C7    N7    1.332259 A    
C95   C116  1.409405 A    
N14   Ni3   1.837159 S    
C50   C65   1.529065 S    
C79   H31   1.109976 S    
C112  H63   1.079231 S    
C96   N36   1.433295 S    
C54   C58   1.556270 S    
C86   C101  1.405465 A    
C111  H64   1.079235 S    
C16   N16   1.345999 A    
N24   Ni8   1.903276 S    
C66   C78   1.530327 S    
C46   C85   1.472311 S    
N35   O6    1.301134 A    
C32   H56   1.081751 S    
N34   O4    1.301165 A    
C92   C100  1.394200 A    
N12   N17   1.421754 A    
C21   N21   1.330855 A    
C106  C114  1.394952 A    
C95   C103  1.391582 A    
C107  C115  1.395370 A    
C8    N8    1.331989 A    
C12   N12   1.344996 A    
C50   H18   1.110708 S    
C10   C42   1.401239 A    
N16   N21   1.421754 A    
C85   C110  1.396394 A    
C82   C105  1.395413 A    
C13   N13   1.344781 A    
C44   C83   1.472010 S    
C8    C40   1.379807 A    
C19   C42   1.384444 A    
N6    Ni4   1.802170 S    
C24   C45   1.376179 A    
C55   C59   1.532014 S    
C29   C40   1.380912 A    
C14   N14   1.344783 A    
N17   Ni5   1.791167 S    
C93   C101  1.390876 A    
C38   C72   1.440726 S    
C90   C117  1.410197 A    
C36   C66   1.441545 S    
C35   C65   1.441203 S    
C32   N32   1.331875 A    
C9    N9    1.345944 A    
C31   C38   1.367646 A    
C6    N6    1.330485 A    
