data_mof_unit_31421.cif
_audit_creation_date              2012-12-10T16:44:17-0500
_audit_creation_method            fapswitch 2.2
_symmetry_space_group_name_H-M    P1
_symmetry_Int_Tables_number       1
_space_group_crystal_system       triclinic
_cell_length_a                    7.633067
_cell_length_b                    8.64945
_cell_length_c                    13.296489
_cell_angle_alpha                 97.296009
_cell_angle_beta                  79.432401
_cell_angle_gamma                 101.987003
_cell_volume                      840.536407313

loop_
_atom_site_label
_atom_site_type_symbol
_atom_type_description
_atom_site_fract_x
_atom_site_fract_y
_atom_site_fract_z
_atom_type_partial_charge
C1    C     C_R   0.541668 0.799246 0.506566 0.825286
C2    C     C_R   0.431875 0.477413 0.970925 0.109944
C3    C     C_R   0.447444 0.542888 0.876825 0.074758
C4    C     C_R   0.555211 0.547111 0.039029 -0.022994
C5    C     C_R   0.658462 0.701740 0.024461 0.095357
C6    C     C_R   0.659106 0.772532 0.935637 -0.173809
C7    C     C_R   0.558155 0.692197 0.861471 -0.137290
C8    C     C_R   0.578645 0.469970 0.121823 0.343597
C9    C     C_R   0.745466 0.718570 0.191633 -0.244291
C10   C     C_R   0.345718 0.460260 0.801726 -0.077085
C11   C     C_2   0.551690 0.966836 0.522458 -0.254530
C12   C     C_R   0.402386 0.488607 0.693093 0.754432
C13   C     C_2   0.449073 0.033248 0.476699 -0.222542
C14   C     C_R   0.458542 0.200768 0.493094 0.857865
C15   C     C_R   0.597550 0.513677 0.307334 0.855614
C16   C     C_R   0.756834 0.784743 0.100080 -0.127147
C17   C     C_R   0.652676 0.562640 0.203549 -0.110678
C18   C     C_R   0.204611 0.332497 0.827962 -0.167480
C19   C     C_R   0.170990 0.282424 0.926298 -0.107482
C20   C     C_R   0.285071 0.352341 0.996916 -0.093751
Cu1   Cu    Cu3+1 0.321300 0.483160 0.488710 1.155895
Cu2   Cu    Cu3+1 0.678700 0.516840 0.511290 1.152748
H1    H     H_    0.804229 0.790592 0.254402 0.180025
H2    H     H_    0.366598 0.965690 0.421853 0.196716
H3    H     H_    0.738224 0.889997 0.923338 0.163363
H4    H     H_    0.832129 0.904453 0.091270 0.187172
H5    H     H_    0.123638 0.268631 0.771482 0.166170
H6    H     H_    0.254329 0.311070 0.072653 0.200073
H7    H     H_    0.059885 0.185641 0.946799 0.177942
H8    H     H_    0.557350 0.751761 0.794900 0.172867
H9    H     H_    0.634481 0.034490 0.577129 0.189123
N1    N     N_2   0.947230 0.542220 0.528320 0.087281
N2    N     N_2   0.052770 0.457780 0.471680 0.077020
O1    O     O_R   0.383920 0.714220 0.492660 -0.539593
O2    O     O_R   0.685730 0.742660 0.511730 -0.526083
O3    O     O_R   0.275440 0.478800 0.636790 -0.550891
O4    O     O_R   0.577250 0.507240 0.655860 -0.556030
O5    O     O_R   0.314270 0.257340 0.488270 -0.524159
O6    O     O_R   0.616080 0.285780 0.507340 -0.542675
O7    O     O_R   0.422750 0.492760 0.344140 -0.558865
O8    O     O_R   0.724560 0.521200 0.363210 -0.551210
S1    S     S_3+6 0.020733 0.725799 0.591946 0.141826
O9    O     O_2   0.163581 0.729080 0.656114 -0.303529
O10   O     O_2   0.083698 0.845526 0.514580 -0.297588
O11   O     O_3   0.844804 0.781519 0.673280 -0.526165
H10   H     H_    0.887204 0.894826 0.695433 0.347009
S2    S     S_3+6 0.979924 0.274451 0.407880 0.151928
O12   O     O_2   0.919337 0.153911 0.484846 -0.309105
O13   O     O_2   0.835477 0.270476 0.344834 -0.249051
O14   O     O_3   0.156041 0.221329 0.325357 -0.464351
H11   H     H_    0.116718 0.106578 0.305817 0.368366
S3    S     S_3+6 0.589538 0.264422 0.106052 -0.018798
O15   O     O_2   0.759053 0.242819 0.140406 -0.261204
O16   O     O_2   0.428671 0.172586 0.170317 -0.317957
O17   O     O_3   0.596647 0.193020 0.981790 -0.557546
H12   H     H_    0.516423 0.087128 0.982378 0.361503

loop_
_geom_bond_atom_site_label_1
_geom_bond_atom_site_label_2
_ccdc_geom_bond_type
C2    C4    A    
O17   H12   S    
S1    O10   D    
C6    C7    A    
C13   C14   S    
C14   O5    A    
C8    S3    S    
C8    C17   A    
C1    C11   S    
S3    O17   S    
C4    C8    A    
N1    N2    D    
C2    C3    A    
C11   H9    S    
S2    O13   D    
Cu1   O3    S    
Cu1   Cu2   S    
Cu2   O2    S    
C11   C13   D    
C15   O8    A    
Cu1   O7    S    
Cu2   N1    S    
C10   C18   A    
C3    C10   A    
Cu2   O6    S    
C10   C12   S    
C9    C17   A    
C9    C16   A    
S3    O16   D    
C1    O1    A    
O14   H11   S    
S2    O14   S    
C3    C7    A    
C16   H4    S    
C5    C6    A    
N2    S2    S    
C15   O7    A    
C6    H3    S    
C12   O3    A    
S1    O9    D    
Cu1   O5    S    
C2    C20   A    
Cu2   O8    S    
S2    O12   D    
Cu1   N2    S    
S3    O15   D    
C1    O2    A    
C7    H8    S    
C18   C19   A    
C12   O4    A    
C15   C17   S    
N1    S1    S    
C9    H1    S    
C5    C16   A    
Cu1   O1    S    
C20   H6    S    
C14   O6    A    
O11   H10   S    
Cu2   O4    S    
C18   H5    S    
C19   C20   A    
C13   H2    S    
C4    C5    A    
S1    O11   S    
C19   H7    S    
