data_mof_unit_53606.cif
_audit_creation_date              2012-12-10T18:00:43-0500
_audit_creation_method            fapswitch 2.2
_symmetry_space_group_name_H-M    P1
_symmetry_Int_Tables_number       1
_space_group_crystal_system       triclinic
_cell_length_a                    15.855496
_cell_length_b                    10.902827
_cell_length_c                    9.627417
_cell_angle_alpha                 91.845219
_cell_angle_beta                  90.872713
_cell_angle_gamma                 93.219409
_cell_volume                      1660.55861881

loop_
_atom_site_label
_atom_site_type_symbol
_atom_type_description
_atom_site_fract_x
_atom_site_fract_y
_atom_site_fract_z
_atom_type_partial_charge
C1    C     C_R   0.502636 0.262545 0.498012 0.880487
C2    C     C_R   0.497532 0.737326 0.502081 0.876861
C3    C     C_R   0.453921 0.928949 0.397129 0.149603
C4    C     C_R   0.545847 0.070600 0.604421 0.163325
C5    C     C_R   0.494796 0.871316 0.505746 -0.205056
C6    C     C_R   0.505695 0.128308 0.494747 -0.200097
C7    C     C_R   0.439222 0.432591 0.068918 0.260974
C8    C     C_R   0.561572 0.565939 0.931490 0.259374
C9    C     C_R   0.439851 0.431204 0.920446 0.261146
C10   C     C_R   0.560243 0.568108 0.079680 0.266923
C11   C     C_R   0.340143 0.500536 0.499064 0.829152
C12   C     C_R   0.659870 0.500482 0.500861 0.826441
C13   C     C_3   0.968506 0.390855 0.524673 0.123501
C14   C     C_3   0.031539 0.614890 0.474381 0.119889
C15   C     C_3   0.023710 0.423266 0.399199 0.213041
C16   C     C_3   0.976294 0.582470 0.599843 0.217277
C17   C     C_1   0.250620 0.501934 0.497220 -0.106915
C18   C     C_1   0.749415 0.501259 0.502339 -0.081402
C19   C     C_3   0.028372 0.468752 0.624484 0.222460
C20   C     C_3   0.971594 0.536980 0.374596 0.224806
C21   C     C_3   0.083589 0.502645 0.498613 -0.142875
C22   C     C_3   0.916466 0.503044 0.500526 -0.147525
C23   C     C_1   0.175177 0.502629 0.497367 0.108654
C24   C     C_1   0.824886 0.502070 0.501981 0.116972
C25   C     C_R   0.463205 0.056523 0.387915 0.158163
C26   C     C_R   0.537888 0.942700 0.612132 0.153067
Cu1   Cu    Cu3+1 0.500000 0.500020 0.640660 1.045774
Cu2   Cu    Cu3+1 0.500000 0.499980 0.359340 1.047760
N1    N     N_R   0.500020 0.500030 0.852070 -0.215558
N2    N     N_R   0.499980 0.499970 0.147930 -0.215010
O1    O     O_R   0.500000 0.319660 0.618740 -0.537835
O2    O     O_R   0.500000 0.680340 0.381260 -0.539843
O3    O     O_R   0.499990 0.319630 0.381170 -0.544899
O4    O     O_R   0.500010 0.680370 0.618830 -0.544716
O5    O     O_R   0.379080 0.500000 0.618760 -0.581287
O6    O     O_R   0.620920 0.500000 0.381240 -0.576459
O7    O     O_R   0.379080 0.499970 0.381190 -0.502426
O8    O     O_R   0.620920 0.500030 0.618810 -0.507963
Br1   Br    Br    0.060649 0.313356 0.252610 -0.362791
Br2   Br    Br    0.939307 0.692564 0.746212 -0.353675
N3    N     N_2   0.929744 0.270803 0.552672 -0.370010
H1    H     H_    0.878571 0.246165 0.488413 0.270548
C27   C     C_3   0.986571 0.172733 0.567955 -0.531727
H2    H     H_    0.952111 0.093026 0.614311 0.232150
H3    H     H_    0.040969 0.202017 0.637244 0.256119
H4    H     H_    0.010072 0.142780 0.465138 0.226164
N4    N     N_2   0.070428 0.734860 0.446383 -0.370705
H5    H     H_    0.121651 0.759348 0.510593 0.272084
C28   C     C_3   0.013750 0.833109 0.431129 -0.531499
H6    H     H_    0.048320 0.912732 0.384794 0.232340
H7    H     H_    0.990292 0.863117 0.533953 0.225627
H8    H     H_    0.959336 0.803990 0.361815 0.258063
Br3   Br    Br    0.928690 0.581325 0.194170 -0.334555
Br4   Br    Br    0.069643 0.424485 0.805851 -0.375914
N5    N     N_2   0.431670 0.112444 0.268310 -0.365150
H9    H     H_    0.368667 0.090346 0.246507 0.312136
C29   C     C_3   0.485299 0.106007 0.147642 -0.526701
H10   H     H_    0.447971 0.067474 0.056306 0.215492
H11   H     H_    0.539888 0.048123 0.164836 0.204540
H12   H     H_    0.510482 0.199657 0.123470 0.246132
N6    N     N_2   0.570724 0.885884 0.730321 -0.366906
H13   H     H_    0.634167 0.906344 0.749912 0.307413
C30   C     C_3   0.518709 0.892406 0.852825 -0.527868
H14   H     H_    0.555312 0.940269 0.939576 0.211171
H15   H     H_    0.499309 0.798310 0.884284 0.240516
H16   H     H_    0.460314 0.941968 0.834173 0.214108
Br5   Br    Br    0.378987 0.837255 0.265011 -0.512122
Br6   Br    Br    0.617369 0.162490 0.741195 -0.502351
Br7   Br    Br    0.349800 0.338154 0.154837 -0.471367
Br8   Br    Br    0.655467 0.654217 0.848876 -0.450399
N7    N     N_2   0.383585 0.348068 0.842136 -0.386005
H17   H     H_    0.391902 0.256752 0.860171 0.254976
C31   C     C_3   0.295444 0.377149 0.834522 -0.478276
H18   H     H_    0.257495 0.324208 0.910282 0.260905
H19   H     H_    0.269318 0.349003 0.730142 0.211181
H20   H     H_    0.287819 0.477138 0.852831 0.244070
N8    N     N_2   0.623799 0.637969 0.158464 -0.361715
H21   H     H_    0.684594 0.613021 0.140764 0.288191
C32   C     C_3   0.615815 0.769761 0.167797 -0.581386
H22   H     H_    0.658170 0.816588 0.092894 0.238007
H23   H     H_    0.634871 0.804446 0.273934 0.223048
H24   H     H_    0.549859 0.794112 0.146882 0.240354

loop_
_geom_bond_atom_site_label_1
_geom_bond_atom_site_label_2
_ccdc_geom_bond_type
N5    H9    S    
C30   H15   S    
C5    C26   A    
Cu1   N1    S    
C31   H19   S    
C31   H18   S    
C13   N3    S    
C1    O3    A    
N4    C28   S    
N8    H21   S    
C17   C23   T    
C18   C24   T    
C8    N1    A    
C14   C21   S    
C19   C21   S    
C26   N6    S    
C29   H11   S    
C6    C25   A    
Cu1   O8    S    
C1    O1    A    
C2    O2    A    
N3    H1    S    
N6    C30   S    
C11   O5    A    
C28   H7    S    
C11   O7    A    
C12   O6    A    
C9    N1    A    
C2    O4    A    
C30   H16   S    
Cu1   O4    S    
C7    N2    A    
N3    C27   S    
C10   N8    S    
N8    C32   S    
C21   C23   S    
C15   C20   S    
C13   C19   S    
Cu1   O1    S    
C1    C6    S    
C14   C20   S    
C3    C25   A    
C4    C6    A    
C32   H23   S    
C29   H12   S    
Cu1   O5    S    
C4    Br6   S    
C30   H14   S    
C27   H2    S    
C10   N2    A    
N4    H5    S    
Cu2   O2    S    
C28   H8    S    
C27   H3    S    
C15   Br1   S    
C16   Br2   S    
C19   Br4   S    
C20   C22   S    
Cu2   O3    S    
N5    C29   S    
C31   H20   S    
C14   C16   S    
C9    N7    S    
C2    C5    S    
N7    C31   S    
C7    C9    A    
C11   C17   S    
C16   C22   S    
C3    Br5   S    
C25   N5    S    
C20   Br3   S    
C3    C5    A    
C7    Br7   S    
C32   H24   S    
C4    C26   A    
C14   N4    S    
C8    Br8   S    
C13   C15   S    
N7    H17   S    
C29   H10   S    
Cu2   O7    S    
C16   C19   S    
Cu2   N2    S    
C13   C22   S    
C22   C24   S    
C12   O8    A    
N6    H13   S    
C27   H4    S    
C32   H22   S    
C15   C21   S    
Cu2   O6    S    
C8    C10   A    
C28   H6    S    
C12   C18   S    
Cu1   Cu2   S    
