data_mof_unit_29653.cif
_audit_creation_date              2012-12-10T19:01:23-0500
_audit_creation_method            fapswitch 2.2
_symmetry_space_group_name_H-M    P1
_symmetry_Int_Tables_number       1
_space_group_crystal_system       triclinic
_cell_length_a                    9.568439
_cell_length_b                    10.85298
_cell_length_c                    15.467717
_cell_angle_alpha                 90.131774
_cell_angle_beta                  74.32079
_cell_angle_gamma                 90.369978
_cell_volume                      1546.46002781

loop_
_atom_site_label
_atom_site_type_symbol
_atom_type_description
_atom_site_fract_x
_atom_site_fract_y
_atom_site_fract_z
_atom_type_partial_charge
C1    C     C_R   0.999123 0.262796 0.500948 0.799853
C2    C     C_R   0.669239 0.460900 0.904929 0.091889
C3    C     C_R   0.769017 0.423939 0.952680 0.169703
C4    C     C_R   0.518418 0.466947 0.949705 0.071998
C5    C     C_R   0.470994 0.448452 0.044303 0.062439
C6    C     C_R   0.574411 0.411180 0.089365 -0.226538
C7    C     C_R   0.719991 0.397640 0.043944 -0.240664
C8    C     C_R   0.413536 0.490526 0.902753 -0.247866
C9    C     C_R   0.269977 0.512356 0.947848 -0.259065
C10   C     C_R   0.224125 0.506274 0.040995 0.174518
C11   C     C_R   0.322414 0.470341 0.090333 0.091505
C12   C     C_R   0.918134 0.497787 0.672117 0.795271
C13   C     C_R   0.080314 0.536083 0.085384 -0.218467
C14   C     C_R   0.032919 0.532790 0.178578 -0.205797
C15   C     C_R   0.269011 0.462397 0.184322 -0.265965
C16   C     C_R   0.119118 0.063126 0.503321 0.037571
C17   C     C_R   0.997640 0.130138 0.500240 -0.095968
C18   C     C_R   0.873965 0.063774 0.493437 -0.217452
C19   C     C_R   0.875719 0.934719 0.491219 -0.203637
C20   C     C_R   0.002605 0.870197 0.493038 -0.121223
C21   C     C_R   0.125329 0.939634 0.493725 0.016152
C22   C     C_3   0.281487 0.932086 0.497602 -0.042934
C23   C     C_R   0.001358 0.737286 0.497543 0.788879
C24   C     C_3   0.270270 0.075527 0.512217 -0.259346
C25   C     C_R   0.603288 0.558361 0.433375 0.256352
C26   C     C_R   0.543285 0.451979 0.569726 -0.094024
C27   C     C_R   0.394620 0.452762 0.570016 -0.055980
C28   C     C_R   0.456256 0.555560 0.432392 0.293821
C29   C     C_3   0.496331 0.516270 0.336651 -0.515609
C30   C     C_3   0.653329 0.527641 0.336273 -0.510448
C31   C     C_R   0.081892 0.498931 0.327684 0.787876
C32   C     C_R   0.871891 0.482012 0.769968 -0.047368
C33   C     C_R   0.127218 0.497076 0.228792 -0.050227
C34   C     C_R   0.917469 0.414702 0.908656 -0.236743
C35   C     C_R   0.968805 0.443961 0.817825 -0.217020
C36   C     C_R   0.724540 0.493874 0.814245 -0.260521
Cu1   Cu    Cu3+1 0.140670 0.499980 0.500000 0.947522
Cu2   Cu    Cu3+1 0.859330 0.500020 0.500000 0.926207
H1    H     H_    0.795364 0.368920 0.081131 0.150747
H2    H     H_    0.005292 0.565031 0.048090 0.143276
H3    H     H_    0.776133 0.110858 0.490335 0.153441
H4    H     H_    0.777920 0.886185 0.488469 0.158077
H5    H     H_    0.337259 0.131691 0.455785 0.158937
H6    H     H_    0.573634 0.410409 0.625357 0.144738
H7    H     H_    0.314455 0.412245 0.625930 0.154034
H8    H     H_    0.463765 0.419104 0.329337 0.198658
H9    H     H_    0.335358 0.430081 0.224986 0.143055
H10   H     H_    0.464025 0.583130 0.291875 0.212716
H11   H     H_    0.712632 0.438897 0.322240 0.218649
H12   H     H_    0.706963 0.608355 0.296766 0.194020
H13   H     H_    0.993545 0.383270 0.944362 0.141087
H14   H     H_    0.083341 0.434204 0.784698 0.156528
H15   H     H_    0.655289 0.530791 0.776320 0.142476
H16   H     H_    0.547072 0.390527 0.159895 0.148983
N1    N     N_R   0.648210 0.500930 0.499430 -0.190761
N2    N     N_R   0.352300 0.500890 0.499430 -0.190991
O1    O     O_R   0.118810 0.319640 0.500000 -0.577817
O2    O     O_R   0.881230 0.319680 0.499990 -0.584095
O3    O     O_R   0.055580 0.499970 0.629840 -0.580104
O4    O     O_R   0.818000 0.500010 0.629830 -0.597521
O5    O     O_R   0.118770 0.680320 0.500010 -0.574995
O6    O     O_R   0.881190 0.680360 0.500000 -0.584277
O7    O     O_R   0.182000 0.499990 0.370170 -0.587295
O8    O     O_R   0.944420 0.500030 0.370160 -0.582639
C37   C     C_R   0.300461 0.856389 0.578085 0.166276
C38   C     C_R   0.435840 0.805318 0.578125 -0.155034
C39   C     C_R   0.454154 0.743264 0.653307 -0.136132
C40   C     C_R   0.337762 0.729483 0.729486 -0.128138
C41   C     C_R   0.202574 0.777463 0.730814 -0.123638
C42   C     C_R   0.183923 0.840952 0.656346 -0.093047
H17   H     H_    0.528856 0.812608 0.520809 0.116285
H18   H     H_    0.559106 0.705725 0.652403 0.145834
H19   H     H_    0.352515 0.682475 0.787760 0.127995
H20   H     H_    0.112292 0.766759 0.790109 0.125050
H21   H     H_    0.078178 0.879430 0.661051 0.108272
C43   C     C_R   0.386998 0.901355 0.405972 0.113212
C44   C     C_R   0.342388 0.835783 0.338943 -0.104416
C45   C     C_R   0.438125 0.817237 0.254044 -0.169914
C46   C     C_R   0.580737 0.860517 0.235168 -0.115297
C47   C     C_R   0.627089 0.925109 0.300497 -0.133423
C48   C     C_R   0.530752 0.946843 0.384609 -0.194205
H22   H     H_    0.233389 0.800185 0.350694 0.127415
H23   H     H_    0.402000 0.767596 0.203134 0.138371
H24   H     H_    0.655124 0.844396 0.169803 0.128174
H25   H     H_    0.737455 0.959503 0.285752 0.133058
H26   H     H_    0.568698 0.999295 0.433301 0.111641
C49   C     C_R   0.283166 0.121093 0.603103 0.168092
C50   C     C_R   0.422575 0.138733 0.614770 -0.145401
C51   C     C_R   0.440506 0.176054 0.697684 -0.153502
C52   C     C_R   0.319348 0.196485 0.770069 -0.131604
C53   C     C_R   0.180125 0.179278 0.759652 -0.168822
C54   C     C_R   0.161497 0.143012 0.676680 -0.117882
H27   H     H_    0.517739 0.123655 0.559604 0.108843
H28   H     H_    0.548531 0.189327 0.705710 0.134246
H29   H     H_    0.333307 0.225306 0.834276 0.143225
H30   H     H_    0.086301 0.193529 0.816125 0.142880
H31   H     H_    0.052094 0.129777 0.671312 0.115996
H32   H     H_    0.923651 0.560409 0.210999 0.148053
H33   H     H_    0.194755 0.535893 0.909329 0.145221
H34   H     H_    0.438645 0.491578 0.830566 0.134699

loop_
_geom_bond_atom_site_label_1
_geom_bond_atom_site_label_2
_ccdc_geom_bond_type
C8    C9    A    
C49   C50   A    
C16   C21   A    
C19   C20   A    
C22   C43   S    
C4    C8    A    
C26   N1    A    
C14   C33   A    
C28   N2    A    
C26   H6    S    
C52   H29   S    
C44   C45   A    
C25   C28   A    
C26   C27   A    
C47   H25   S    
C32   C36   A    
C28   C29   S    
Cu1   Cu2   S    
C5    C11   A    
C3    C7    A    
C5    C6    A    
C37   C42   A    
C34   C35   A    
C51   H28   S    
C13   H2    S    
C36   H15   S    
C53   H30   S    
Cu2   O2    S    
Cu1   N2    S    
C11   C15   A    
C45   H23   S    
C23   O6    A    
Cu2   N1    S    
C16   C17   A    
C31   C33   S    
C15   H9    S    
C9    C10   A    
C48   H26   S    
C19   H4    S    
C27   H7    S    
C38   C39   A    
C30   H12   S    
C9    H33   S    
C21   C22   S    
C12   C32   S    
C12   O3    A    
C6    H16   S    
Cu1   O7    S    
C54   H31   S    
C14   H32   S    
Cu2   O8    S    
C29   H10   S    
C39   C40   A    
C32   C35   A    
C31   O7    A    
C39   H18   S    
C43   C44   A    
C18   H3    S    
C53   C54   A    
C45   C46   A    
C18   C19   A    
C3    C34   A    
C40   H19   S    
C2    C4    A    
C22   C37   S    
C29   C30   S    
C1    O1    A    
C38   H17   S    
C20   C23   S    
C23   O5    A    
C17   C18   A    
C34   H13   S    
C41   H20   S    
C50   C51   A    
Cu1   O3    S    
Cu2   O4    S    
C30   H11   S    
C22   C24   S    
C42   H21   S    
C49   C54   A    
C2    C36   A    
C25   C30   S    
C50   H27   S    
C27   N2    A    
C31   O8    A    
C40   C41   A    
C25   N1    A    
C47   C48   A    
C10   C13   A    
C43   C48   A    
Cu1   O5    S    
C6    C7    A    
C1    C17   S    
C29   H8    S    
C2    C3    A    
C8    H34   S    
C1    O2    A    
C52   C53   A    
C46   H24   S    
C44   H22   S    
C41   C42   A    
C24   C49   S    
C10   C11   A    
C46   C47   A    
C12   O4    A    
C4    C5    A    
C20   C21   A    
C16   C24   S    
C37   C38   A    
C35   H14   S    
C24   H5    S    
C7    H1    S    
C51   C52   A    
C13   C14   A    
C15   C33   A    
Cu1   O1    S    
Cu2   O6    S    
