data_mof_unit_34926.cif
_audit_creation_date              2012-10-26T18:33:39-0400
_audit_creation_method            fapswitch 2.2
_symmetry_space_group_name_H-M    P1
_symmetry_Int_Tables_number       1
_space_group_crystal_system       triclinic
_cell_length_a                    14.982149
_cell_length_b                    13.696905
_cell_length_c                    10.713391
_cell_angle_alpha                 89.805179
_cell_angle_beta                  89.608625
_cell_angle_gamma                 90.151397
_cell_volume                      2198.41321049

loop_
_atom_site_label
_atom_site_type_symbol
_atom_type_description
_atom_site_fract_x
_atom_site_fract_y
_atom_site_fract_z
_atom_type_partial_charge
C1    C     C_R   0.328838 0.499862 0.501122 0.545834
C2    C     C_R   0.044838 0.423259 0.705076 -0.133946
C3    C     C_R   0.092737 0.459971 0.602427 0.016003
C4    C     C_R   0.498674 0.500001 0.259647 0.543422
C5    C     C_R   0.046897 0.496165 0.497050 0.053071
C6    C     C_R   0.094842 0.532879 0.393325 -0.002560
C7    C     C_R   0.049629 0.562774 0.286183 -0.138471
C8    C     C_R   0.956295 0.557938 0.280557 -0.011817
C9    C     C_R   0.185832 0.460614 0.602684 -0.139425
C10   C     C_R   0.232604 0.499397 0.500684 0.000627
C11   C     C_R   0.187804 0.535861 0.396780 -0.135839
C12   C     C_3   0.589594 0.531366 0.926503 -0.227984
C13   C     C_R   0.452018 0.792459 0.588123 0.034724
C14   C     C_R   0.451452 0.206778 0.587620 0.034727
C15   C     C_R   0.546027 0.793304 0.409832 0.034679
C16   C     C_R   0.547036 0.207603 0.411054 0.034958
C17   C     C_R   0.545710 0.896693 0.404942 -0.033288
C18   C     C_R   0.547859 0.104252 0.407185 -0.032652
C19   C     C_R   0.671217 0.499980 0.499404 0.546901
C20   C     C_R   0.498256 0.948240 0.498223 0.018687
C21   C     C_R   0.498846 0.051816 0.498844 0.018828
C22   C     C_R   0.449201 0.895817 0.589870 -0.033460
C23   C     C_R   0.813809 0.533016 0.392889 -0.144343
C24   C     C_R   0.449348 0.103383 0.590025 -0.033879
C25   C     C_R   0.591047 0.949190 0.309226 -0.028785
C26   C     C_R   0.593657 0.052838 0.311817 -0.029963
C27   C     C_R   0.398145 0.050937 0.679664 -0.030266
C28   C     C_R   0.398361 0.947386 0.680067 -0.029256
C29   C     C_R   0.497948 0.499784 0.740309 0.542016
C30   C     C_3   0.425206 0.570758 0.072438 -0.231646
C31   C     C_3   0.476467 0.395615 0.072150 -0.231587
C32   C     C_3   0.424845 0.570596 0.928511 -0.232923
C33   C     C_3   0.475775 0.395488 0.929196 -0.234648
C34   C     C_R   0.767606 0.499157 0.498179 -0.006625
C35   C     C_3   0.589976 0.531990 0.070478 -0.233654
C36   C     C_3   0.497549 0.499684 0.121737 0.045622
C37   C     C_3   0.496906 0.499352 0.878118 0.045513
C38   C     C_R   0.913822 0.573246 0.157276 0.032067
C39   C     C_R   0.861962 0.498499 0.104506 -0.104042
C40   C     C_R   0.828552 0.508419 0.983781 -0.124709
C41   C     C_R   0.846524 0.592816 0.914469 -0.102053
C42   C     C_R   0.898837 0.667037 0.965472 -0.115289
C43   C     C_R   0.932397 0.657527 0.086417 -0.101370
C44   C     C_R   0.630370 0.896896 0.200960 0.024569
C45   C     C_R   0.812846 0.460548 0.600341 -0.141616
C46   C     C_R   0.574004 0.851720 0.114254 -0.117082
C47   C     C_R   0.609651 0.807951 0.007519 -0.126906
C48   C     C_R   0.701850 0.808410 0.987127 -0.095605
C49   C     C_R   0.758462 0.852631 0.073638 -0.098824
C50   C     C_R   0.722970 0.896651 0.180462 -0.080634
C51   C     C_R   0.639384 0.107481 0.209717 0.023802
C52   C     C_R   0.721103 0.154766 0.231134 -0.111764
C53   C     C_R   0.761975 0.209155 0.135821 -0.116602
C54   C     C_R   0.721745 0.216278 0.018769 -0.107223
C55   C     C_R   0.640839 0.168522 0.996629 -0.119375
C56   C     C_R   0.905766 0.459478 0.600573 0.012835
C57   C     C_R   0.599684 0.114348 0.091863 -0.089266
C58   C     C_R   0.342125 0.103974 0.771397 0.028612
C59   C     C_R   0.253163 0.126604 0.743603 -0.088153
C60   C     C_R   0.200974 0.178054 0.829719 -0.114101
C61   C     C_R   0.237194 0.206348 0.944049 -0.108822
C62   C     C_R   0.325726 0.183527 0.972175 -0.120195
C63   C     C_R   0.378320 0.133282 0.885564 -0.105718
C64   C     C_R   0.343814 0.893285 0.773728 0.027247
C65   C     C_R   0.373371 0.884082 0.897204 -0.096293
C66   C     C_R   0.323392 0.830003 0.984013 -0.119671
C67   C     C_R   0.953297 0.495233 0.495349 0.044253
C68   C     C_R   0.243973 0.784722 0.947931 -0.105969
C69   C     C_R   0.214045 0.793965 0.825171 -0.112552
C70   C     C_R   0.263645 0.848249 0.738221 -0.101277
C71   C     C_R   0.907308 0.528872 0.388290 0.003429
C72   C     C_R   0.951853 0.423070 0.704154 -0.130967
Cu1   Cu    Cu3+1 0.499990 0.597420 0.500010 0.916336
Cu2   Cu    Cu3+1 0.499990 0.402580 0.500010 0.916868
H1    H     H_    0.079286 0.394940 0.786078 0.105037
H2    H     H_    0.607121 0.605244 0.890448 0.124213
H3    H     H_    0.641237 0.480045 0.891355 0.104738
H4    H     H_    0.776171 0.561964 0.315142 0.116329
H5    H     H_    0.775493 0.433224 0.680344 0.095154
H6    H     H_    0.915962 0.394383 0.784420 0.109566
H7    H     H_    0.438510 0.646297 0.105756 0.129215
H8    H     H_    0.527398 0.342527 0.105206 0.138786
H9    H     H_    0.087486 0.585730 0.204472 0.103305
H10   H     H_    0.849059 0.431659 0.155860 0.102029
H11   H     H_    0.790073 0.449779 0.943336 0.085725
H12   H     H_    0.222032 0.432262 0.682313 0.100324
H13   H     H_    0.820645 0.600330 0.820877 0.111818
H14   H     H_    0.913607 0.731898 0.911091 0.098542
H15   H     H_    0.973446 0.715321 0.124349 0.096910
H16   H     H_    0.416056 0.749676 0.656955 0.138735
H17   H     H_    0.414221 0.248899 0.655298 0.137255
H18   H     H_    0.502503 0.851799 0.128837 0.094568
H19   H     H_    0.565693 0.774427 0.940266 0.104288
H20   H     H_    0.729274 0.775005 0.903974 0.110000
H21   H     H_    0.829792 0.853774 0.057455 0.103678
H22   H     H_    0.767282 0.931607 0.246191 0.106873
H23   H     H_    0.225608 0.564116 0.317721 0.097780
H24   H     H_    0.752447 0.150166 0.321748 0.106197
H25   H     H_    0.824754 0.245869 0.152758 0.102513
H26   H     H_    0.753348 0.258571 0.945183 0.097864
H27   H     H_    0.609955 0.173762 0.905837 0.101928
H28   H     H_    0.536867 0.077864 0.074674 0.101128
H29   H     H_    0.224620 0.104818 0.655335 0.107021
H30   H     H_    0.132477 0.195889 0.807920 0.104562
H31   H     H_    0.196696 0.245925 0.010769 0.105337
H32   H     H_    0.353723 0.205062 0.060764 0.104712
H33   H     H_    0.447059 0.117078 0.906773 0.090640
H34   H     H_    0.583438 0.751320 0.342229 0.139055
H35   H     H_    0.435175 0.918277 0.925610 0.104081
H36   H     H_    0.346224 0.822786 0.079161 0.098793
H37   H     H_    0.205633 0.742492 0.015086 0.100585
H38   H     H_    0.152563 0.758817 0.797312 0.110117
H39   H     H_    0.240245 0.854466 0.643101 0.106881
H40   H     H_    0.358234 0.548731 0.108527 0.104688
H41   H     H_    0.410286 0.370869 0.108163 0.119534
H42   H     H_    0.437894 0.646038 0.893810 0.132944
H43   H     H_    0.526137 0.342129 0.894834 0.130809
H44   H     H_    0.583226 0.250587 0.342750 0.140440
H45   H     H_    0.357704 0.548507 0.894598 0.110052
H46   H     H_    0.409210 0.370967 0.895743 0.125994
H47   H     H_    0.606693 0.606538 0.104234 0.135978
H48   H     H_    0.642679 0.481729 0.105074 0.115350
N1    N     N_R   0.499930 0.743810 0.499950 -0.245296
N2    N     N_R   0.499930 0.256190 0.499950 -0.245464
O1    O     O_R   0.370250 0.582280 0.500040 -0.500393
O2    O     O_R   0.370250 0.417720 0.500040 -0.498230
O3    O     O_R   0.499970 0.582270 0.317700 -0.515146
O4    O     O_R   0.499970 0.417730 0.317700 -0.514243
O5    O     O_R   0.629730 0.582260 0.499980 -0.497439
O6    O     O_R   0.629730 0.417740 0.499980 -0.498011
O7    O     O_R   0.500000 0.582270 0.682320 -0.514161
O8    O     O_R   0.500000 0.417730 0.682320 -0.516227

loop_
_geom_bond_atom_site_label_1
_geom_bond_atom_site_label_2
_ccdc_geom_bond_type
C19   O5    A    
Cu2   N2    S    
Cu1   O7    S    
C33   H43   S    
Cu2   O8    S    
C13   H16   S    
C18   C21   A    
Cu1   Cu2   S    
C66   C68   A    
C35   C36   S    
C18   C26   A    
C24   C27   A    
C5    C67   A    
C4    C36   S    
C7    C8    A    
Cu2   O2    S    
C53   C54   A    
C53   H25   S    
C57   H28   S    
C43   H15   S    
C31   H8    S    
C15   N1    A    
C1    O1    A    
C39   H10   S    
C5    C6    A    
C13   N1    A    
C69   H38   S    
C29   O8    A    
C46   H18   S    
C17   C20   A    
C41   C42   A    
C14   C24   A    
C12   C37   S    
C46   C47   A    
Cu2   O4    S    
C45   C56   A    
C68   C69   A    
Cu1   N1    S    
C31   C33   S    
C51   C57   A    
C64   C70   A    
C61   H31   S    
C9    C10   A    
C4    O3    A    
C19   O6    A    
C59   C60   A    
C22   C28   A    
C54   H26   S    
C61   C62   A    
C8    C38   S    
C2    C72   A    
C25   C44   S    
C31   H41   S    
C44   C46   A    
C70   H39   S    
C38   C39   A    
C41   H13   S    
Cu1   O5    S    
C14   N2    A    
C4    O4    A    
C51   C52   A    
C23   C71   A    
C35   H47   S    
C1    O2    A    
C6    C11   A    
C56   C72   A    
C58   C59   A    
Cu1   O3    S    
C27   C58   S    
C49   H21   S    
C60   C61   A    
C68   H37   S    
C15   H34   S    
C62   C63   A    
C3    C9    A    
C16   H44   S    
C9    H12   S    
C47   C48   A    
C23   C34   A    
C12   H3    S    
C47   H19   S    
C45   H5    S    
C34   C45   A    
C32   C37   S    
C32   H42   S    
C12   C35   S    
C65   H35   S    
C48   H20   S    
C28   C64   S    
C48   C49   A    
C20   C22   A    
C49   C50   A    
C55   C57   A    
C42   H14   S    
C42   C43   A    
C32   H45   S    
C63   H33   S    
Cu2   O6    S    
C39   C40   A    
C52   C53   A    
C30   H40   S    
C44   C50   A    
C58   C63   A    
C15   C17   A    
C54   C55   A    
C40   C41   A    
C8    C71   A    
C40   H11   S    
C35   H48   S    
C1    C10   S    
C3    C5    A    
C19   C34   S    
C6    C7    A    
C62   H32   S    
C56   C67   A    
C55   H27   S    
C30   C36   S    
C11   H23   S    
C17   C25   A    
C64   C65   A    
C30   H7    S    
C12   H2    S    
C2    C3    A    
C25   C26   A    
C59   H29   S    
C38   C43   A    
C72   H6    S    
C26   C51   S    
C30   C32   S    
C50   H22   S    
C7    H9    S    
C29   O7    A    
Cu1   O1    S    
C52   H24   S    
C13   C22   A    
C67   C71   A    
C23   H4    S    
C16   N2    A    
C69   C70   A    
C33   C37   S    
C14   H17   S    
C10   C11   A    
C20   C21   A    
C66   H36   S    
C33   H46   S    
C16   C18   A    
C65   C66   A    
C21   C24   A    
C29   C37   S    
C27   C28   A    
C31   C36   S    
C60   H30   S    
C2    H1    S    
