data_mof_unit_46748.cif
_audit_creation_date              2012-12-11T15:12:48-0500
_audit_creation_method            fapswitch 2.2
_symmetry_space_group_name_H-M    P1
_symmetry_Int_Tables_number       1
_space_group_crystal_system       triclinic
_cell_length_a                    22.180867
_cell_length_b                    7.095677
_cell_length_c                    19.58341
_cell_angle_alpha                 90.000361
_cell_angle_beta                  98.883438
_cell_angle_gamma                 90.000056
_cell_volume                      3045.22659947

loop_
_atom_site_label
_atom_site_type_symbol
_atom_type_description
_atom_site_fract_x
_atom_site_fract_y
_atom_site_fract_z
_atom_type_partial_charge
O1    O     O_R   0.448420 0.506120 0.415750 -0.548068
O2    O     O_R   0.551580 0.006120 0.584250 -0.548070
O3    O     O_R   0.436490 0.174470 0.555610 -0.515986
O4    O     O_R   0.563510 0.674470 0.444390 -0.515984
C1    C     C_R   0.423014 0.344061 0.577376 0.773940
C2    C     C_R   0.576987 0.844061 0.422624 0.773939
O5    O     O_R   0.441310 0.176330 0.414520 -0.519871
O6    O     O_R   0.558690 0.676330 0.585480 -0.519869
O7    O     O_R   0.556430 0.007110 0.442150 -0.542860
O8    O     O_R   0.443570 0.507110 0.557850 -0.542859
C3    C     C_R   0.426160 0.345129 0.389589 0.799743
C4    C     C_R   0.573840 0.845130 0.610411 0.799742
O9    O     O_3   0.537770 0.339560 0.509230 -0.369341
O10   O     O_3   0.462230 0.839560 0.490770 -0.369342
V1    V     V_3+5 0.492990 0.064280 0.498290 1.526587
V2    V     V_3+5 0.507010 0.564280 0.501710 1.526592
C5    C     C_R   0.873497 0.906333 0.699309 -0.113059
C6    C     C_R   0.126503 0.406367 0.300691 -0.113059
H1    H     H_    0.959984 0.937466 0.763847 0.126462
H2    H     H_    0.040017 0.437504 0.236153 0.126461
H3    H     H_    0.796942 0.835390 0.587392 0.173234
H4    H     H_    0.203058 0.335430 0.412610 0.173234
H5    H     H_    0.894378 0.896609 0.652899 0.142423
H6    H     H_    0.105623 0.396658 0.347102 0.142423
C7    C     C_R   0.885798 0.938207 0.823121 -0.050392
C8    C     C_R   0.114202 0.438212 0.176878 -0.050392
C9    C     C_R   0.587079 0.871159 0.738373 -0.010498
C10   C     C_R   0.412920 0.371140 0.261626 -0.010498
C11   C     C_R   0.623942 0.894231 0.802967 0.432790
C12   C     C_R   0.376058 0.394206 0.197032 0.432792
C13   C     C_R   0.687017 0.906740 0.808170 -0.191502
C14   C     C_R   0.312983 0.406722 0.191829 -0.191502
C15   C     C_R   0.717023 0.890098 0.750084 -0.034620
C16   C     C_R   0.282977 0.390093 0.249916 -0.034621
C17   C     C_R   0.680660 0.857490 0.683690 -0.030965
C18   C     C_R   0.319340 0.357493 0.316309 -0.030964
C19   C     C_R   0.782465 0.903740 0.756476 0.106105
C20   C     C_R   0.217536 0.403743 0.243524 0.106106
C21   C     C_R   0.810040 0.890619 0.696057 0.057767
C22   C     C_R   0.189961 0.390640 0.303943 0.057767
C23   C     C_R   0.774808 0.853895 0.632654 -0.186352
C24   C     C_R   0.225192 0.353922 0.367346 -0.186351
C25   C     C_R   0.712082 0.829804 0.626218 0.345902
C26   C     C_R   0.287918 0.329820 0.373783 0.345903
C27   C     C_R   0.822115 0.927242 0.820566 -0.183015
C28   C     C_R   0.177885 0.427235 0.179433 -0.183016
C29   C     C_R   0.910998 0.929658 0.762328 -0.146678
C30   C     C_R   0.089003 0.429685 0.237672 -0.146678
C31   C     C_R   0.615000 0.854179 0.678003 -0.140112
C32   C     C_R   0.385000 0.354175 0.321997 -0.140115
H7    H     H_    0.805597 0.933204 0.869424 0.110125
H8    H     H_    0.194403 0.433180 0.130575 0.110125
H9    H     H_    0.711468 0.929655 0.859354 0.173087
H10   H     H_    0.288533 0.429633 0.140645 0.173087
C33   C     C_3   0.802517 0.744687 0.251510 -0.426279
C34   C     C_3   0.197484 0.244685 0.748490 -0.426279
C35   C     C_3   0.790600 0.089465 0.255753 0.480650
C36   C     C_3   0.209400 0.589464 0.744247 0.480650
C37   C     C_3   0.738783 0.070995 0.301820 -0.417481
C38   C     C_3   0.261217 0.570993 0.698181 -0.417481
H11   H     H_    0.777288 0.730922 0.355594 0.206383
H12   H     H_    0.222713 0.230918 0.644406 0.206383
H13   H     H_    0.849077 0.744867 0.281907 0.242598
H14   H     H_    0.150923 0.244864 0.718093 0.242598
H15   H     H_    0.758302 0.081187 0.357587 0.217785
H16   H     H_    0.241698 0.581184 0.642414 0.217786
H17   H     H_    0.705426 0.188832 0.293056 0.141016
H18   H     H_    0.294574 0.688831 0.706945 0.141015
C39   C     C_1   0.621782 0.853030 0.376033 -0.100025
C40   C     C_1   0.378219 0.353031 0.623967 -0.100025
C41   C     C_3   0.788810 0.918234 0.204412 0.069965
C42   C     C_3   0.211190 0.418234 0.795588 0.069965
C43   C     C_3   0.753648 0.723144 0.301243 -0.312772
C44   C     C_3   0.246353 0.223142 0.698757 -0.312771
C45   C     C_3   0.704683 0.881323 0.288579 0.051742
C46   C     C_3   0.295318 0.381323 0.711422 0.051742
C47   C     C_3   0.673530 0.879365 0.211297 0.199629
C48   C     C_3   0.326470 0.379367 0.788703 0.199629
C49   C     C_3   0.723356 0.876004 0.162629 0.168723
C50   C     C_3   0.276645 0.376006 0.837371 0.168723
C51   C     C_1   0.659051 0.863583 0.336788 0.047448
C52   C     C_1   0.340949 0.363584 0.663213 0.047450
C53   C     C_1   0.835930 0.932435 0.157547 0.065675
C54   C     C_1   0.164070 0.432435 0.842453 0.065675
C55   C     C_1   0.874579 0.941437 0.119890 -0.136473
C56   C     C_1   0.125421 0.441436 0.880110 -0.136473
H19   H     H_    0.724962 0.732567 0.141305 0.164477
H20   H     H_    0.275038 0.232570 0.858695 0.164477
H21   H     H_    0.804211 0.627428 0.215936 0.149223
H22   H     H_    0.195790 0.127428 0.784064 0.149222
H23   H     H_    0.730833 0.584199 0.296046 0.176807
H24   H     H_    0.269168 0.084198 0.703954 0.176806
H25   H     H_    0.644575 0.006417 0.201457 0.143250
H26   H     H_    0.355426 0.506419 0.798544 0.143251
O11   O     O_R   0.056480 0.288780 0.942210 -0.536570
O12   O     O_R   0.943520 0.788780 0.057790 -0.536569
O13   O     O_R   0.058700 0.616820 0.085490 -0.537509
O14   O     O_R   0.941300 0.116820 0.914510 -0.537509
C57   C     C_R   0.072988 0.448348 0.110659 0.693835
C58   C     C_R   0.927012 0.948347 0.889341 0.693835
O15   O     O_R   0.063520 0.618570 0.944410 -0.535328
O16   O     O_R   0.936480 0.118570 0.055590 -0.535328
O17   O     O_R   0.948420 0.787670 0.915740 -0.535204
O18   O     O_R   0.051580 0.287670 0.084260 -0.535203
C59   C     C_R   0.078941 0.450161 0.924689 0.718106
C60   C     C_R   0.921059 0.950161 0.075311 0.718107
O19   O     O_3   0.962260 0.453430 0.990800 -0.371283
O20   O     O_3   0.037740 0.953430 0.009200 -0.371283
V3    V     V_3+5 0.007000 0.728750 0.001710 1.466091
V4    V     V_3+5 0.993000 0.228750 0.998290 1.466090
C61   C     C_3   0.789222 0.281359 0.220907 -0.408344
C62   C     C_3   0.730752 0.339137 0.173658 -0.642888
H27   H     H_    0.691741 0.247961 0.176897 0.258173
H28   H     H_    0.715132 0.473740 0.190454 0.230722
H29   H     H_    0.739013 0.354682 0.119471 0.275790
H30   H     H_    0.796532 0.377587 0.265570 0.212305
H31   H     H_    0.828729 0.298410 0.192687 0.207804
C63   C     C_3   0.210778 0.781359 0.779094 -0.408342
C64   C     C_3   0.269248 0.839139 0.826343 -0.642888
H32   H     H_    0.308259 0.747964 0.823103 0.258172
H33   H     H_    0.284868 0.973742 0.809546 0.230721
H34   H     H_    0.260987 0.854687 0.880529 0.275790
H35   H     H_    0.203468 0.877585 0.734430 0.212304
H36   H     H_    0.171271 0.798410 0.807314 0.207804
Cl1   Cl    Cl    0.863290 0.093733 0.313515 -0.679020
Cl2   Cl    Cl    0.136710 0.593730 0.686485 -0.679022
Cl3   Cl    Cl    0.701796 0.996817 0.082188 -0.546278
Cl4   Cl    Cl    0.298204 0.496822 0.917813 -0.546279
Cl5   Cl    Cl    0.619712 0.690444 0.192298 -0.605023
Cl6   Cl    Cl    0.380288 0.190447 0.807702 -0.605024
C65   C     C_3   0.517905 0.862487 0.734706 -0.324598
C66   C     C_3   0.496514 0.660540 0.743188 -0.608545
H37   H     H_    0.509496 0.569053 0.701824 0.196080
H38   H     H_    0.517126 0.603441 0.794283 0.279481
H39   H     H_    0.446070 0.658059 0.739756 0.211204
H40   H     H_    0.502631 0.952677 0.775060 0.267748
H41   H     H_    0.493643 0.920497 0.685451 0.157734
C67   C     C_3   0.482095 0.362462 0.265293 -0.324599
C68   C     C_3   0.503483 0.160512 0.256811 -0.608539
H42   H     H_    0.490499 0.069027 0.298174 0.196081
H43   H     H_    0.482872 0.103414 0.205716 0.279482
H44   H     H_    0.553927 0.158026 0.260244 0.211202
H45   H     H_    0.497370 0.452649 0.224939 0.267746
H46   H     H_    0.506358 0.420470 0.314549 0.157732
Cl7   Cl    Cl    0.592824 0.909998 0.880512 -0.471326
Cl8   Cl    Cl    0.407176 0.409959 0.119487 -0.471328
Cl9   Cl    Cl    0.679766 0.741994 0.545275 -0.690343
Cl10  Cl    Cl    0.320233 0.242014 0.454726 -0.690346

loop_
_geom_bond_atom_site_label_1
_geom_bond_atom_site_label_2
_ccdc_geom_bond_type
C2    C39   S    
O18   V4    S    
O14   V4    S    
C37   C45   S    
C9    C11   A    
C9    C65   S    
C61   C62   S    
O1    C3    A    
O2    C4    A    
C2    O7    A    
C41   C49   S    
C4    C31   S    
O3    V1    S    
C21   C23   A    
H4    C24   S    
O5    C3    A    
C5    H5    S    
C44   C46   S    
C6    H6    S    
C54   C56   T    
C67   H45   S    
C66   H39   S    
C11   Cl7   S    
C68   H44   S    
H1    C29   S    
C35   C37   S    
C27   H7    S    
C36   C38   S    
C28   H8    S    
C36   C63   S    
O20   V3    S    
C5    C21   A    
C14   H10   S    
C6    C22   A    
C63   C64   S    
C49   Cl3   S    
O11   C59   A    
C37   H17   S    
C10   C32   A    
O11   V4    S    
C66   H37   S    
C34   C42   S    
C33   H13   S    
C17   C31   A    
C13   C15   A    
C25   Cl9   S    
C61   H30   S    
C12   C14   A    
C17   C25   A    
C7    C29   A    
C8    C30   A    
C8    C57   S    
C22   C24   A    
C57   O18   A    
C44   H24   S    
O6    V2    S    
C11   C13   A    
C43   C45   S    
C24   C26   A    
C49   H19   S    
C62   H27   S    
O13   C57   A    
C12   Cl8   S    
C41   C53   S    
C64   H33   S    
O15   C59   A    
C19   C21   A    
C34   C44   S    
C10   C67   S    
C34   H22   S    
C43   H23   S    
O4    C2    A    
C65   H40   S    
C46   C52   S    
C45   C51   S    
C47   Cl5   S    
C50   Cl4   S    
H11   C43   S    
C38   C46   S    
C58   O17   A    
C35   C41   S    
C42   C50   S    
C14   C16   A    
O4    V2    S    
O19   V3    S    
C65   H41   S    
O13   V3    S    
C7    C58   S    
O6    C4    A    
C34   H14   S    
C47   C49   S    
O1    V2    S    
C63   H36   S    
C13   H9    S    
C64   H32   S    
O2    V1    S    
C45   C47   S    
C42   C54   S    
H3    C23   S    
C62   H28   S    
C66   H38   S    
C53   C55   T    
C36   Cl2   S    
O14   C58   A    
O9    V1    S    
O19   V4    S    
O10   V2    S    
C18   C26   A    
C56   C59   S    
C19   C27   A    
C65   C66   S    
C7    C27   A    
C48   C50   S    
C18   C32   A    
C47   H25   S    
C64   H34   S    
O12   C60   A    
C26   Cl10  S    
H2    C30   S    
C16   C20   A    
C23   C25   A    
C5    C29   A    
C46   C48   S    
O3    C1    A    
C1    C40   S    
C6    C30   A    
C68   H42   S    
O12   V3    S    
C61   H31   S    
O17   V3    S    
C10   C12   A    
O7    V1    S    
C1    O8    A    
C33   H21   S    
C3    C32   S    
O8    V2    S    
C37   H15   S    
C35   Cl1   S    
C20   C22   A    
C68   H43   S    
C36   C42   S    
C35   C61   S    
C48   H26   S    
O16   V4    S    
O5    V1    S    
C15   C17   A    
O20   V4    S    
O16   C60   A    
C16   C18   A    
C63   H35   S    
C48   Cl6   S    
C40   C52   T    
C15   C19   A    
C20   C28   A    
C39   C51   T    
C67   C68   S    
C8    C28   A    
C38   H16   S    
C33   C43   S    
C9    C31   A    
C38   H18   S    
C50   H20   S    
O9    V2    S    
O10   V1    S    
H12   C44   S    
C67   H46   S    
O15   V3    S    
C62   H29   S    
C33   C41   S    
C55   C60   S    
