data_mof_unit_24795.cif
_audit_creation_date              2013-03-05T16:30:49-0500
_audit_creation_method            fapswitch 2.2
_symmetry_space_group_name_H-M    P1
_symmetry_Int_Tables_number       1
_space_group_crystal_system       triclinic
_cell_length_a                    11.039018
_cell_length_b                    10.834079
_cell_length_c                    9.610766
_cell_angle_alpha                 90.453821
_cell_angle_beta                  102.917107
_cell_angle_gamma                 91.55599
_cell_volume                      1119.80914715

loop_
_atom_site_label
_atom_site_type_symbol
_atom_site_description
_atom_site_fract_x
_atom_site_fract_y
_atom_site_fract_z
_atom_type_partial_charge
O1    O     O_R   0.500000 0.319640 0.618810 -0.568214
O2    O     O_R   0.500010 0.319680 0.381230 -0.561122
C1    C     C_R   0.496494 0.262517 0.498787 0.820260
O3    O     O_R   0.320680 0.500000 0.575130 -0.579039
O4    O     O_R   0.320690 0.500040 0.337550 -0.564767
C2    C     C_R   0.262275 0.498200 0.442791 0.911339
Cu1   Cu    Cu3+1 0.499990 0.499980 0.640670 1.000780
Cu2   Cu    Cu3+1 0.500010 0.500020 0.359330 1.023601
O5    O     O_R   0.499990 0.680320 0.618770 -0.571327
O6    O     O_R   0.500000 0.680360 0.381190 -0.568826
O7    O     O_R   0.679310 0.499960 0.662450 -0.582353
O8    O     O_R   0.679320 0.500000 0.424870 -0.582251
C3    C     C_R   0.496345 0.737557 0.499806 0.841551
C4    C     C_R   0.736482 0.504405 0.558136 0.817785
C5    C     C_2   0.125774 0.482474 0.419484 -0.124858
C6    C     C_2   0.068738 0.524644 0.522800 -0.045294
H1    H     H_    0.888927 0.634793 0.613288 0.138882
C7    C     C_2   0.867716 0.537772 0.587744 -0.366624
C8    C     C_2   0.950631 0.465989 0.546039 -0.077073
C9    C     C_R   0.495392 0.065712 0.624029 0.208985
C10   C     C_R   0.482021 0.129201 0.496221 -0.131072
C11   C     C_R   0.447070 0.061907 0.367264 -0.148804
H2    H     H_    0.427170 0.107862 0.265612 0.214989
C12   C     C_R   0.443869 0.932890 0.368894 -0.167935
H3    H     H_    0.417113 0.882722 0.269056 0.210755
C13   C     C_R   0.480918 0.870468 0.498370 -0.080572
C14   C     C_R   0.495663 0.938634 0.625317 0.147543
C15   C     C_3   0.594231 0.937526 0.759995 -0.530910
C16   C     C_3   0.594998 0.077897 0.757885 -0.223594
H4    H     H_    0.556836 0.898100 0.848508 0.228602
H5    H     H_    0.682345 0.898074 0.744569 0.196101
H6    H     H_    0.682783 0.120742 0.739707 0.133079
C17   C     C_R   0.602912 0.539281 0.099348 0.131446
N1    N     N_R   0.500780 0.500930 0.148120 -0.226154
C18   C     C_R   0.402009 0.450997 0.045439 0.055650
C19   C     C_R   0.401225 0.455517 0.897922 -0.001331
H7    H     H_    0.321760 0.418877 0.819922 0.175746
N2    N     N_R   0.500790 0.500890 0.852210 -0.192588
C20   C     C_R   0.605998 0.530237 0.953456 0.221866
C21   C     C_3   0.681649 0.645840 0.957435 -0.561226
C22   C     C_3   0.664748 0.666566 0.109640 -0.129798
H8    H     H_    0.777887 0.625949 0.948385 0.222748
H9    H     H_    0.635510 0.711510 0.877019 0.209777
C23   C     C_2   0.927857 0.329469 0.535291 0.410627
H10   H     H_    0.834436 0.289915 0.521398 0.046850
O9    O     O_2   0.014479 0.259535 0.548752 -0.489868
C24   C     C_2   0.294379 0.386011 0.079069 0.928027
O10   O     O_2   0.309337 0.297430 0.157804 -0.534559
O11   O     O_R   0.174903 0.417157 0.006291 -0.779179
H11   H     H_    0.107937 0.356726 0.022265 0.358285
C25   C     C_2   0.784987 0.677010 0.222256 0.903479
O12   O     O_2   0.873119 0.614417 0.212257 -0.640586
O13   O     O_R   0.795724 0.758636 0.338160 -0.724988
H12   H     H_    0.882033 0.760830 0.402681 0.338934
C26   C     C_2   0.578655 0.773072 0.111525 0.862946
O14   O     O_2   0.465864 0.756668 0.074443 -0.593121
O15   O     O_R   0.629184 0.892615 0.142253 -0.739310
H13   H     H_    0.563385 0.957492 0.129751 0.317152
C27   C     C_2   0.123801 0.630392 0.619810 0.398187
H14   H     H_    0.105716 0.636933 0.726052 0.106474
O16   O     O_2   0.185616 0.712552 0.580067 -0.528939
C28   C     C_2   0.060696 0.394245 0.307121 0.432292
H15   H     H_    0.963540 0.405087 0.256877 0.112841
O17   O     O_2   0.112514 0.302693 0.278246 -0.496115
C29   C     C_2   0.553140 0.134048 0.882710 0.437045
H16   H     H_    0.618696 0.143454 0.984963 0.075323
O18   O     O_2   0.447031 0.168680 0.871269 -0.527550

loop_
_geom_bond_atom_site_label_1
_geom_bond_atom_site_label_2
_geom_bond_distance
_ccdc_geom_bond_type
O4    Cu2   1.943469 S    
C26   O14   1.223704 D    
Cu2   O6    1.963432 S    
C12   H3    1.076872 S    
C21   C22   1.531047 S    
C28   H15   1.083252 S    
C9    C14   1.377008 A    
C22   C25   1.514484 S    
C22   C26   1.517219 S    
C4    C7    1.447757 S    
C6    C27   1.497742 S    
C18   C19   1.417087 A    
C29   O18   1.221403 D    
O8    C4    1.294967 A    
Cu2   O8    1.938405 S    
C14   C15   1.493567 S    
C17   C22   1.514581 S    
C21   H9    1.102418 S    
C21   H8    1.111802 S    
H1    C7    1.084818 S    
C13   C14   1.396729 A    
C18   C24   1.463452 S    
C27   H14   1.085459 S    
C24   O11   1.399303 S    
Cu2   N1    2.031907 S    
O13   H12   1.013525 S    
C9    C10   1.393396 A    
Cu1   O7    1.943471 S    
O15   H13   1.012976 S    
C17   C20   1.412837 A    
C6    C8    1.496997 S    
C16   C29   1.508081 S    
C19   N2    1.353747 A    
C15   C16   1.520904 S    
Cu1   N2    2.031049 S    
C12   C13   1.404959 A    
C17   N1    1.370169 A    
C16   H6    1.112486 S    
O2    C1    1.300351 A    
C9    C16   1.496142 S    
C26   O15   1.398853 S    
O4    C2    1.315472 A    
N1    C18   1.390610 A    
O7    C4    1.299115 A    
C11   C12   1.397566 A    
C3    C13   1.454400 S    
C1    C10   1.448258 S    
C27   O16   1.221793 D    
C29   H16   1.084584 S    
C5    C6    1.370776 D    
C24   O10   1.218656 D    
Cu1   Cu2   2.703947 S    
N2    C20   1.366216 A    
C8    C23   1.492421 S    
O3    Cu1   1.938404 S    
O3    C2    1.290756 A    
O11   H11   1.012297 S    
C20   C21   1.481782 S    
Cu1   O5    1.966780 S    
C7    C8    1.342012 D    
O5    C3    1.298219 A    
C11   H2    1.080861 S    
C19   H7    1.082323 S    
O1    Cu1   1.963431 S    
C28   O17   1.218802 D    
O1    C1    1.297121 A    
C2    C5    1.477935 S    
C10   C11   1.404663 A    
C5    C28   1.481717 S    
C15   H5    1.112143 S    
O2    Cu2   1.966779 S    
C23   H10   1.085600 S    
C25   O12   1.221565 D    
C23   O9    1.220964 D    
C15   H4    1.108917 S    
C25   O13   1.398791 S    
O6    C3    1.302285 A    
