data_mof_unit_15745.cif
_audit_creation_date              2013-03-05T16:33:33-0500
_audit_creation_method            fapswitch 2.2
_symmetry_space_group_name_H-M    P1
_symmetry_Int_Tables_number       1
_space_group_crystal_system       triclinic
_cell_length_a                    10.817783
_cell_length_b                    10.812791
_cell_length_c                    9.569552
_cell_angle_alpha                 90.354585
_cell_angle_beta                  89.801465
_cell_angle_gamma                 90.628406
_cell_volume                      1119.25936269

loop_
_atom_site_label
_atom_site_type_symbol
_atom_site_description
_atom_site_fract_x
_atom_site_fract_y
_atom_site_fract_z
_atom_type_partial_charge
O1    O     O_R   0.500000 0.319640 0.618810 -0.535680
O2    O     O_R   0.500010 0.319680 0.381230 -0.592247
C1    C     C_R   0.497985 0.262629 0.499616 0.808720
O3    O     O_R   0.319650 0.499970 0.618810 -0.540960
O4    O     O_R   0.319660 0.500010 0.381230 -0.593978
C2    C     C_R   0.262398 0.498706 0.500118 0.810468
Cu1   Cu    Cu3+1 0.499990 0.499980 0.640670 0.996343
Cu2   Cu    Cu3+1 0.500010 0.500020 0.359330 0.943335
O5    O     O_R   0.499990 0.680320 0.618770 -0.584018
O6    O     O_R   0.500000 0.680360 0.381190 -0.585638
O7    O     O_R   0.680340 0.499990 0.618770 -0.579894
O8    O     O_R   0.680350 0.500030 0.381190 -0.583233
C3    C     C_R   0.500697 0.737673 0.500278 0.791633
C4    C     C_R   0.737542 0.498458 0.499816 0.791788
C5    C     C_R   0.063189 0.508375 0.624133 0.225146
C6    C     C_R   0.129043 0.489289 0.500538 -0.111424
C7    C     C_R   0.064414 0.455351 0.378682 -0.214268
H1    H     H_    0.113017 0.433545 0.282639 0.175865
C8    C     C_R   0.935442 0.455197 0.378499 -0.214060
H2    H     H_    0.887100 0.433577 0.282316 0.171768
C9    C     C_R   0.870621 0.488536 0.500308 -0.111097
C10   C     C_R   0.935933 0.507265 0.624232 0.134540
C11   C     C_3   0.929405 0.612549 0.725644 -0.499367
C12   C     C_3   0.069606 0.614799 0.724372 -0.446043
H3    H     H_    0.887768 0.696688 0.679898 0.191701
H4    H     H_    0.889840 0.583377 0.827754 0.207885
H5    H     H_    0.109773 0.699750 0.676519 0.187107
H6    H     H_    0.110291 0.589083 0.826422 0.235249
C13   C     C_R   0.540348 0.066322 0.613318 0.212987
C14   C     C_R   0.491481 0.129501 0.500416 -0.089579
C15   C     C_R   0.434708 0.062947 0.391455 -0.204790
H7    H     H_    0.392010 0.110393 0.305031 0.167866
C16   C     C_R   0.436429 0.933865 0.391948 -0.212503
H8    H     H_    0.394378 0.883381 0.305970 0.161760
C17   C     C_R   0.495158 0.871198 0.501191 -0.100343
C18   C     C_R   0.542511 0.938689 0.614210 0.124323
C19   C     C_3   0.671406 0.939284 0.671168 -0.512339
C20   C     C_3   0.667539 0.078964 0.671107 -0.460199
H9    H     H_    0.676475 0.903184 0.778670 0.208750
H10   H     H_    0.740100 0.900304 0.596673 0.195887
H11   H     H_    0.667401 0.120491 0.777689 0.217568
H12   H     H_    0.733960 0.122001 0.596364 0.190386
C21   C     C_R   0.589616 0.562484 0.073710 0.246059
N1    N     N_R   0.500790 0.500930 0.147930 -0.211889
C22   C     C_R   0.420223 0.427425 0.075167 -0.135895
H13   H     H_    0.354626 0.370174 0.131717 0.164106
C23   C     C_R   0.420333 0.426173 0.926582 0.405955
N2    N     N_R   0.500790 0.500890 0.852020 -0.250484
C24   C     C_R   0.589657 0.562342 0.926665 0.192614
C25   C     C_3   0.617338 0.697187 0.922315 -0.504175
C26   C     C_3   0.617323 0.697540 0.080737 -0.471454
H14   H     H_    0.710170 0.715828 0.877022 0.188971
H15   H     H_    0.540197 0.751154 0.877720 0.224864
H16   H     H_    0.709852 0.717371 0.126348 0.195070
H17   H     H_    0.540320 0.752011 0.126174 0.218317
N3    N     N_R   0.335550 0.345137 0.856768 0.140632
O9    O     O_R   0.218737 0.372060 0.858280 -0.403885
O10   O     O_R   0.366541 0.230352 0.837970 -0.378220

loop_
_geom_bond_atom_site_label_1
_geom_bond_atom_site_label_2
_geom_bond_distance
_ccdc_geom_bond_type
C13   C20   1.489262 S    
C1    C14   1.440492 S    
C25   H14   1.109327 S    
C21   N1    1.363037 A    
C15   C16   1.396103 A    
C3    C17   1.445645 S    
C19   C20   1.511368 S    
O4    Cu2   1.961488 S    
C12   H6    1.110740 S    
C15   H7    1.083339 S    
C23   N2    1.380858 A    
C12   H5    1.112354 S    
Cu2   O8    1.962782 S    
C14   C15   1.402769 A    
C11   C12   1.516599 S    
C26   H16   1.111568 S    
Cu1   N2    2.022536 S    
C11   H3    1.112429 S    
C16   H8    1.083258 S    
Cu1   Cu2   2.692300 S    
C19   H9    1.104316 S    
C5    C12   1.494728 S    
C22   H13   1.082337 S    
N1    C22   1.363203 A    
Cu1   O7    1.961488 S    
C13   C18   1.380602 A    
C21   C26   1.488710 S    
C13   C14   1.390852 A    
O3    Cu1   1.962782 S    
C4    C9    1.444805 S    
Cu2   O6    1.959881 S    
C18   C19   1.498798 S    
C7    C8    1.395179 A    
O8    C4    1.295021 A    
C20   H12   1.112496 S    
C19   H10   1.112451 S    
C26   H17   1.111270 S    
C22   C23   1.421865 A    
O4    C2    1.293606 A    
O7    C4    1.293875 A    
O2    Cu2   1.962496 S    
C25   H15   1.111416 S    
C6    C7    1.406407 A    
C2    C6    1.445078 S    
C5    C6    1.394047 A    
Cu2   N1    2.023075 S    
N3    O9    1.299873 A    
C20   H11   1.111867 S    
C7    H1    1.083261 S    
C24   C25   1.486066 S    
C11   H4    1.111511 S    
O1    C1    1.293330 A    
Cu1   O5    1.962499 S    
O5    C3    1.295741 A    
C10   C11   1.493451 S    
N2    C24   1.364123 A    
O1    Cu1   1.959881 S    
O2    C1    1.293317 A    
C17   C18   1.396625 A    
C25   C26   1.516004 S    
C16   C17   1.406582 A    
C9    C10   1.395073 A    
O3    C2    1.295515 A    
C5    C10   1.376547 A    
C21   C24   1.407144 A    
C8    H2    1.083195 S    
N3    O10   1.300442 A    
C23   N3    1.426424 S    
C8    C9    1.405387 A    
O6    C3    1.293852 A    
