data_mof_unit_62492.cif
_audit_creation_date              2012-12-10T21:03:34-0500
_audit_creation_method            fapswitch 2.2
_symmetry_space_group_name_H-M    P1
_symmetry_Int_Tables_number       1
_space_group_crystal_system       triclinic
_cell_length_a                    15.857728
_cell_length_b                    15.066087
_cell_length_c                    22.327405
_cell_angle_alpha                 90.7303
_cell_angle_beta                  90.122709
_cell_angle_gamma                 89.965145
_cell_volume                      5333.88117571

loop_
_atom_site_label
_atom_site_type_symbol
_atom_type_description
_atom_site_fract_x
_atom_site_fract_y
_atom_site_fract_z
_atom_type_partial_charge
C1    C     C_R   0.338908 0.500029 0.500099 0.906287
C2    C     C_R   0.531368 0.441455 0.711778 -0.252972
C3    C     C_R   0.440633 0.552149 0.229350 0.207994
C4    C     C_R   0.515084 0.432456 0.773031 0.213466
C5    C     C_R   0.458340 0.468139 0.201975 0.117611
C6    C     C_R   0.441795 0.474593 0.797109 0.114603
C7    C     C_R   0.955835 0.573792 0.523690 0.122654
C8    C     C_R   0.044159 0.426499 0.475606 0.125357
C9    C     C_R   0.043925 0.573643 0.524180 0.130329
C10   C     C_R   0.956065 0.426649 0.475117 0.127921
C11   C     C_R   0.913074 0.500230 0.499250 -0.068843
C12   C     C_R   0.661091 0.499973 0.499884 0.901980
C13   C     C_R   0.086920 0.500019 0.500110 -0.069478
C14   C     C_1   0.824108 0.500037 0.499294 0.077961
C15   C     C_1   0.175888 0.500074 0.500286 0.080986
C16   C     C_1   0.250673 0.500088 0.500259 -0.105591
C17   C     C_1   0.749324 0.499937 0.499529 -0.110680
C18   C     C_R   0.502021 0.499242 0.387514 0.916651
C19   C     C_R   0.497022 0.500668 0.612391 0.907949
C20   C     C_R   0.424267 0.953023 0.508905 0.132682
C21   C     C_R   0.575680 0.046984 0.490975 0.133517
C22   C     C_R   0.575723 0.952589 0.491128 0.127748
C23   C     C_R   0.527095 0.421188 0.227185 0.188332
C24   C     C_R   0.424237 0.047419 0.508804 0.130123
C25   C     C_R   0.500002 0.905085 0.500053 -0.138481
C26   C     C_R   0.499958 0.094918 0.499883 -0.138273
C27   C     C_1   0.499998 0.807097 0.500037 0.216116
C28   C     C_1   0.499979 0.192903 0.499936 0.221354
C29   C     C_R   0.413916 0.359106 0.871995 0.572680
C30   C     C_R   0.342497 0.475740 0.127773 0.572575
C31   C     C_R   0.332541 0.485451 0.876814 0.599221
C32   C     C_R   0.430308 0.354303 0.122885 0.602476
C33   C     C_R   0.321055 0.478909 0.939379 -0.118181
C34   C     C_R   0.416445 0.553536 0.768252 0.189779
C35   C     C_R   0.417375 0.342557 0.060566 -0.116630
C36   C     C_R   0.367994 0.411942 0.968634 -0.070952
C37   C     C_R   0.371341 0.410160 0.031272 -0.070756
C38   C     C_R   0.409561 0.345356 0.934316 -0.111685
C39   C     C_R   0.326711 0.474443 0.065594 -0.109863
C40   C     C_R   0.268759 0.537396 0.973453 0.171649
C41   C     C_R   0.450726 0.269952 0.026671 0.173724
C42   C     C_R   0.271942 0.535358 0.036854 0.146432
C43   C     C_R   0.447104 0.271611 0.963253 0.147248
C44   C     C_3   0.424037 0.636190 0.193900 -0.376202
C45   C     C_R   0.542863 0.429806 0.288984 0.108865
C46   C     C_3   0.489205 0.648479 0.144364 -0.813940
C47   C     C_3   0.584934 0.393785 0.811811 -0.380211
C48   C     C_3   0.613130 0.459454 0.860583 -0.822298
C49   C     C_R   0.430508 0.561996 0.706547 0.099942
C50   C     C_R   0.499705 0.496112 0.321893 -0.177439
C51   C     C_R   0.485117 0.501337 0.677467 -0.175102
C52   C     C_R   0.455926 0.561848 0.290906 -0.263211
H1    H     H_    0.434368 0.620913 0.314514 0.179442
H2    H     H_    0.667684 0.431550 0.885297 0.272274
H3    H     H_    0.567964 0.330177 0.832337 0.262486
H4    H     H_    0.641246 0.378306 0.783961 0.214873
H5    H     H_    0.581980 0.403799 0.690983 0.166760
H6    H     H_    0.553939 0.647880 0.163486 0.275323
H7    H     H_    0.483669 0.595065 0.109884 0.252188
H8    H     H_    0.478611 0.713169 0.122276 0.273465
H9    H     H_    0.360149 0.639327 0.174674 0.265966
H10   H     H_    0.428280 0.695470 0.223957 0.215553
H11   H     H_    0.632560 0.523199 0.840303 0.276041
H12   H     H_    0.561522 0.472193 0.893086 0.253383
I1    I     I_    0.189076 0.635205 0.931816 -0.077940
I2    I     I_    0.886773 0.316786 0.438136 -0.145640
I3    I     I_    0.886201 0.684250 0.559448 -0.176498
I4    I     I_    0.113797 0.316087 0.439790 -0.161389
I5    I     I_    0.309729 0.120175 0.522007 -0.165844
I6    I     I_    0.690249 0.879848 0.477986 -0.180292
I7    I     I_    0.689998 0.119095 0.477126 -0.160159
I8    I     I_    0.309881 0.880937 0.522497 -0.156457
I9    I     I_    0.512694 0.159044 0.068475 -0.090122
I10   I     I_    0.201054 0.633148 0.087155 -0.155164
I11   I     I_    0.507879 0.166127 0.913211 -0.149595
I12   I     I_    0.626534 0.372741 0.170405 -0.180813
I13   I     I_    0.401680 0.674072 0.819372 -0.167170
I14   I     I_    0.636570 0.348706 0.330725 -0.162535
I15   I     I_    0.362047 0.661643 0.659219 -0.151555
I16   I     I_    0.113187 0.683557 0.561105 -0.139398
N1    N     N_R   0.398561 0.441812 0.850473 -0.335711
N2    N     N_R   0.413034 0.434881 0.148900 -0.336082
N3    N     N_1   0.500000 0.270550 0.500000 -0.068334
N4    N     N_1   0.500000 0.729450 0.500000 -0.069408
O1    O     O_R   0.378020 0.573650 0.500020 -0.593303
O2    O     O_2   0.285791 0.508257 0.167003 -0.512509
O3    O     O_2   0.276386 0.527619 0.842153 -0.482094
O4    O     O_2   0.453902 0.286588 0.157746 -0.483653
O5    O     O_R   0.621980 0.426350 0.499980 -0.594390
O6    O     O_R   0.621980 0.573650 0.499980 -0.596100
O7    O     O_R   0.378020 0.426350 0.500020 -0.595558
O8    O     O_R   0.499980 0.573680 0.416160 -0.613116
O9    O     O_R   0.500020 0.426320 0.583840 -0.603491
O10   O     O_R   0.500020 0.573680 0.583840 -0.586079
O11   O     O_R   0.499980 0.426320 0.416160 -0.583776
O12   O     O_2   0.426186 0.291653 0.832951 -0.508878
Zn1   Zn    Zn3+2 0.500000 0.598370 0.500000 1.036462
Zn2   Zn    Zn3+2 0.500000 0.401630 0.500000 1.043416

loop_
_geom_bond_atom_site_label_1
_geom_bond_atom_site_label_2
_ccdc_geom_bond_type
C21   C26   A    
C8    C13   A    
C23   C45   A    
C46   H7    S    
C23   I12   S    
C2    H5    S    
C7    C11   A    
C21   I7    S    
N4    Zn1   S    
C12   O6    A    
C36   C37   A    
C35   C37   A    
C24   C26   A    
C34   I13   S    
C11   C14   S    
C48   H12   S    
C20   C25   A    
C15   C16   T    
C32   O4    S    
C33   C36   A    
C9    C13   A    
C20   C24   A    
C49   C51   A    
C22   C25   A    
C12   C17   S    
O8    Zn1   S    
C50   C52   A    
C31   C33   A    
C45   I14   S    
C30   O2    S    
O6    Zn1   S    
C19   O9    A    
C40   C42   A    
C1    O7    A    
C6    N1    S    
C21   C22   A    
C46   H6    S    
C28   N3    T    
C43   I11   S    
C18   O11   A    
C41   C43   A    
C14   C17   T    
C44   C46   S    
C24   I5    S    
C39   C42   A    
C10   I2    S    
C1    O1    A    
C3    C44   S    
C42   I10   S    
C33   C40   A    
C31   O3    S    
C32   C35   A    
C12   O5    A    
C29   C38   A    
C4    C6    A    
C2    C51   A    
C48   H2    S    
C48   H11   S    
O10   Zn1   S    
C44   H10   S    
C41   I9    S    
N3    Zn2   S    
C6    C34   A    
C9    I16   S    
C30   N2    A    
C2    C4    A    
C29   N1    A    
C19   C51   S    
C47   C48   S    
C5    C23   A    
C1    C16   S    
C19   O10   A    
C8    I4    S    
C40   I1    S    
C13   C15   S    
C52   H1    S    
C18   C50   S    
C47   H3    S    
C7    C9    A    
C27   N4    T    
C34   C49   A    
C46   H8    S    
C3    C5    A    
C29   O12   S    
C3    C52   A    
C44   H9    S    
C25   C27   S    
C32   N2    A    
C26   C28   S    
C31   N1    A    
O5    Zn2   S    
C18   O8    A    
C36   C38   A    
C38   C43   A    
C37   C39   A    
C5    N2    S    
C45   C50   A    
C30   C39   A    
O7    Zn2   S    
C35   C41   A    
O1    Zn1   S    
C10   C11   A    
C7    I3    S    
C49   I15   S    
C8    C10   A    
C20   I8    S    
O11   Zn2   S    
O9    Zn2   S    
C22   I6    S    
C47   H4    S    
C4    C47   S    
