data_mof_unit_47341.cif
_audit_creation_date              2012-10-26T18:34:23-0400
_audit_creation_method            fapswitch 2.2
_symmetry_space_group_name_H-M    P1
_symmetry_Int_Tables_number       1
_space_group_crystal_system       triclinic
_cell_length_a                    10.988668
_cell_length_b                    9.48893
_cell_length_c                    9.085916
_cell_angle_alpha                 90.001275
_cell_angle_beta                  90.257229
_cell_angle_gamma                 90.044268
_cell_volume                      947.385003896

loop_
_atom_site_label
_atom_site_type_symbol
_atom_type_description
_atom_site_fract_x
_atom_site_fract_y
_atom_site_fract_z
_atom_type_partial_charge
C1    C     C_R   0.262153 0.499957 0.508348 0.532563
C2    C     C_R   0.063805 0.629230 0.533938 -0.018151
C3    C     C_R   0.871903 0.499551 0.526751 -0.070248
C4    C     C_R   0.128407 0.499828 0.525922 -0.070556
C5    C     C_R   0.433738 0.074451 0.398110 0.041922
C6    C     C_R   0.564823 0.925661 0.603109 0.050948
C7    C     C_R   0.565319 0.074593 0.602690 0.032954
C8    C     C_R   0.433982 0.925437 0.397884 0.035786
C9    C     C_2   0.128472 0.233139 0.558051 0.322902
C10   C     C_2   0.872715 0.765576 0.559985 0.325256
C11   C     C_2   0.873035 0.232429 0.551343 0.330362
C12   C     C_R   0.737919 0.499908 0.508997 0.533096
C13   C     C_2   0.127248 0.767336 0.544602 0.347132
C14   C     C_R   0.499938 0.499998 0.220478 0.566739
C15   C     C_R   0.500063 0.500002 0.779528 0.557147
C16   C     C_1   0.499976 0.499997 0.065486 -0.043087
C17   C     C_1   0.500023 0.500003 0.934507 -0.042050
C18   C     C_R   0.064124 0.370277 0.538183 -0.016111
C19   C     C_R   0.936454 0.628918 0.537514 -0.017726
C20   C     C_R   0.936545 0.370107 0.536199 -0.010074
Cu1   Cu    Cu3+1 0.500000 0.640660 0.500000 0.985164
Cu2   Cu    Cu3+1 0.500000 0.359340 0.500000 0.968019
H1    H     H_    0.380422 0.130708 0.316879 0.137988
H2    H     H_    0.615696 0.869647 0.686537 0.111104
H3    H     H_    0.617538 0.130916 0.684935 0.149489
H4    H     H_    0.381018 0.869101 0.316308 0.113835
H5    H     H_    0.193769 0.220318 0.647054 0.138348
H6    H     H_    0.812533 0.778204 0.653201 0.110905
H7    H     H_    0.825076 0.186956 0.458077 0.156113
H8    H     H_    0.169475 0.812933 0.447945 0.137460
N1    N     N_R   0.500000 0.852070 0.500000 -0.229175
N2    N     N_R   0.500000 0.147930 0.500000 -0.245533
O1    O     O_R   0.319640 0.618740 0.499990 -0.510848
O2    O     O_2   0.886446 0.863290 0.474143 -0.464183
O3    O     O_2   0.875784 0.168834 0.668125 -0.483350
O4    O     O_2   0.131427 0.830529 0.661558 -0.459269
O5    O     O_R   0.680360 0.381260 0.500010 -0.516145
O6    O     O_R   0.680360 0.618740 0.500010 -0.502676
O7    O     O_R   0.319640 0.381260 0.499990 -0.512340
O8    O     O_R   0.500000 0.618760 0.288390 -0.495559
O9    O     O_R   0.500000 0.381240 0.711610 -0.505259
O10   O     O_R   0.500000 0.618760 0.711610 -0.500373
O11   O     O_R   0.500000 0.381240 0.288390 -0.497982
O12   O     O_2   0.109931 0.134897 0.474027 -0.474535

loop_
_geom_bond_atom_site_label_1
_geom_bond_atom_site_label_2
_ccdc_geom_bond_type
C5    C8    A    
C2    C4    A    
C3    C19   A    
C6    C7    A    
C7    N2    A    
C8    H4    S    
C13   H8    S    
Cu2   O11   S    
C7    H3    S    
C9    H5    S    
C10   C19   S    
C1    C4    S    
C6    H2    S    
C5    N2    A    
C11   O3    D    
C6    N1    A    
C1    O1    A    
C3    C20   A    
C10   O2    D    
Cu1   Cu2   S    
Cu1   N1    S    
C15   O9    A    
Cu1   O8    S    
Cu2   N2    S    
Cu2   O7    S    
C8    N1    A    
C18   C20   A    
C12   O6    A    
C14   C16   S    
C11   C20   S    
Cu2   O9    S    
Cu1   O1    S    
C1    O7    A    
C14   O8    A    
Cu1   O10   S    
C9    C18   S    
C11   H7    S    
C13   O4    D    
C10   H6    S    
C12   O5    A    
C15   C17   S    
C2    C13   S    
C16   C17   T    
C9    O12   D    
C3    C12   S    
C2    C19   A    
Cu2   O5    S    
C4    C18   A    
Cu1   O6    S    
C15   O10   A    
C14   O11   A    
C5    H1    S    
