data_mof_unit_12993.cif
_audit_creation_date              2012-12-10T18:53:03-0500
_audit_creation_method            fapswitch 2.2
_symmetry_space_group_name_H-M    P1
_symmetry_Int_Tables_number       1
_space_group_crystal_system       triclinic
_cell_length_a                    9.896788
_cell_length_b                    10.752079
_cell_length_c                    17.002532
_cell_angle_alpha                 92.465031
_cell_angle_beta                  85.48993
_cell_angle_gamma                 88.946176
_cell_volume                      1801.55524961

loop_
_atom_site_label
_atom_site_type_symbol
_atom_type_description
_atom_site_fract_x
_atom_site_fract_y
_atom_site_fract_z
_atom_type_partial_charge
C1    C     C_R   0.499056 0.739759 0.499309 1.006886
C2    C     C_R   0.064650 0.559212 0.560736 0.463591
C3    C     C_R   0.080579 0.438748 0.440310 0.181794
C4    C     C_R   0.919480 0.559364 0.560237 0.205461
C5    C     C_R   0.481435 0.501647 0.652097 1.030959
C6    C     C_R   0.518027 0.511908 0.348511 1.023084
C7    C     C_R   0.471681 0.514252 0.736961 -0.401751
C8    C     C_R   0.525261 0.554741 0.267963 -0.397688
C9    C     C_R   0.545412 0.608341 0.772568 0.366678
C10   C     C_R   0.419000 0.632058 0.245474 0.372323
C11   C     C_R   0.561675 0.606782 0.852775 0.393262
C12   C     C_R   0.500880 0.260230 0.500899 1.015745
C13   C     C_R   0.415115 0.660882 0.166059 0.403633
C14   C     C_R   0.490268 0.520004 0.898956 -0.236944
C15   C     C_R   0.519977 0.615911 0.111316 -0.223696
C16   C     C_R   0.412776 0.427857 0.863547 0.387981
C17   C     C_R   0.632981 0.550491 0.135061 0.396586
C18   C     C_R   0.398725 0.428245 0.782102 0.323223
C19   C     C_R   0.639259 0.526849 0.215105 0.333987
C20   C     C_2   0.501566 0.520094 0.983735 -0.081186
C21   C     C_2   0.505748 0.625499 0.027677 0.002933
C22   C     C_3   0.519253 0.795941 0.719307 -0.255524
C23   C     C_R   0.609721 0.930643 0.461000 0.453195
C24   C     C_3   0.198229 0.656065 0.299561 -0.160703
C25   C     C_3   0.850819 0.569871 0.248709 -0.195381
C26   C     C_3   0.186628 0.366537 0.758464 -0.152410
C27   C     C_3   0.425113 0.228977 0.902655 -0.273991
C28   C     C_3   0.765263 0.388984 0.074819 -0.261814
C29   C     C_3   0.214967 0.667193 0.106516 -0.328823
C30   C     C_3   0.779620 0.637083 0.879727 -0.206671
C31   C     C_3   0.831293 0.861939 0.455901 -0.257256
C32   C     C_3   0.168524 0.137495 0.543962 -0.214144
C33   C     C_3   0.929179 0.274969 0.342162 -0.077961
C34   C     C_R   0.390142 0.069266 0.539485 0.450383
C35   C     C_3   0.075132 0.718275 0.659878 -0.186893
C36   C     C_R   0.611352 0.059008 0.463247 0.267315
C37   C     C_R   0.388389 0.940873 0.537185 0.241814
C38   C     C_R   0.502200 0.127693 0.502450 -0.392536
C39   C     C_R   0.497638 0.872229 0.497983 -0.369746
C40   C     C_R   0.934950 0.437351 0.440475 0.436544
H1    H     H_    0.487744 0.716052 0.004052 0.195968
H2    H     H_    0.814074 0.641197 0.295268 0.184775
H3    H     H_    0.876655 0.614828 0.191909 0.156615
H4    H     H_    0.130579 0.305369 0.718741 0.185837
H5    H     H_    0.162949 0.464575 0.744900 0.169317
H6    H     H_    0.148938 0.348881 0.820161 0.169740
H7    H     H_    0.377254 0.162110 0.943632 0.188398
H8    H     H_    0.530144 0.244005 0.919759 0.135186
H9    H     H_    0.427925 0.185555 0.841989 0.206219
H10   H     H_    0.804261 0.361603 0.013447 0.159690
H11   H     H_    0.672949 0.333512 0.088653 0.137388
H12   H     H_    0.502601 0.431165 0.011756 0.168826
H13   H     H_    0.845239 0.364138 0.113968 0.212226
H14   H     H_    0.203354 0.571746 0.129035 0.139832
H15   H     H_    0.238760 0.661143 0.041614 0.185121
H16   H     H_    0.115053 0.715858 0.117668 0.186182
H17   H     H_    0.848378 0.703051 0.907597 0.178815
H18   H     H_    0.782696 0.549010 0.911702 0.170682
H19   H     H_    0.819003 0.620057 0.816983 0.181424
H20   H     H_    0.893553 0.778509 0.434653 0.153727
H21   H     H_    0.812580 0.856972 0.521226 0.130692
H22   H     H_    0.891957 0.944783 0.441320 0.167090
H23   H     H_    0.484890 0.842108 0.777492 0.172324
H24   H     H_    0.187588 0.141480 0.478601 0.126017
H25   H     H_    0.106298 0.221231 0.564567 0.159839
H26   H     H_    0.107679 0.054925 0.558943 0.157800
H27   H     H_    0.775700 0.145413 0.464533 0.327867
H28   H     H_    0.224490 0.853662 0.535386 0.337894
H29   H     H_    0.978246 0.214423 0.383684 0.120604
H30   H     H_    0.000858 0.301507 0.292508 0.181471
H31   H     H_    0.851201 0.219564 0.314158 0.213565
H32   H     H_    0.000435 0.697646 0.709487 0.193963
H33   H     H_    0.030299 0.779644 0.617170 0.151274
H34   H     H_    0.430481 0.764135 0.688132 0.175484
H35   H     H_    0.156490 0.770261 0.687110 0.196613
H36   H     H_    0.237322 0.342572 0.400455 0.381820
H37   H     H_    0.765426 0.657895 0.599531 0.395953
H38   H     H_    0.571471 0.866400 0.682783 0.177751
H39   H     H_    0.189733 0.558822 0.275334 0.160210
H40   H     H_    0.142130 0.721969 0.264999 0.169814
H41   H     H_    0.147690 0.660947 0.360199 0.157483
H42   H     H_    0.946058 0.528062 0.266598 0.171453
N1    N     N_R   0.142790 0.500030 0.500020 -0.197169
N2    N     N_R   0.857210 0.499970 0.499980 -0.205639
O1    O     O_R   0.385380 0.683250 0.500010 -0.587814
O2    O     O_3   0.333333 0.693900 0.303675 -0.567192
O3    O     O_3   0.755429 0.474750 0.241101 -0.560306
O4    O     O_3   0.326249 0.336965 0.745121 -0.568837
O5    O     O_3   0.346926 0.340552 0.909265 -0.602473
O6    O     O_3   0.740196 0.519098 0.079536 -0.598833
O7    O     O_3   0.312883 0.738478 0.143576 -0.575365
O8    O     O_3   0.647905 0.690813 0.885528 -0.586717
O9    O     O_3   0.710725 0.861707 0.416385 -0.558641
O10   O     O_3   0.288810 0.138275 0.583745 -0.533694
O11   O     O_3   0.716735 0.116070 0.423273 -0.733373
O12   O     O_R   0.614620 0.316750 0.499990 -0.598616
O13   O     O_3   0.282582 0.883845 0.576866 -0.760595
O14   O     O_3   0.865121 0.381740 0.380552 -0.537496
O15   O     O_3   0.132232 0.606675 0.623967 -0.581399
O16   O     O_3   0.158458 0.381183 0.378534 -0.799032
O17   O     O_3   0.841897 0.616280 0.622179 -0.732542
O18   O     O_R   0.614710 0.683220 0.500000 -0.640483
O19   O     O_R   0.385290 0.316780 0.500000 -0.627778
O20   O     O_R   0.371780 0.500040 0.615800 -0.546840
O21   O     O_R   0.628220 0.499960 0.384200 -0.527554
O22   O     O_R   0.601110 0.500010 0.615800 -0.600861
O23   O     O_R   0.398890 0.499990 0.384200 -0.605554
O24   O     O_3   0.611392 0.696929 0.728128 -0.565449
Zn1   Zn    Zn3+2 0.346870 0.500020 0.500000 1.011538
Zn2   Zn    Zn3+2 0.653130 0.499980 0.500000 1.013506

loop_
_geom_bond_atom_site_label_1
_geom_bond_atom_site_label_2
_ccdc_geom_bond_type
C27   H8    S    
C32   O10   S    
O21   Zn2   S    
C34   C37   A    
C40   N2    A    
H37   O17   S    
C25   H3    S    
C37   O13   S    
C26   H4    S    
C9    O24   S    
C35   H35   S    
O1    Zn1   S    
C40   O14   S    
O20   Zn1   S    
C11   C14   A    
C23   C39   A    
C29   H14   S    
C30   H17   S    
C25   O3    S    
C7    C9    A    
C33   O14   S    
C31   H21   S    
H28   O13   S    
C26   H5    S    
C17   C19   A    
C22   H23   S    
C28   H10   S    
C3    O16   S    
C24   H40   S    
C35   H33   S    
C6    O23   A    
N1    Zn1   S    
C33   H29   S    
C5    O20   A    
C16   O5    S    
C4    O17   S    
H27   O11   S    
O23   Zn1   S    
C31   H22   S    
C2    N1    A    
C35   O15   S    
C11   O8    S    
C5    O22   A    
C1    O1    A    
C37   C39   A    
C8    C19   A    
C14   C20   S    
C22   H38   S    
C12   O19   A    
C30   O8    S    
C5    C7    S    
C1    C39   S    
C6    C8    S    
C29   H15   S    
C31   O9    S    
O12   Zn2   S    
N2    Zn2   S    
C23   O9    S    
C31   H20   S    
C2    C4    A    
C24   H41   S    
C24   H39   S    
C4    N2    A    
C7    C18   A    
C30   H19   S    
C9    C11   A    
C32   H24   S    
C33   H30   S    
C21   H1    S    
C8    C10   A    
C3    C40   A    
C13   C15   A    
C3    N1    A    
C25   H42   S    
C14   C16   A    
O18   Zn2   S    
C22   H34   S    
C29   O7    S    
C32   H26   S    
O22   Zn2   S    
C27   H7    S    
C15   C17   A    
C10   O2    S    
C34   C38   A    
C17   O6    S    
C34   O10   S    
C10   C13   A    
C25   H2    S    
C35   H32   S    
C28   H13   S    
C29   H16   S    
H36   O16   S    
C19   O3    S    
O19   Zn1   S    
C36   C38   A    
C2    O15   S    
C20   H12   S    
C36   O11   S    
C22   O24   S    
C30   H18   S    
C28   H11   S    
C6    O21   A    
C27   O5    S    
C12   C38   S    
C18   O4    S    
C33   H31   S    
C26   O4    S    
C15   C21   S    
C20   C21   D    
C16   C18   A    
C23   C36   A    
C12   O12   A    
C28   O6    S    
C26   H6    S    
C24   O2    S    
C1    O18   A    
C13   O7    S    
C27   H9    S    
C32   H25   S    
