data_mof_unit_53922.cif
_audit_creation_date              2012-12-10T17:03:29-0500
_audit_creation_method            fapswitch 2.2
_symmetry_space_group_name_H-M    P1
_symmetry_Int_Tables_number       1
_space_group_crystal_system       triclinic
_cell_length_a                    15.018084
_cell_length_b                    11.016151
_cell_length_c                    9.955465
_cell_angle_alpha                 111.049282
_cell_angle_beta                  98.270674
_cell_angle_gamma                 93.111705
_cell_volume                      1511.11299187

loop_
_atom_site_label
_atom_site_type_symbol
_atom_type_description
_atom_site_fract_x
_atom_site_fract_y
_atom_site_fract_z
_atom_type_partial_charge
C1    C     C_R   0.493507 0.254251 0.440530 0.877159
C2    C     C_2   0.491187 0.488547 0.919523 0.195545
C3    C     C_R   0.329071 0.495565 0.499526 0.847147
C4    C     C_R   0.670929 0.504428 0.500469 0.847135
C5    C     C_R   0.828117 0.615715 0.604776 0.143872
C6    C     C_R   0.171877 0.384313 0.395162 0.143862
C7    C     C_R   0.767720 0.510616 0.500980 -0.113782
C8    C     C_R   0.232280 0.489395 0.498990 -0.113736
C9    C     C_R   0.798583 0.408384 0.395962 -0.242484
C10   C     C_R   0.201414 0.591661 0.603955 -0.242510
C11   C     C_R   0.890391 0.405334 0.393837 0.098726
C12   C     C_R   0.506492 0.745749 0.559470 0.877170
C13   C     C_R   0.109603 0.594734 0.606017 0.098745
C14   C     C_R   0.953342 0.503920 0.501342 -0.005597
C15   C     C_R   0.046651 0.496150 0.498503 -0.005613
C16   C     C_R   0.922985 0.609881 0.610868 0.069191
C17   C     C_R   0.077009 0.390188 0.388992 0.069170
C18   C     C_R   0.919231 0.303954 0.284276 -0.238369
C19   C     C_R   0.080764 0.696147 0.715531 -0.238345
C20   C     C_R   0.011010 0.296266 0.278552 0.164949
C21   C     C_R   0.988988 0.703841 0.721252 0.164876
C22   C     C_2   0.488963 0.114220 0.407324 -0.309206
C23   C     C_2   0.511037 0.885780 0.592676 -0.309219
C24   C     C_2   0.503249 0.069751 0.515840 -0.124180
C25   C     C_2   0.496750 0.930249 0.484160 -0.124180
C26   C     C_2   0.508813 0.511453 0.080477 0.195546
Cu1   Cu    Cu3+1 0.515770 0.521810 0.644910 1.008724
Cu2   Cu    Cu3+1 0.484230 0.478190 0.355090 1.008714
H1    H     H_    0.750320 0.330075 0.315582 0.158355
H2    H     H_    0.408697 0.375540 0.072302 0.224061
H3    H     H_    0.004255 0.209181 0.060103 0.232656
H4    H     H_    0.007929 0.105541 0.151076 0.236103
H5    H     H_    0.995754 0.791040 0.939669 0.232704
H6    H     H_    0.992064 0.894597 0.848554 0.236117
H7    H     H_    0.249673 0.669972 0.684353 0.158341
H8    H     H_    0.869858 0.230540 0.199861 0.157017
H9    H     H_    0.130132 0.769597 0.799928 0.157008
H10   H     H_    0.480164 0.863528 0.370598 0.198343
H11   H     H_    0.519834 0.136472 0.629402 0.198341
H12   H     H_    0.526825 0.952882 0.706126 0.162425
H13   H     H_    0.473174 0.047117 0.293874 0.162424
H14   H     H_    0.591303 0.624459 0.927697 0.224070
I1    I     I_    0.769166 0.786977 0.726573 -0.323596
I2    I     I_    0.230798 0.212974 0.273533 -0.323610
I3    I     I_    0.381748 0.340929 0.787368 -0.335653
I4    I     I_    0.618252 0.659071 0.212632 -0.335659
N1    N     N_2   0.460520 0.445420 0.137370 -0.294134
N2    N     N_2   0.539480 0.554580 0.862630 -0.294129
N3    N     N_3   0.034700 0.196592 0.154800 -0.547796
N4    N     N_3   0.965308 0.803580 0.844944 -0.547832
O1    O     O_R   0.508410 0.332340 0.577400 -0.558477
O2    O     O_R   0.491590 0.667660 0.422600 -0.558475
O3    O     O_R   0.481780 0.295500 0.332650 -0.567758
O4    O     O_R   0.518220 0.704500 0.667350 -0.567746
O5    O     O_R   0.383570 0.518390 0.622380 -0.553644
O6    O     O_R   0.616430 0.481610 0.377620 -0.553652
O7    O     O_R   0.356940 0.481550 0.377630 -0.559567
O8    O     O_R   0.643060 0.518450 0.622370 -0.559546

loop_
_geom_bond_atom_site_label_1
_geom_bond_atom_site_label_2
_ccdc_geom_bond_type
Cu1   N2    S    
C6    C8    A    
Cu2   O3    S    
C5    C7    A    
C11   C18   A    
C15   C17   A    
C20   N3    S    
C25   H10   S    
C1    O1    A    
Cu1   O5    S    
C18   C20   A    
C9    H1    S    
C9    C11   A    
C2    N2    D    
C24   H11   S    
C23   C25   D    
Cu2   O6    S    
Cu1   O4    S    
C1    C22   S    
C2    C26   S    
H14   N2    S    
Cu2   O7    S    
C4    O6    A    
Cu2   O2    S    
C12   C23   S    
C16   C21   A    
C18   H8    S    
C26   N1    D    
H3    N3    S    
C4    C7    S    
C3    O7    A    
Cu2   N1    S    
C21   N4    S    
C12   O2    A    
Cu1   O1    S    
C22   C24   D    
C13   C15   A    
C2    I3    S    
C5    I1    S    
C10   H7    S    
C14   C16   A    
H4    N3    S    
H6    N4    S    
C22   H13   S    
C26   I4    S    
C23   H12   S    
H2    N1    S    
Cu1   Cu2   S    
C17   C20   A    
C24   C25   S    
C8    C10   A    
C3    C8    S    
C4    O8    A    
C11   C14   A    
C7    C9    A    
C6    C17   A    
C1    O3    A    
C14   C15   A    
C13   C19   A    
C6    I2    S    
C19   H9    S    
C19   C21   A    
H5    N4    S    
C3    O5    A    
Cu1   O8    S    
C12   O4    A    
C5    C16   A    
C10   C13   A    
