data_mof_unit_23923.cif
_audit_creation_date              2012-12-10T16:49:28-0500
_audit_creation_method            fapswitch 2.2
_symmetry_space_group_name_H-M    P1
_symmetry_Int_Tables_number       1
_space_group_crystal_system       triclinic
_cell_length_a                    19.326749
_cell_length_b                    8.689491
_cell_length_c                    7.405307
_cell_angle_alpha                 103.169353
_cell_angle_beta                  92.909657
_cell_angle_gamma                 92.647743
_cell_volume                      1207.24131315

loop_
_atom_site_label
_atom_site_type_symbol
_atom_type_description
_atom_site_fract_x
_atom_site_fract_y
_atom_site_fract_z
_atom_type_partial_charge
C1    C     C_R   0.497892 0.199510 0.453032 0.896412
C2    C     C_R   0.502163 0.800492 0.546946 0.900451
C3    C     C_2   0.496857 0.031570 0.426571 -0.320778
C4    C     C_2   0.503151 0.968418 0.573395 -0.309153
C5    C     C_R   0.367530 0.505813 0.505889 0.872995
C6    C     C_R   0.632803 0.498223 0.494569 0.866485
C7    C     C_R   0.259047 0.618497 0.659478 0.334153
C8    C     C_R   0.743875 0.417221 0.328643 0.348094
C9    C     C_R   0.186407 0.634409 0.636492 0.330461
C10   C     C_R   0.815878 0.396712 0.351429 0.333041
C11   C     C_R   0.146315 0.520877 0.499095 -0.185357
C12   C     C_R   0.855024 0.492249 0.506950 -0.187894
C13   C     C_R   0.178800 0.413921 0.361244 -0.064631
C14   C     C_R   0.821108 0.582032 0.656499 -0.061235
C15   C     C_R   0.250867 0.417556 0.366516 -0.206000
C16   C     C_R   0.748833 0.574255 0.648302 -0.187727
C17   C     C_R   0.291482 0.513551 0.515505 -0.208814
C18   C     C_R   0.709379 0.496549 0.486315 -0.222151
C19   C     C_R   0.931010 0.501560 0.507485 0.547394
C20   C     C_R   0.070595 0.513637 0.501265 0.550053
Cu1   Cu    Cu3+1 0.507710 0.517380 0.684380 1.046070
Cu2   Cu    Cu3+1 0.492290 0.482620 0.315620 1.021335
H1    H     H_    0.275722 0.337794 0.257566 0.218566
H2    H     H_    0.722991 0.639231 0.766180 0.224934
H3    H     H_    0.490919 0.959576 0.285189 0.188696
H4    H     H_    0.509045 0.040395 0.714775 0.178542
H5    H     H_    0.448503 0.372721 0.947995 0.252670
H6    H     H_    0.550389 0.629349 0.052297 0.258293
N1    N     N_R   0.031056 0.540747 0.356586 -0.142684
N2    N     N_R   0.970613 0.474081 0.652071 -0.168195
N3    N     N_R   0.962329 0.535016 0.359935 -0.122528
N4    N     N_R   0.039423 0.480772 0.649293 -0.161878
N5    N     N_2   0.480680 0.456420 0.038530 -0.212673
N6    N     N_2   0.519320 0.543580 0.961470 -0.185456
O1    O     O_R   0.505010 0.286130 0.619770 -0.602987
O2    O     O_R   0.494990 0.713870 0.380230 -0.612448
O3    O     O_R   0.491990 0.256780 0.308370 -0.568961
O4    O     O_R   0.508010 0.743220 0.691630 -0.562352
O5    O     O_R   0.406650 0.514660 0.655750 -0.518048
O6    O     O_R   0.593350 0.485340 0.344250 -0.524389
O7    O     O_R   0.393640 0.485310 0.344340 -0.593250
O8    O     O_R   0.606360 0.514690 0.655660 -0.563866
S1    S     S_3+6 0.308417 0.719900 0.867784 0.068765
O9    O     O_2   0.364659 0.825822 0.818979 -0.300866
O10   O     O_2   0.266057 0.817027 0.011057 -0.191322
O11   O     O_3   0.344465 0.585001 0.967247 -0.517651
H7    H     H_    0.369882 0.648104 0.081655 0.378105
S2    S     S_3+6 0.700342 0.365088 0.102052 0.074994
O12   O     O_2   0.668367 0.509886 0.064742 -0.310203
O13   O     O_2   0.748027 0.309154 0.949824 -0.196868
O14   O     O_3   0.637866 0.222188 0.095495 -0.512650
H8    H     H_    0.607987 0.220374 0.982198 0.364946
S3    S     S_3+6 0.146669 0.808397 0.752671 0.079853
O15   O     O_2   0.125519 0.788557 0.939030 -0.212665
O16   O     O_2   0.197044 0.949767 0.777328 -0.223100
O17   O     O_3   0.075946 0.843070 0.629256 -0.499749
H9    H     H_    0.055389 0.934031 0.710516 0.387433
S4    S     S_3+6 0.855680 0.236610 0.204804 0.090154
O18   O     O_2   0.912779 0.178142 0.312680 -0.256744
O19   O     O_2   0.803167 0.101013 0.129719 -0.207865
O20   O     O_3   0.889669 0.299526 0.027740 -0.463533
H10   H     H_    0.911456 0.206395 0.954451 0.386854
C21   C     C_2   0.139276 0.299148 0.206868 0.942471
O21   O     O_2   0.086424 0.227732 0.235365 -0.530883
O22   O     O_R   0.163161 0.271971 0.027981 -0.694494
H11   H     H_    0.130243 0.197492 0.933036 0.369617
C22   C     C_2   0.859067 0.687467 0.822007 0.962027
O23   O     O_2   0.836291 0.700665 0.975623 -0.504816
O24   O     O_R   0.919329 0.776017 0.802138 -0.730244
H12   H     H_    0.939765 0.844149 0.924770 0.373240

loop_
_geom_bond_atom_site_label_1
_geom_bond_atom_site_label_2
_ccdc_geom_bond_type
C1    C3    S    
C2    C4    S    
S1    O9    D    
C8    S2    S    
C15   C17   A    
Cu1   O1    S    
C7    S1    S    
Cu2   O2    S    
C2    O4    A    
C4    H4    S    
Cu1   O5    S    
C13   C15   A    
C1    O3    A    
C9    C11   A    
C19   N3    A    
S4    O20   S    
C21   O22   S    
N5    N6    D    
H6    N6    S    
C16   H2    S    
C16   C18   A    
Cu1   Cu2   S    
H5    N5    S    
N2    N4    A    
S2    O13   D    
S1    O10   D    
O20   H10   S    
C10   C12   A    
C22   O23   D    
C12   C19   S    
C15   H1    S    
S2    O12   D    
C10   S4    S    
C12   C14   A    
C14   C16   A    
C20   N1    A    
S3    O16   D    
C6    O8    A    
O24   H12   S    
C6    C18   S    
S1    O11   S    
C6    O6    A    
C11   C20   S    
S2    O14   S    
Cu2   O7    S    
C5    C17   S    
C14   C22   S    
S4    O19   D    
C3    C4    D    
C5    O5    A    
C11   C13   A    
C3    H3    S    
C9    S3    S    
O17   H9    S    
C1    O1    A    
N1    N3    A    
O22   H11   S    
C20   N4    A    
S3    O17   S    
C2    O2    A    
Cu2   O3    S    
C7    C9    A    
Cu2   N5    S    
C5    O7    A    
Cu2   O6    S    
Cu1   O8    S    
C22   O24   S    
S4    O18   D    
O11   H7    S    
C19   N2    A    
Cu1   N6    S    
C8    C10   A    
C8    C18   A    
Cu1   O4    S    
O14   H8    S    
S3    O15   D    
C21   O21   D    
C7    C17   A    
C13   C21   S    
