data_mof_unit_11811.cif
_audit_creation_date              2012-12-11T16:50:53-0500
_audit_creation_method            fapswitch 2.2
_symmetry_space_group_name_H-M    P1
_symmetry_Int_Tables_number       1
_space_group_crystal_system       triclinic
_cell_length_a                    6.958107
_cell_length_b                    28.716985
_cell_length_c                    32.222491
_cell_angle_alpha                 100.843021
_cell_angle_beta                  89.56801
_cell_angle_gamma                 90.537069
_cell_volume                      6323.22504127

loop_
_atom_site_label
_atom_site_type_symbol
_atom_type_description
_atom_site_fract_x
_atom_site_fract_y
_atom_site_fract_z
_atom_type_partial_charge
O1    O     O_R   0.494350 0.453170 0.452520 -0.528517
O2    O     O_R   0.820980 0.455850 0.538220 -0.504363
O3    O     O_R   0.994300 0.546830 0.547480 -0.549675
C1    C     C_R   0.651289 0.445771 0.551611 0.837774
O4    O     O_R   0.823860 0.447590 0.452270 -0.557629
O5    O     O_R   0.997200 0.538510 0.460920 -0.557831
C2    C     C_R   0.655126 0.435268 0.436398 0.725426
O6    O     O_R   0.491440 0.461490 0.539080 -0.517355
O7    O     O_3   0.661790 0.529840 0.502940 -0.381825
V1    V     V_3+5 0.935470 0.494460 0.499450 1.519992
O8    O     O_R   0.327090 0.544150 0.461780 -0.509266
C3    C     C_R   0.159197 0.554288 0.448372 0.755550
O9    O     O_R   0.324210 0.552410 0.547730 -0.525617
C4    C     C_R   0.155399 0.564573 0.563611 0.862557
V2    V     V_3+5 0.435840 0.505540 0.500550 1.568733
O10   O     O_3   0.159650 0.470160 0.497060 -0.364282
C5    C     C_R   0.177689 0.901586 0.865413 0.403923
C6    C     C_R   0.179941 0.866455 0.828534 -0.166724
H1    H     H_    0.264996 0.872960 0.802054 0.152445
C7    C     C_R   0.071893 0.824287 0.825676 0.086800
C8    C     C_R   0.947355 0.820070 0.859525 -0.122957
H2    H     H_    0.862273 0.788239 0.859045 0.139768
C9    C     C_R   0.931536 0.856739 0.894780 -0.257403
H3    H     H_    0.832832 0.852582 0.920012 0.141979
C10   C     C_R   0.047287 0.897527 0.898299 -0.144488
C11   C     C_R   0.921132 0.758282 0.773254 -0.372393
H4    H     H_    0.785656 0.767504 0.789014 0.189281
C12   C     C_R   0.926410 0.720551 0.738106 0.501905
C13   C     C_R   0.100337 0.710374 0.715437 0.056631
C14   C     C_R   0.264756 0.737263 0.729508 -0.346023
H5    H     H_    0.399650 0.728306 0.713294 0.183770
C15   C     C_R   0.260050 0.774644 0.764812 0.476783
C16   C     C_R   0.085867 0.785195 0.787476 -0.026999
C17   C     C_R   0.223647 0.680202 0.641771 -0.340840
H6    H     H_    0.290546 0.714513 0.642465 0.164751
C18   C     C_R   0.249799 0.644128 0.605890 0.393556
C19   C     C_R   0.144613 0.601435 0.602561 -0.316218
C20   C     C_R   0.031829 0.593314 0.637137 0.286019
C21   C     C_R   0.029053 0.627284 0.674847 0.615457
C22   C     C_R   0.114725 0.672216 0.676743 -0.095701
C23   C     C_R   0.135127 0.655254 0.280951 0.640235
N1    N     N_R   0.123769 0.674358 0.323328 -0.536357
C24   C     C_R   0.106382 0.722513 0.336648 0.586982
C25   C     C_R   0.101789 0.753150 0.307225 -0.093029
C26   C     C_R   0.106046 0.733863 0.263796 -0.017653
C27   C     C_R   0.120668 0.684412 0.250435 -0.039603
C28   C     C_R   0.091679 0.802521 0.320344 -0.226247
C29   C     C_R   0.084362 0.832785 0.290877 0.461525
C30   C     C_R   0.090391 0.813709 0.246967 -0.150014
C31   C     C_R   0.096581 0.764016 0.233657 -0.075959
C32   C     C_R   0.093652 0.744276 0.190199 -0.008377
C33   C     C_R   0.105461 0.694794 0.177249 -0.126941
C34   C     C_R   0.121150 0.665304 0.206953 -0.130573
C35   C     C_R   0.089236 0.842627 0.215854 0.653142
N2    N     N_R   0.075708 0.822833 0.173667 -0.556009
C36   C     C_R   0.077299 0.774460 0.160653 0.564039
O11   O     O_2   0.162543 0.608277 0.268250 -0.496615
O12   O     O_2   0.091656 0.740833 0.378286 -0.533255
H7    H     H_    0.089624 0.818142 0.353677 0.181635
O13   O     O_2   0.104413 0.890130 0.227565 -0.471075
O14   O     O_2   0.061376 0.755431 0.119217 -0.518098
H8    H     H_    0.104252 0.678656 0.144046 0.177712
H9    H     H_    0.131558 0.627420 0.195701 0.179236
C37   C     C_R   0.195134 0.849894 0.109420 -0.185202
H10   H     H_    0.309598 0.824235 0.106722 0.155105
C38   C     C_R   0.186483 0.880079 0.080105 -0.208590
H11   H     H_    0.294369 0.877032 0.055350 0.141616
C39   C     C_R   0.039117 0.913491 0.082394 -0.106151
C40   C     C_R   0.900968 0.916359 0.114762 -0.272751
H12   H     H_    0.788785 0.942693 0.117499 0.167268
C41   C     C_R   0.910188 0.886473 0.144753 0.518646
C42   C     C_R   0.060416 0.853288 0.142566 0.271135
C43   C     C_R   0.274653 0.651448 0.385674 -0.292749
H13   H     H_    0.380450 0.679262 0.385380 0.161266
C44   C     C_R   0.283915 0.623365 0.417024 0.404027
C45   C     C_R   0.151103 0.585811 0.416658 -0.179978
C46   C     C_R   0.007879 0.578295 0.385479 -0.333270
H14   H     H_    0.905650 0.549403 0.384437 0.164135
C47   C     C_R   0.996663 0.607115 0.354768 0.526384
C48   C     C_R   0.132433 0.643819 0.354444 0.220884
C49   C     C_R   0.636913 0.223002 0.837310 0.801092
N3    N     N_R   0.570100 0.177409 0.825494 -0.524000
C50   C     C_R   0.511404 0.160330 0.784968 0.618148
C51   C     C_R   0.518817 0.189425 0.754350 0.022728
C52   C     C_R   0.586736 0.236477 0.765889 -0.091032
C53   C     C_R   0.646331 0.253682 0.807763 -0.302973
C54   C     C_R   0.460206 0.172535 0.712546 -0.142657
C55   C     C_R   0.469171 0.201806 0.682526 -0.141357
C56   C     C_R   0.536420 0.248780 0.693553 0.021868
C57   C     C_R   0.594948 0.266295 0.735423 -0.087604
C58   C     C_R   0.661286 0.313497 0.746831 -0.294111
C59   C     C_R   0.720389 0.330355 0.788798 0.609077
C60   C     C_R   0.713360 0.300873 0.818780 0.617108
C61   C     C_R   0.546194 0.278760 0.663672 0.581422
N4    N     N_R   0.610364 0.324620 0.675123 -0.531477
C62   C     C_R   0.666423 0.342376 0.715797 0.744676
O15   O     O_2   0.693731 0.238464 0.877504 -0.415555
O16   O     O_2   0.446377 0.115282 0.774306 -0.529371
H15   H     H_    0.407408 0.136564 0.702829 0.163807
H16   H     H_    0.422961 0.187464 0.650623 0.167442
O17   O     O_2   0.490290 0.262310 0.623548 -0.517985
O18   O     O_2   0.727118 0.387794 0.726073 -0.438470
C63   C     C_R   0.486313 0.391931 0.645340 0.439504
C64   C     C_R   0.497446 0.421498 0.615170 0.440166
C65   C     C_R   0.638785 0.414073 0.583062 -0.350465
C66   C     C_R   0.768497 0.376439 0.581652 0.546888
C67   C     C_R   0.756534 0.346895 0.611560 -0.290769
H17   H     H_    0.857214 0.318080 0.609976 0.186573
C68   C     C_R   0.618003 0.354741 0.643880 0.108284
C69   C     C_R   0.723459 0.120184 0.862592 -0.238239
H18   H     H_    0.853564 0.123875 0.844831 0.204602
C70   C     C_R   0.717599 0.089091 0.891720 0.419949
C71   C     C_R   0.549622 0.086409 0.916490 -0.385474
C72   C     C_R   0.388970 0.113985 0.909911 0.473542
C73   C     C_R   0.395443 0.143373 0.879825 0.609542
C74   C     C_R   0.562659 0.146726 0.856163 0.095377
C75   C     C_R   0.675895 0.095735 0.135200 0.422822
C76   C     C_R   0.682253 0.130189 0.172547 -0.155376
H19   H     H_    0.767499 0.123073 0.198365 0.148535
C77   C     C_R   0.576763 0.172365 0.176839 0.077103
C78   C     C_R   0.450420 0.177467 0.144045 -0.122757
H20   H     H_    0.365741 0.209264 0.146111 0.147695
C79   C     C_R   0.433354 0.141912 0.107876 -0.240783
H21   H     H_    0.334700 0.146877 0.083259 0.161110
C80   C     C_R   0.547452 0.101145 0.102790 -0.139129
C81   C     C_R   0.431169 0.234429 0.233456 -0.240516
H22   H     H_    0.292364 0.225232 0.219677 0.211780
C82   C     C_R   0.442641 0.269204 0.270092 -0.232328
H23   H     H_    0.312467 0.283539 0.285389 0.203977
C83   C     C_R   0.620487 0.285892 0.286884 -0.050702
C84   C     C_R   0.788022 0.265798 0.266406 0.370354
C85   C     C_R   0.775736 0.224961 0.234015 0.410276
C86   C     C_R   0.595718 0.210741 0.215371 -0.047531
C87   C     C_R   0.764385 0.323086 0.357195 -0.084094
H24   H     H_    0.862135 0.293586 0.354886 0.152641
C88   C     C_R   0.773072 0.359301 0.392905 -0.273445
H25   H     H_    0.878549 0.357077 0.416989 0.159304
C89   C     C_R   0.644594 0.397420 0.398061 -0.134405
C90   C     C_R   0.505630 0.398780 0.366552 0.450019
C91   C     C_R   0.503000 0.363059 0.329973 -0.224053
H26   H     H_    0.403913 0.365997 0.304919 0.128004
C92   C     C_R   0.629947 0.324586 0.325119 0.079833
O19   O     O_R   0.699170 0.038480 0.960880 -0.510061
O20   O     O_R   0.366800 0.052460 0.047690 -0.555518
O21   O     O_R   0.193520 0.961530 0.039110 -0.550424
C93   C     C_R   0.535567 0.064596 0.063640 0.736525
O22   O     O_R   0.369630 0.044100 0.961740 -0.493653
O23   O     O_R   0.196370 0.953120 0.952550 -0.524314
C94   C     C_R   0.539142 0.054311 0.948171 0.840550
O24   O     O_R   0.696320 0.046890 0.047450 -0.523416
O25   O     O_3   0.528890 0.970170 0.997080 -0.393323
V3    V     V_3+5 0.255190 0.005530 0.000540 1.530298
O26   O     O_R   0.866460 0.947530 0.952310 -0.557217
C95   C     C_R   0.035520 0.935160 0.936578 0.737626
O27   O     O_R   0.863630 0.955880 0.038270 -0.540326
C96   C     C_R   0.031559 0.945742 0.051551 0.706767
V4    V     V_3+5 0.754830 0.994440 0.999470 1.485542
O28   O     O_3   0.031000 0.029830 0.002920 -0.342793
O29   O     O_3   0.289833 0.942089 0.867816 -0.572738
C97   C     C_3   0.484976 0.930164 0.870760 -0.194545
H27   H     H_    0.509130 0.910481 0.896922 0.140141
H28   H     H_    0.570903 0.963398 0.877888 0.139098
H29   H     H_    0.539214 0.909412 0.840366 0.135930
O30   O     O_3   0.366874 0.651013 0.572469 -0.554378
C98   C     C_3   0.552452 0.666229 0.587067 -0.228769
H30   H     H_    0.601037 0.649710 0.613814 0.128536
H31   H     H_    0.557570 0.705475 0.596253 0.139926
H32   H     H_    0.656949 0.655727 0.560893 0.149765
O31   O     O_3   0.945472 0.549477 0.635968 -0.513269
C99   C     C_3   0.744637 0.554307 0.633041 -0.047303
H33   H     H_    0.676517 0.519247 0.632804 0.177930
H34   H     H_    0.705106 0.565669 0.603098 0.086020
H35   H     H_    0.684351 0.579246 0.660581 0.160918
F1    F     F_    0.952166 0.614949 0.710067 -0.649495
O32   O     O_3   0.076608 0.881164 0.305559 -0.527100
C100  C     C_3   0.883874 0.893527 0.315689 -0.107978
H36   H     H_    0.788594 0.883251 0.287770 0.151158
H37   H     H_    0.875988 0.932593 0.325693 0.171644
H38   H     H_    0.830628 0.877412 0.342471 0.105897
O33   O     O_3   0.781322 0.891981 0.178146 -0.531171
C101  C     C_3   0.603035 0.872384 0.163343 -0.225230
H39   H     H_    0.617175 0.834552 0.147601 0.127695
H40   H     H_    0.536702 0.893542 0.141757 0.141815
H41   H     H_    0.504714 0.873501 0.190761 0.192318
O34   O     O_3   0.429512 0.630954 0.446580 -0.551624
C102  C     C_3   0.393220 0.673421 0.475370 -0.168522
H42   H     H_    0.254679 0.671212 0.492441 0.149235
H43   H     H_    0.394530 0.704740 0.459656 0.135940
H44   H     H_    0.509754 0.679100 0.499043 0.173599
O35   O     O_3   0.859834 0.597498 0.323427 -0.524982
C103  C     C_3   0.684950 0.617589 0.339689 -0.186044
H45   H     H_    0.699804 0.656574 0.350918 0.126351
H46   H     H_    0.629826 0.600117 0.365459 0.156482
H47   H     H_    0.576936 0.611794 0.314042 0.190242
F2    F     F_    0.786111 0.375460 0.801262 -0.545824
F3    F     F_    0.772522 0.319029 0.858655 -0.541183
O36   O     O_3   0.354127 0.401190 0.677964 -0.500854
C104  C     C_3   0.178468 0.379407 0.663684 -0.055206
H48   H     H_    0.194168 0.340404 0.653182 0.100891
H49   H     H_    0.117641 0.395515 0.637899 0.174930
H50   H     H_    0.074439 0.385200 0.690307 0.199868
F4    F     F_    0.373420 0.458259 0.618152 -0.644627
F5    F     F_    0.905269 0.367718 0.550973 -0.656397
O37   O     O_3   0.878669 0.063320 0.898068 -0.492597
C105  C     C_3   0.932652 0.033155 0.860068 -0.127408
H51   H     H_    0.806916 0.015046 0.842560 0.081355
H52   H     H_    0.026170 0.005163 0.867994 0.179006
H53   H     H_    0.017775 0.052921 0.839666 0.152163
F6    F     F_    0.225726 0.113427 0.933145 -0.588294
F7    F     F_    0.238932 0.169221 0.874034 -0.607811
O38   O     O_3   0.780328 0.054355 0.131978 -0.563695
C106  C     C_3   0.978127 0.065039 0.129601 -0.172346
H54   H     H_    0.009681 0.084851 0.103711 0.138138
H55   H     H_    0.058542 0.031282 0.122456 0.144286
H56   H     H_    0.032385 0.085131 0.160207 0.134590
O39   O     O_3   0.964112 0.287153 0.276572 -0.574166
C107  C     C_3   0.991417 0.322075 0.251473 -0.244761
H57   H     H_    0.874014 0.348691 0.256224 0.151891
H58   H     H_    0.004686 0.305582 0.217446 0.167529
H59   H     H_    0.126836 0.341646 0.260884 0.152087
O40   O     O_3   0.940759 0.201204 0.218617 -0.559311
C108  C     C_3   0.012658 0.177466 0.249926 -0.295899
H60   H     H_    0.898940 0.157081 0.263496 0.128219
H61   H     H_    0.083214 0.202683 0.275810 0.187282
H62   H     H_    0.122697 0.151725 0.235189 0.166294
O41   O     O_3   0.386892 0.437716 0.369515 -0.556889
C109  C     C_3   0.195213 0.423541 0.375088 -0.173146
H63   H     H_    0.104419 0.455670 0.381766 0.148848
H64   H     H_    0.180804 0.405291 0.402558 0.130654
H65   H     H_    0.138688 0.400592 0.345996 0.134685
O42   O     O_3   0.759433 0.696602 0.722965 -0.565933
C110  C     C_3   0.664722 0.678031 0.755366 -0.115363
H66   H     H_    0.578203 0.705620 0.775779 0.135299
H67   H     H_    0.766167 0.661745 0.775009 0.188243
H68   H     H_    0.563639 0.649781 0.740472 0.183428
O43   O     O_3   0.428578 0.797718 0.779950 -0.561045
C111  C     C_3   0.517029 0.818873 0.748368 -0.320938
H69   H     H_    0.411872 0.837420 0.731366 0.135563
H70   H     H_    0.598594 0.792355 0.725605 0.173484
H71   H     H_    0.621981 0.845858 0.763800 0.169146

loop_
_geom_bond_atom_site_label_1
_geom_bond_atom_site_label_2
_ccdc_geom_bond_type
C38   C39   A    
N2    C36   A    
N1    C48   S    
O35   C103  S    
C36   O14   S    
O24   V4    S    
C62   O18   S    
O27   V4    S    
C67   C68   A    
C23   N1    A    
C65   C66   A    
N4    C62   A    
C51   C54   A    
C1    O6    A    
C59   F2    S    
C82   H23   S    
C76   C77   A    
C72   C73   A    
O34   C102  S    
C79   H21   S    
C35   O13   S    
C101  H39   S    
C33   C34   A    
C107  H59   S    
C106  H54   S    
C11   H4    S    
C98   H30   S    
C49   O15   S    
C90   O41   S    
C17   C22   A    
O25   V4    S    
C72   F6    S    
C12   C13   A    
O22   C94   A    
C19   C20   A    
C91   C92   A    
C17   H6    S    
O22   V3    S    
C80   C93   S    
C52   C53   A    
C14   H5    S    
C79   C80   A    
C66   C67   A    
C30   C35   A    
C111  H70   S    
O43   C111  S    
C13   C22   S    
C5    C6    A    
C77   C86   S    
C43   H13   S    
C56   C61   A    
C40   C41   A    
C76   H19   S    
C110  H66   S    
C24   O12   S    
C58   C62   A    
C63   O36   S    
O21   C96   A    
O8    V2    S    
V4    O28   S    
C109  H63   S    
C81   C86   A    
C39   C40   A    
C50   O16   S    
C28   C29   A    
C23   C27   A    
C104  H48   S    
O1    V2    S    
C14   C15   A    
O7    V1    S    
C17   C18   A    
N2    C42   S    
C58   C59   A    
C25   C28   A    
C29   O32   S    
C55   C56   A    
C100  H37   S    
C38   H11   S    
C84   O39   S    
O25   V3    S    
C98   H31   S    
C93   O24   A    
C8    H2    S    
C43   C44   A    
C44   O34   S    
O23   C95   A    
C21   F1    S    
C83   C92   S    
C64   C65   A    
O19   V4    S    
C54   H15   S    
C45   C46   A    
C105  H52   S    
C40   H12   S    
C90   C91   A    
V3    O28   S    
O27   C96   A    
O7    V2    S    
O41   C109  S    
C32   C33   A    
C97   H29   S    
C71   C94   S    
C75   O38   S    
C91   H26   S    
C61   O17   S    
C88   C89   A    
N4    C68   S    
C101  H40   S    
C21   C22   A    
O4    C2    A    
C6    H1    S    
C87   C88   A    
C66   F5    S    
C108  H62   S    
C107  H57   S    
C46   H14   S    
C47   O35   S    
C110  H68   S    
C49   N3    A    
C103  H45   S    
C32   C36   A    
C41   O33   S    
O2    C1    A    
C44   C45   A    
C103  H46   S    
O38   C106  S    
C13   C14   A    
C53   C60   A    
C87   C92   A    
O40   C108  S    
C11   C16   A    
O29   C97   S    
C106  H56   S    
O19   C94   A    
C52   C57   A    
O39   C107  S    
C7    C8    A    
C104  H50   S    
C110  H67   S    
C31   C32   A    
C46   C47   A    
C61   N4    A    
C69   H18   S    
O31   C99   S    
C51   C52   A    
C108  H61   S    
C12   O42   S    
C37   C38   A    
C78   H20   S    
C55   H16   S    
O3    C4    A    
C102  H42   S    
C7    C16   S    
O20   C93   A    
C100  H36   S    
C109  H64   S    
C106  H55   S    
C30   C31   A    
O6    V2    S    
O9    V2    S    
C3    C45   S    
C50   C51   A    
C60   F3    S    
C107  H58   S    
N1    C24   A    
C70   O37   S    
C67   H17   S    
C102  H43   S    
C84   C85   A    
O2    V1    S    
C69   C74   A    
O42   C110  S    
O33   C101  S    
C20   O31   S    
C18   O30   S    
C71   C72   A    
C15   O43   S    
C105  H53   S    
C105  H51   S    
C35   N2    A    
O30   C98   S    
C81   C82   A    
C101  H41   S    
C73   F7    S    
C10   C95   S    
O1    C2    A    
C25   C26   A    
O23   V3    S    
C88   H25   S    
C39   C96   S    
C82   C83   A    
O5    V1    S    
C2    C89   S    
O8    C3    A    
C87   H24   S    
C64   F4    S    
C70   C71   A    
C98   H32   S    
C1    C65   S    
C11   C12   A    
C63   C68   A    
C49   C53   A    
C5    C10   A    
C15   C16   A    
C100  H38   S    
C102  H44   S    
C8    C9    A    
C83   C84   A    
O26   C95   A    
C103  H47   S    
C23   O11   S    
O4    V1    S    
O20   V3    S    
O32   C100  S    
C33   H8    S    
C75   C76   A    
C97   H27   S    
C4    C19   S    
O5    C3    A    
N3    C74   S    
C34   H9    S    
C57   C58   A    
C20   C21   A    
V1    O10   S    
C99   H34   S    
C26   C31   A    
C24   C25   A    
C81   H22   S    
C29   C30   A    
C111  H69   S    
C27   C34   A    
C59   C60   A    
C43   C48   A    
C85   O40   S    
C85   C86   A    
C6    C7    A    
C9    C10   A    
O26   V4    S    
O36   C104  S    
C5    O29   S    
C69   C70   A    
C78   C79   A    
O21   V3    S    
C89   C90   A    
C37   H10   S    
C9    H3    S    
C28   H7    S    
C47   C48   A    
C26   C27   A    
C41   C42   A    
C109  H65   S    
O37   C105  S    
C54   C55   A    
C18   C19   A    
N3    C50   A    
C99   H33   S    
C111  H71   S    
C63   C64   A    
O3    V1    S    
C77   C78   A    
C104  H49   S    
C73   C74   A    
C56   C57   A    
O9    C4    A    
C75   C80   A    
C108  H60   S    
V2    O10   S    
C37   C42   A    
C97   H28   S    
C99   H35   S    
