data_mof_unit_27440.cif
_audit_creation_date              2013-03-05T15:53:17-0500
_audit_creation_method            fapswitch 2.2
_symmetry_space_group_name_H-M    P1
_symmetry_Int_Tables_number       1
_space_group_crystal_system       triclinic
_cell_length_a                    11.536748
_cell_length_b                    10.632981
_cell_length_c                    9.936913
_cell_angle_alpha                 89.892761
_cell_angle_beta                  89.972338
_cell_angle_gamma                 91.734708
_cell_volume                      1218.40038472

loop_
_atom_site_label
_atom_site_type_symbol
_atom_site_description
_atom_site_fract_x
_atom_site_fract_y
_atom_site_fract_z
_atom_type_partial_charge
O1    O     O_R   0.500000 0.316780 0.614690 -0.633463
O2    O     O_R   0.499990 0.316750 0.385360 -0.635119
C1    C     C_R   0.503129 0.260767 0.500172 0.858871
O3    O     O_R   0.334450 0.500030 0.614670 -0.616136
O4    O     O_R   0.334440 0.500000 0.385330 -0.632406
C2    C     C_R   0.282091 0.499556 0.500044 0.903681
Zn1   Zn    Zn3+2 0.500010 0.500020 0.653130 0.953563
Zn2   Zn    Zn3+2 0.499990 0.499980 0.346870 0.947750
O5    O     O_R   0.500010 0.683250 0.614640 -0.609890
O6    O     O_R   0.500000 0.683220 0.385310 -0.615435
O7    O     O_R   0.665560 0.500000 0.614670 -0.621342
O8    O     O_R   0.665550 0.499970 0.385330 -0.605299
C3    C     C_R   0.503503 0.739414 0.499857 0.868376
C4    C     C_R   0.717913 0.500352 0.499989 0.872552
C5    C     C_1   0.161567 0.499152 0.500173 -0.150304
C6    C     C_1   0.059335 0.499076 0.500255 0.033369
C7    C     C_1   0.940622 0.499389 0.500207 0.028480
C8    C     C_1   0.838409 0.499855 0.500063 -0.171070
H1    H     H_    0.356449 0.109465 0.378022 0.147972
C9    C     C_R   0.694770 0.137061 0.630030 -0.264140
H2    H     H_    0.700349 0.238663 0.628569 0.179208
C10   C     C_R   0.783944 0.074343 0.693685 -0.213983
H3    H     H_    0.854526 0.128086 0.739782 0.188116
C11   C     C_R   0.783276 0.942807 0.695934 0.587806
C12   C     C_R   0.694883 0.874948 0.629694 -0.285860
H4    H     H_    0.700283 0.773634 0.627427 0.164420
C13   C     C_R   0.602701 0.937299 0.566751 0.020639
C14   C     C_R   0.602484 0.069105 0.567165 0.098037
C15   C     C_R   0.511208 0.128678 0.500170 -0.060802
C16   C     C_R   0.425243 0.061886 0.430046 -0.172161
H5    H     H_    0.356877 0.881473 0.377339 0.160211
C17   C     C_R   0.425515 0.933426 0.429593 -0.176668
C18   C     C_R   0.511679 0.872030 0.499366 -0.069276
H6    H     H_    0.629457 0.642384 0.124499 0.143756
C19   C     C_R   0.348806 0.334359 0.139947 -0.217851
H7    H     H_    0.343199 0.329457 0.246678 0.217540
C20   C     C_R   0.274530 0.252111 0.070493 -0.278161
H8    H     H_    0.217325 0.189224 0.127282 0.194208
C21   C     C_R   0.273566 0.250901 0.930272 0.329073
C22   C     C_R   0.348798 0.334011 0.860741 -0.238019
H9    H     H_    0.344943 0.330814 0.754119 0.236665
C23   C     C_R   0.425574 0.418140 0.928098 0.115833
C24   C     C_R   0.425589 0.418265 0.072342 0.183835
N1    N     N_R   0.498930 0.498800 0.142780 -0.112436
C25   C     C_R   0.571222 0.578294 0.071194 -0.103152
H10   H     H_    0.629387 0.642339 0.874488 0.142987
C26   C     C_R   0.571197 0.578270 0.928235 -0.091195
N2    N     N_R   0.498900 0.498720 0.857170 -0.108927
N3    N     N_R   0.196248 0.165800 0.858392 0.218479
O9    O     O_R   0.125471 0.089751 0.923313 -0.402494
O10   O     O_R   0.195868 0.163336 0.727414 -0.407649
O11   O     O_3   0.873662 0.879243 0.753031 -0.590058
C27   C     C_3   0.862298 0.883625 0.894231 -0.225158
H11   H     H_    0.776664 0.843519 0.927787 0.121063
H12   H     H_    0.875507 0.981258 0.932643 0.183405
H13   H     H_    0.930382 0.825513 0.939623 0.208561

loop_
_geom_bond_atom_site_label_1
_geom_bond_atom_site_label_2
_geom_bond_distance
_ccdc_geom_bond_type
C11   O11   1.381256 S    
O4    Zn2   1.947597 S    
Zn1   O7    1.947594 S    
C24   N1    1.377708 A    
C3    C18   1.410401 S    
C20   H8    1.082873 S    
C12   C13   1.415450 A    
C19   C24   1.407577 A    
C4    C8    1.390303 S    
H5    C17   1.084804 S    
Zn2   O8    1.948066 S    
Zn1   N2    2.027581 S    
C9    H2    1.080371 S    
N3    O10   1.301846 A    
C22   C23   1.409816 A    
O2    C1    1.286878 A    
C2    C5    1.390333 S    
C20   C21   1.393489 A    
H6    C25   1.081814 S    
C23   N2    1.378312 A    
C27   H11   1.114764 S    
C11   C12   1.397025 A    
C16   C17   1.366028 A    
Zn2   N1    2.028127 S    
C15   C16   1.390461 A    
O11   C27   1.410125 S    
O3    Zn1   1.948068 S    
Zn2   O6    1.986175 S    
C14   C15   1.411661 A    
C19   C20   1.390286 A    
O8    C4    1.289813 A    
C7    C8    1.179371 T    
C27   H12   1.112921 S    
O4    C2    1.289682 A    
O7    C4    1.289429 A    
C10   C11   1.398552 A    
C27   H13   1.109460 S    
C23   C24   1.433345 A    
C5    C6    1.179403 T    
Zn1   O5    1.984766 S    
C21   C22   1.400828 A    
N1    C25   1.367676 A    
O3    C2    1.289495 A    
N3    O9    1.301670 A    
C25   C26   1.420573 A    
O2    Zn2   1.984766 S    
C13   C14   1.401586 A    
C1    C15   1.410399 S    
O5    C3    1.286526 A    
H10   C26   1.081953 S    
C22   H9    1.061014 S    
C9    C14   1.414783 A    
C21   N3    1.441800 S    
C12   H4    1.081234 S    
O1    Zn1   1.986175 S    
H1    C16   1.084807 S    
O6    C3    1.286621 A    
C10   H3    1.082866 S    
C13   C18   1.411021 A    
C26   N2    1.367451 A    
C17   C18   1.390431 A    
C9    C10   1.394200 A    
C6    C7    1.369659 S    
O1    C1    1.286379 A    
C19   H7    1.063603 S    
