data_mof_unit_6861.cif
_audit_creation_date              2013-03-05T15:42:20-0500
_audit_creation_method            fapswitch 2.2
_symmetry_space_group_name_H-M    P1
_symmetry_Int_Tables_number       1
_space_group_crystal_system       triclinic
_cell_length_a                    7.74202
_cell_length_b                    8.583021
_cell_length_c                    18.907357
_cell_angle_alpha                 90.656642
_cell_angle_beta                  86.394308
_cell_angle_gamma                 93.488592
_cell_volume                      1251.54500206

loop_
_atom_site_label
_atom_site_type_symbol
_atom_site_description
_atom_site_fract_x
_atom_site_fract_y
_atom_site_fract_z
_atom_type_partial_charge
O1    O     O_R   0.389250 0.738570 0.504600 -0.613441
O2    O     O_R   0.610750 0.261430 0.495400 -0.612244
O3    O     O_R   0.678400 0.711620 0.492580 -0.625013
O4    O     O_R   0.321600 0.288380 0.507420 -0.623220
C1    C     C_R   0.545772 0.794803 0.498179 0.956465
C2    C     C_R   0.454228 0.205195 0.501821 0.964610
O5    O     O_R   0.355380 0.513500 0.607880 -0.593382
O6    O     O_R   0.644620 0.486500 0.392120 -0.599587
O7    O     O_R   0.644530 0.486550 0.595850 -0.578188
O8    O     O_R   0.355470 0.513450 0.404150 -0.579569
C3    C     C_R   0.503981 0.503480 0.635238 0.884164
C4    C     C_R   0.497174 0.502789 0.364694 0.888631
Zn1   Zn    Zn3+2 0.306930 0.517990 0.508030 1.033968
Zn2   Zn    Zn3+2 0.693070 0.482010 0.491970 1.030618
C5    C     C_R   0.360089 0.545709 0.753225 -0.173346
C6    C     C_R   0.655071 0.543201 0.248308 -0.171881
H1    H     H_    0.235565 0.518370 0.731625 0.238717
H2    H     H_    0.773507 0.513160 0.270892 0.241194
C7    C     C_R   0.362575 0.596647 0.822973 -0.137628
C8    C     C_R   0.665003 0.595043 0.178924 -0.133293
C9    C     C_R   0.520673 0.634299 0.853019 0.013033
C10   C     C_R   0.515338 0.636635 0.147675 0.011657
C11   C     C_R   0.676349 0.620497 0.812196 -0.208390
C12   C     C_R   0.355623 0.626027 0.186994 -0.214640
H3    H     H_    0.799774 0.646511 0.835099 0.179051
H4    H     H_    0.237887 0.654031 0.163082 0.180568
C13   C     C_R   0.675729 0.568030 0.742174 0.337341
C14   C     C_R   0.343543 0.571909 0.256422 0.340137
C15   C     C_R   0.515222 0.532496 0.711597 -0.184214
C16   C     C_R   0.495812 0.532821 0.288330 -0.185203
N1    N     N_R   0.674075 0.665598 0.961779 -0.165739
N2    N     N_R   0.372260 0.682025 0.038897 -0.165668
N3    N     N_R   0.673001 0.666255 0.031997 -0.165566
N4    N     N_R   0.373295 0.681184 0.968701 -0.165212
C17   C     C_R   0.521486 0.670356 0.071818 0.323991
C18   C     C_R   0.523685 0.668803 0.928894 0.323300
C19   C     C_2   0.570001 0.958109 0.497147 -0.346879
C20   C     C_2   0.429998 0.041877 0.502845 -0.348863
H5    H     H_    0.702316 0.008907 0.491722 0.190063
H6    H     H_    0.297684 0.991074 0.508270 0.190908
N5    N     N_2   0.950330 0.457950 0.481240 -0.140319
N6    N     N_2   0.049670 0.542050 0.518760 -0.137273
H7    H     H_    0.013072 0.379114 0.449027 0.229968
H8    H     H_    0.986786 0.620277 0.551289 0.231442
H9    H     H_    0.240241 0.603696 0.853590 0.174019
H10   H     H_    0.789851 0.599854 0.149528 0.175629
N7    N     N_R   0.839062 0.552499 0.703574 0.190465
O9    O     O_R   0.953499 0.670130 0.700466 -0.435657
O10   O     O_R   0.886585 0.414344 0.684828 -0.391806
N8    N     N_R   0.175399 0.554276 0.292556 0.202585
O11   O     O_R   0.112405 0.415950 0.311444 -0.420784
O12   O     O_R   0.073609 0.669577 0.294367 -0.415522

loop_
_geom_bond_atom_site_label_1
_geom_bond_atom_site_label_2
_geom_bond_distance
_ccdc_geom_bond_type
N8    O12   1.300894 A    
O7    Zn2   1.976765 S    
N1    N3    1.327085 A    
C19   C20   1.334828 D    
C11   C13   1.393741 A    
C13   C15   1.418315 A    
N5    H7    1.028646 S    
N5    N6    1.266937 D    
N7    O9    1.301420 A    
O6    C4    1.298877 A    
C6    C8    1.386163 A    
C4    C16   1.470367 S    
C14   C16   1.417209 A    
N8    O11   1.300892 A    
C19   H5    1.087856 S    
C9    C18   1.462853 S    
O5    C3    1.298637 A    
C10   C17   1.463680 S    
O7    C3    1.294064 A    
O2    C2    1.275860 A    
O3    Zn2   1.980765 S    
N6    H8    1.028961 S    
Zn2   N5    2.012211 S    
O1    C1    1.275858 A    
O8    C4    1.294676 A    
O4    C2    1.284182 A    
Zn1   N6    2.012212 S    
N3    C17   1.355524 A    
C8    C10   1.400145 A    
C5    C15   1.403745 A    
N4    C18   1.355143 A    
C9    C11   1.400247 A    
O2    Zn2   1.961001 S    
C10   C12   1.400770 A    
O1    Zn1   1.961000 S    
C1    C19   1.402989 S    
C6    C16   1.404153 A    
N2    C17   1.355804 A    
O5    Zn1   1.949061 S    
C11   H3    1.083664 S    
C3    C15   1.469325 S    
N7    O10   1.301594 A    
C13   N7    1.432354 S    
O4    Zn1   1.980765 S    
C5    H1    1.082165 S    
N1    C18   1.355860 A    
O6    Zn2   1.949063 S    
C7    C9    1.400158 A    
C2    C20   1.403089 S    
C5    C7    1.385475 A    
C14   N8    1.432056 S    
C20   H6    1.087868 S    
C6    H2    1.081716 S    
C8    H10   1.083046 S    
C7    H9    1.083060 S    
C12   C14   1.393180 A    
C12   H4    1.083520 S    
O3    C1    1.284171 A    
O8    Zn1   1.976768 S    
N2    N4    1.326677 A    
