data_mof_unit_5199.cif
_audit_creation_date              2012-12-11T15:11:45-0500
_audit_creation_method            fapswitch 2.2
_symmetry_space_group_name_H-M    P1
_symmetry_Int_Tables_number       1
_space_group_crystal_system       triclinic
_cell_length_a                    19.796214
_cell_length_b                    7.259408
_cell_length_c                    14.434414
_cell_angle_alpha                 91.002357
_cell_angle_beta                  102.849818
_cell_angle_gamma                 89.003002
_cell_volume                      2021.89921592

loop_
_atom_site_label
_atom_site_type_symbol
_atom_type_description
_atom_site_fract_x
_atom_site_fract_y
_atom_site_fract_z
_atom_type_partial_charge
O1    O     O_R   0.449830 0.506740 0.599960 -0.535472
O2    O     O_R   0.550170 0.006740 0.400040 -0.540992
O3    O     O_R   0.588980 0.179860 0.596720 -0.525401
O4    O     O_R   0.411020 0.679860 0.403280 -0.521590
C1    C     C_R   0.616678 0.341180 0.616191 0.818651
C2    C     C_R   0.383035 0.842390 0.384724 0.807569
O5    O     O_R   0.452740 0.177340 0.612040 -0.530762
O6    O     O_R   0.547260 0.677340 0.387960 -0.536910
O7    O     O_R   0.412960 0.002070 0.415460 -0.530712
O8    O     O_R   0.587040 0.502070 0.584540 -0.525097
C3    C     C_R   0.434213 0.347235 0.632675 0.741598
C4    C     C_R   0.565212 0.843373 0.366531 0.735390
O9    O     O_3   0.487110 0.337570 0.435490 -0.371879
O10   O     O_3   0.512890 0.837570 0.564510 -0.365187
V1    V     V_3+5 0.502390 0.064650 0.511970 1.662671
V2    V     V_3+5 0.497610 0.564650 0.488030 1.669012
C5    C     C_R   0.617365 0.723054 0.143835 -0.063053
C6    C     C_R   0.388510 0.359524 0.867372 -0.049925
C7    C     C_R   0.605901 0.839101 0.295090 -0.053031
C8    C     C_R   0.393125 0.360177 0.703577 -0.055068
C9    C     C_R   0.935851 0.951497 0.307658 0.224162
C10   C     C_R   0.061495 0.435728 0.691469 0.220938
C11   C     C_R   0.903721 0.952818 0.383752 -0.097345
C12   C     C_R   0.096979 0.475941 0.621727 -0.082372
C13   C     C_R   0.835593 0.896299 0.373040 0.275029
C14   C     C_R   0.168617 0.459905 0.638962 0.276286
C15   C     C_R   0.795253 0.851070 0.281063 0.005956
C16   C     C_R   0.206360 0.379280 0.723815 0.013258
C17   C     C_R   0.831537 0.829345 0.205559 -0.061504
C18   C     C_R   0.169386 0.336387 0.795304 -0.062972
C19   C     C_R   0.721172 0.827913 0.258974 0.071798
C20   C     C_R   0.280338 0.361648 0.745718 0.059502
C21   C     C_R   0.688059 0.766258 0.166614 0.034313
C22   C     C_R   0.315780 0.344283 0.841486 0.041431
C23   C     C_R   0.723824 0.765098 0.094875 0.329769
C24   C     C_R   0.278124 0.307107 0.909165 0.349127
C25   C     C_R   0.794534 0.783923 0.114057 -0.135097
C26   C     C_R   0.207010 0.290283 0.885797 -0.145701
C27   C     C_R   0.676777 0.879710 0.319760 -0.119290
C28   C     C_R   0.320678 0.354558 0.676633 -0.112754
C29   C     C_R   0.577047 0.755833 0.208500 -0.107635
C30   C     C_R   0.426565 0.371808 0.798535 -0.120645
C31   C     C_R   0.902652 0.873934 0.219693 -0.110869
C32   C     C_R   0.096557 0.363489 0.779389 -0.110479
C33   C     C_3   0.236891 0.679256 0.161824 0.470180
C34   C     C_3   0.761192 0.206705 0.848513 0.456491
C35   C     C_3   0.301990 0.654958 0.249139 0.442295
C36   C     C_3   0.691567 0.185827 0.767896 0.461250
H1    H     H_    0.254798 0.748543 0.414598 0.240373
H2    H     H_    0.743963 0.160117 0.602424 0.233676
C37   C     C_3   0.180238 0.844335 0.288296 0.114860
C38   C     C_3   0.819329 0.305577 0.711798 0.118335
C39   C     C_3   0.234838 0.021674 0.180610 -0.385503
C40   C     C_3   0.770848 0.537803 0.807417 -0.399965
C41   C     C_3   0.190154 0.847476 0.183685 -0.247046
C42   C     C_3   0.810658 0.349702 0.815455 -0.250821
C43   C     C_3   0.313444 0.839790 0.312029 -0.280956
C44   C     C_3   0.686895 0.336645 0.688572 -0.287172
C45   C     C_3   0.250945 0.858018 0.362383 0.013056
C46   C     C_3   0.748502 0.296234 0.638182 -0.020510
C47   C     C_3   0.309395 0.003094 0.245392 0.182289
C48   C     C_3   0.699332 0.525123 0.736465 0.187675
O11   O     O_R   0.912980 0.203550 0.915410 -0.500549
O12   O     O_R   0.087020 0.703550 0.084590 -0.502982
O13   O     O_R   0.047270 0.535570 0.887960 -0.526830
O14   O     O_R   0.952730 0.035570 0.112040 -0.525215
C49   C     C_R   0.061053 0.367060 0.860353 0.748896
C50   C     C_R   0.938625 0.870609 0.139381 0.753129
O15   O     O_R   0.911030 0.532970 0.903270 -0.541221
O16   O     O_R   0.088970 0.032970 0.096730 -0.539044
O17   O     O_R   0.949820 0.708150 0.099970 -0.542244
O18   O     O_R   0.050180 0.208150 0.900030 -0.544537
C51   C     C_R   0.882938 0.364396 0.884571 0.792330
C52   C     C_R   0.117769 0.863390 0.114048 0.775896
O19   O     O_3   0.012900 0.375230 0.064480 -0.360785
O20   O     O_3   0.987100 0.875230 0.935520 -0.362960
V3    V     V_3+5 0.997610 0.648190 0.988040 1.660734
V4    V     V_3+5 0.002390 0.148190 0.011960 1.667630
H3    H     H_    0.523068 0.717188 0.190801 0.191992
H4    H     H_    0.482327 0.382057 0.819438 0.192233
Br1   Br    Br    0.262734 0.726717 0.039825 -0.434823
Br2   Br    Br    0.743843 0.290891 0.972030 -0.447436
Br3   Br    Br    0.385402 0.563147 0.208817 -0.340747
Br4   Br    Br    0.607192 0.168904 0.817640 -0.333947
Br5   Br    Br    0.288904 0.455402 0.332994 -0.445298
Br6   Br    Br    0.688810 0.951176 0.703006 -0.441849
Br7   Br    Br    0.123542 0.641041 0.313540 -0.342185
Br8   Br    Br    0.878671 0.091808 0.701652 -0.356214
H5    H     H_    0.208839 0.135517 0.211002 0.241551
H6    H     H_    0.802149 0.641549 0.780535 0.240043
H7    H     H_    0.235725 0.059538 0.107244 0.256374
H8    H     H_    0.764541 0.590035 0.877420 0.264052
Br9   Br    Br    0.390124 0.000909 0.187653 -0.372567
Br10  Br    Br    0.618973 0.604198 0.786784 -0.350871
H9    H     H_    0.318822 0.127346 0.289433 0.224830
H10   H     H_    0.701538 0.614714 0.677021 0.214768
H11   H     H_    0.149372 0.968333 0.298127 0.208140
H12   H     H_    0.846986 0.422358 0.690978 0.212118
Br11  Br    Br    0.674326 0.827563 0.972916 -0.346682
Br12  Br    Br    0.321977 0.279595 0.035484 -0.389925
Br13  Br    Br    0.253010 0.073726 0.445145 -0.453381
Br14  Br    Br    0.746385 0.448643 0.527826 -0.463603
H13   H     H_    0.592894 0.662722 0.075731 0.191743
H14   H     H_    0.417193 0.358499 0.940391 0.200199
H15   H     H_    0.694472 0.955841 0.384668 0.169380
H16   H     H_    0.296888 0.337168 0.602277 0.199866
Br15  Br    Br    0.023599 0.069461 0.328260 -0.425023
Br16  Br    Br    0.968626 0.527105 0.669027 -0.432046
Br17  Br    Br    0.809508 0.863864 0.491502 -0.400734
Br18  Br    Br    0.209087 0.617577 0.562235 -0.452936
H17   H     H_    0.932476 0.999050 0.452873 0.212839
H18   H     H_    0.069331 0.543598 0.557768 0.213134
H19   H     H_    0.819048 0.778623 0.054500 0.164388
H20   H     H_    0.181433 0.254989 0.941739 0.159976
Br19  Br    Br    0.188446 0.448031 0.129013 -0.448209
Br20  Br    Br    0.806212 0.967351 0.884457 -0.444623

loop_
_geom_bond_atom_site_label_1
_geom_bond_atom_site_label_2
_ccdc_geom_bond_type
C37   H11   S    
O14   C50   A    
C44   C48   S    
C48   H10   S    
O16   V4    S    
O12   V3    S    
O15   V3    S    
O1    C3    A    
O2    C4    A    
C2    O7    A    
C10   Br16  S    
C30   H4    S    
C1    C44   S    
C35   Br5   S    
C10   C12   A    
C23   C25   A    
O20   V4    S    
C40   H6    S    
C6    C30   A    
C8    C28   A    
C47   Br9   S    
C43   C45   S    
C25   H19   S    
C44   C46   S    
C15   C17   A    
C18   C26   A    
C49   O18   A    
O18   V4    S    
C38   C46   S    
C9    C31   A    
C41   C52   S    
C39   C47   S    
C10   C32   A    
C19   C27   A    
C31   C50   S    
O13   C49   A    
C12   H18   S    
O16   C52   A    
C19   C21   A    
O15   C51   A    
C35   Br3   S    
C14   Br18  S    
C37   C41   S    
C13   Br17  S    
C33   C35   S    
O6    V2    S    
C34   Br2   S    
C17   C31   A    
C2    C43   S    
C18   C32   A    
C5    C21   A    
C46   Br14  S    
C34   C36   S    
C39   C41   S    
O14   V4    S    
C40   C42   S    
C3    C8    S    
O13   V3    S    
C15   C19   A    
C45   Br13  S    
C38   Br8   S    
O20   V3    S    
O4    C2    A    
C37   Br7   S    
O5    V1    S    
C40   C48   S    
C36   Br4   S    
C20   C22   A    
O4    V2    S    
O5    C3    A    
O11   C51   A    
C40   H8    S    
C35   C43   S    
O19   V3    S    
C33   Br19  S    
C16   C20   A    
O6    C4    A    
C24   Br12  S    
O1    V2    S    
C6    H14   S    
C36   C44   S    
O2    V1    S    
C6    C22   A    
C9    Br15  S    
C7    C27   A    
C39   H7    S    
C9    C11   A    
C39   H5    S    
C36   Br6   S    
C37   C45   S    
C17   C25   A    
C24   C26   A    
O17   V3    S    
O3    V1    S    
C28   H16   S    
C27   H15   S    
C42   C51   S    
C33   Br1   S    
C12   C14   A    
O3    C1    A    
C29   H3    S    
C8    C30   A    
C47   H9    S    
C43   C47   S    
C13   C15   A    
C23   Br11  S    
C11   H17   S    
C14   C16   A    
H1    C45   S    
C34   Br20  S    
H2    C46   S    
C48   Br10  S    
C5    H13   S    
C1    O8    A    
O8    V2    S    
C50   O17   A    
C26   H20   S    
C4    C7    S    
C38   H12   S    
C21   C23   A    
C16   C18   A    
C22   C24   A    
C20   C28   A    
O7    V1    S    
O19   V4    S    
C5    C29   A    
C7    C29   A    
C11   C13   A    
C33   C41   S    
O9    V2    S    
C34   C42   S    
O12   C52   A    
O10   V1    S    
C32   C49   S    
C38   C42   S    
O11   V4    S    
