data_mof_unit_25302.cif
_audit_creation_date              2013-03-05T16:32:59-0500
_audit_creation_method            fapswitch 2.2
_symmetry_space_group_name_H-M    P1
_symmetry_Int_Tables_number       1
_space_group_crystal_system       triclinic
_cell_length_a                    23.477511
_cell_length_b                    10.839302
_cell_length_c                    9.519096
_cell_angle_alpha                 90.002469
_cell_angle_beta                  90.128885
_cell_angle_gamma                 89.57461
_cell_volume                      2422.34505614

loop_
_atom_site_label
_atom_site_type_symbol
_atom_site_description
_atom_site_fract_x
_atom_site_fract_y
_atom_site_fract_z
_atom_type_partial_charge
O1    O     O_R   0.500000 0.319640 0.618810 -0.559064
O2    O     O_R   0.500010 0.319680 0.381230 -0.585629
C1    C     C_R   0.503948 0.262431 0.499223 0.824171
O3    O     O_R   0.417880 0.499940 0.618820 -0.591514
O4    O     O_R   0.417880 0.499980 0.381240 -0.592404
C2    C     C_R   0.391014 0.500388 0.499839 0.774315
Cu1   Cu    Cu3+1 0.500000 0.499980 0.640670 0.990824
Cu2   Cu    Cu3+1 0.500000 0.500020 0.359330 0.944222
O5    O     O_R   0.499990 0.680320 0.618770 -0.567271
O6    O     O_R   0.500000 0.680360 0.381190 -0.576486
O7    O     O_R   0.582120 0.500020 0.618760 -0.537389
O8    O     O_R   0.582120 0.500060 0.381180 -0.593595
C3    C     C_R   0.497674 0.737975 0.499161 0.858519
C4    C     C_R   0.608741 0.501527 0.500215 0.881888
C5    C     C_R   0.878519 0.551370 0.377457 0.534603
N1    N     N_R   0.850677 0.519478 0.498018 -0.464689
C6    C     C_R   0.879682 0.484115 0.616203 0.540578
C7    C     C_R   0.939419 0.480830 0.616404 -0.010030
C8    C     C_R   0.969010 0.514642 0.493461 -0.017615
C9    C     C_R   0.938312 0.550077 0.373143 -0.053539
C10   C     C_R   0.970007 0.443856 0.735998 -0.176168
C11   C     C_R   0.029213 0.439674 0.733687 -0.180780
C12   C     C_R   0.059192 0.474019 0.612398 0.007482
C13   C     C_R   0.029227 0.512526 0.491169 -0.046579
C14   C     C_R   0.059225 0.548140 0.368479 -0.048490
C15   C     C_R   0.027335 0.579676 0.244966 0.137907
C16   C     C_R   0.967595 0.581495 0.250675 -0.186132
C17   C     C_R   0.118679 0.469707 0.609792 0.526257
N2    N     N_R   0.147689 0.509302 0.494031 -0.462114
C18   C     C_R   0.119605 0.551103 0.376528 0.523221
O9    O     O_2   0.848338 0.584201 0.262369 -0.522364
O10   O     O_2   0.850741 0.451934 0.732763 -0.504071
H1    H     H_    0.948334 0.417440 0.831609 0.188538
H2    H     H_    0.051433 0.410022 0.827796 0.179084
O11   O     O_2   0.147438 0.425427 0.722182 -0.551288
O12   O     O_2   0.150431 0.598500 0.270650 -0.556427
H3    H     H_    0.943735 0.606942 0.157282 0.190914
C19   C     C_R   0.239242 0.568766 0.601956 -0.096102
H4    H     H_    0.216634 0.619874 0.682406 0.151864
C20   C     C_R   0.298621 0.564733 0.604768 -0.230013
H5    H     H_    0.321117 0.612577 0.687733 0.141208
C21   C     C_R   0.328639 0.502081 0.499065 -0.029658
C22   C     C_R   0.298678 0.442059 0.391689 -0.225851
H6    H     H_    0.321200 0.392733 0.309598 0.153920
C23   C     C_R   0.239302 0.443008 0.391261 -0.101550
H7    H     H_    0.216712 0.393999 0.309426 0.151325
C24   C     C_R   0.209094 0.507093 0.495792 0.346067
C25   C     C_R   0.761708 0.408427 0.471301 -0.085208
H8    H     H_    0.786126 0.325545 0.449194 0.156287
C26   C     C_R   0.702674 0.403361 0.472686 -0.228177
H9    H     H_    0.681962 0.316309 0.452352 0.161146
C27   C     C_R   0.670665 0.509370 0.501250 -0.148642
C28   C     C_R   0.697841 0.622404 0.528860 0.300296
C29   C     C_R   0.758028 0.627897 0.528861 0.088843
C30   C     C_R   0.789627 0.519306 0.499059 0.290071
C31   C     C_R   0.514833 0.061613 0.619435 0.146989
C32   C     C_R   0.512114 0.129114 0.495023 -0.159112
C33   C     C_R   0.515167 0.062980 0.365983 0.096673
C34   C     C_R   0.496934 0.939063 0.365912 0.107082
C35   C     C_R   0.499237 0.872068 0.495107 -0.141954
C36   C     C_R   0.511826 0.935079 0.619013 0.185374
C37   C     C_3   0.480455 0.934696 0.755992 -0.494731
C38   C     C_3   0.483992 0.074522 0.755316 -0.452671
H10   H     H_    0.436203 0.899777 0.745739 0.187359
H11   H     H_    0.505913 0.891245 0.841594 0.218410
H12   H     H_    0.441802 0.120733 0.743608 0.197639
H13   H     H_    0.511675 0.111616 0.840067 0.224451
C39   C     C_R   0.543360 0.446212 0.074167 0.171801
N3    N     N_R   0.500360 0.500930 0.147930 -0.178931
C40   C     C_R   0.455278 0.548855 0.074163 -0.079213
H14   H     H_    0.419723 0.589722 0.129600 0.150271
C41   C     C_R   0.455372 0.549281 0.925294 -0.078392
H15   H     H_    0.419969 0.590888 0.869506 0.138142
N4    N     N_R   0.500360 0.500890 0.852020 -0.206700
C42   C     C_R   0.543101 0.444954 0.926331 0.213516
C43   C     C_3   0.604802 0.478885 0.921176 0.121621
C44   C     C_3   0.604680 0.481519 0.080315 -0.519940
H16   H     H_    0.612861 0.570107 0.872000 0.162090
H17   H     H_    0.631723 0.409191 0.130055 0.219779
H18   H     H_    0.610908 0.575832 0.123464 0.209826
N5    N     N_R   0.664352 0.731699 0.552411 0.096559
O13   O     O_R   0.632649 0.741161 0.663808 -0.385467
O14   O     O_R   0.661112 0.816283 0.455737 -0.383500
C45   C     C_3   0.788099 0.747321 0.564856 -0.379672
C46   C     C_3   0.787140 0.771251 0.722855 -0.713201
H19   H     H_    0.742748 0.780505 0.761421 0.285451
H20   H     H_    0.808657 0.694461 0.779693 0.276269
H21   H     H_    0.810013 0.858181 0.746269 0.237717
H22   H     H_    0.833176 0.745684 0.530295 0.203615
H23   H     H_    0.767939 0.825994 0.508597 0.248437
C47   C     C_3   0.541442 0.116802 0.232765 -0.374173
C48   C     C_3   0.601557 0.164732 0.259299 -0.753846
H24   H     H_    0.600692 0.248173 0.326200 0.239450
H25   H     H_    0.628086 0.092540 0.311090 0.273027
H26   H     H_    0.621677 0.188898 0.157614 0.250728
H27   H     H_    0.546937 0.044720 0.151031 0.197110
H28   H     H_    0.513827 0.189038 0.185297 0.218002
C49   C     C_3   0.467605 0.888733 0.234032 -0.385084
C50   C     C_3   0.405775 0.852427 0.262511 -0.822758
H29   H     H_    0.402752 0.775158 0.338205 0.248437
H30   H     H_    0.381686 0.932800 0.304778 0.248029
H31   H     H_    0.385341 0.823031 0.162757 0.233551
H32   H     H_    0.464415 0.959785 0.150525 0.188781
H33   H     H_    0.492083 0.811491 0.186670 0.231071
N6    N     N_R   0.641336 0.380399 0.865502 0.144818
O15   O     O_R   0.696332 0.393927 0.867292 -0.307880
O16   O     O_R   0.619754 0.282926 0.806417 -0.364504
C51   C     C_3   0.053445 0.606179 0.102428 -0.349285
C52   C     C_3   0.066016 0.743343 0.084829 -0.725917
H34   H     H_    0.094284 0.777285 0.169748 0.280027
H35   H     H_    0.087127 0.758850 0.982135 0.236524
H36   H     H_    0.025651 0.797438 0.087088 0.233141
H37   H     H_    0.091632 0.548242 0.082245 0.245012
H38   H     H_    0.023360 0.579369 0.017500 0.175437

loop_
_geom_bond_atom_site_label_1
_geom_bond_atom_site_label_2
_geom_bond_distance
_ccdc_geom_bond_type
C25   C30   1.398134 A    
C43   N6    1.464439 S    
C7    C10   1.401579 A    
C8    C9    1.403893 A    
C42   C43   1.498093 S    
C29   C45   1.517864 S    
N5    O13   1.300531 A    
Cu1   Cu2   2.678103 S    
C3    C35   1.454730 S    
C28   C29   1.414750 A    
C51   C52   1.527218 S    
C39   C42   1.407336 A    
Cu1   O7    1.939689 S    
N6    O16   1.302298 A    
C15   C16   1.403718 A    
C37   C38   1.518511 S    
N2    C24   1.441708 S    
C17   N2    1.367520 A    
C43   H16   1.111684 S    
C52   H35   1.110376 S    
C19   H4    1.082833 S    
O7    C4    1.291351 A    
C44   H18   1.112243 S    
C10   H1    1.083281 S    
C49   H32   1.108854 S    
C14   C18   1.420073 A    
C31   C32   1.393199 A    
C28   N5    1.434853 S    
C7    C8    1.412107 A    
C51   H38   1.112364 S    
O5    C3    1.299664 A    
C37   H10   1.112459 S    
C47   H27   1.109658 S    
C45   C46   1.526389 S    
C4    C27   1.456953 S    
C17   O11   1.350111 S    
N1    C6    1.367120 A    
C26   C27   1.395381 A    
C12   C13   1.411672 A    
C40   H14   1.080714 S    
C33   C47   1.529029 S    
C46   H20   1.110538 S    
C38   H12   1.112016 S    
C34   C35   1.428949 A    
C10   C11   1.390638 A    
C36   C37   1.499010 S    
C45   H23   1.109475 S    
O3    Cu1   1.938698 S    
N5    O14   1.300746 A    
C26   H9    1.081963 S    
Cu1   N4    2.011885 S    
C43   C44   1.515134 S    
C23   C24   1.404069 A    
C5    C9    1.404454 A    
C11   H2    1.083237 S    
C38   H13   1.111939 S    
N4    C42   1.364815 A    
C44   H17   1.110499 S    
C13   C14   1.420141 A    
C41   N4    1.368307 A    
C52   H36   1.110944 S    
C15   C51   1.518444 S    
C47   C48   1.528026 S    
C39   N3    1.363166 A    
C14   C15   1.432487 A    
C46   H19   1.109592 S    
C48   H26   1.110212 S    
C35   C36   1.395115 A    
O1    C1    1.299441 A    
C51   H37   1.107916 S    
C22   H6    1.083380 S    
N2    C18   1.372371 A    
C20   C21   1.402261 A    
C50   H29   1.107638 S    
Cu2   O8    1.938698 S    
C48   H25   1.111166 S    
C6    C7    1.402647 A    
Cu2   N3    2.012398 S    
C31   C38   1.489835 S    
C31   C36   1.373881 A    
C12   C17   1.397318 A    
C47   H28   1.108500 S    
C22   C23   1.393961 A    
C19   C24   1.404605 A    
C1    C32   1.456869 S    
O3    C2    1.295133 A    
C25   H8    1.083003 S    
C50   H30   1.111026 S    
O8    C4    1.292962 A    
C2    C21   1.464393 S    
C6    O10   1.349596 S    
C21   C22   1.402242 A    
C27   C28   1.409999 A    
C46   H21   1.110340 S    
C39   C44   1.493399 S    
Cu1   O5    1.965853 S    
C29   C30   1.415709 A    
C20   H5    1.083396 S    
C37   H11   1.112071 S    
O1    Cu1   1.965795 S    
O2    Cu2   1.965853 S    
C41   H15   1.081080 S    
O6    C3    1.285993 A    
O4    Cu2   1.939693 S    
C5    O9    1.349705 S    
C9    C16   1.398126 A    
N6    O15   1.300617 A    
C18   O12   1.346237 S    
O2    C1    1.286042 A    
C33   C34   1.412762 A    
N1    C30   1.433395 S    
C52   H34   1.109243 S    
C19   C20   1.394612 A    
C32   C33   1.423863 A    
O4    C2    1.294436 A    
C16   H3    1.084299 S    
C49   H33   1.108377 S    
C25   C26   1.387563 A    
C48   H24   1.106229 S    
C8    C13   1.413988 A    
N3    C40   1.368105 A    
C23   H7    1.082862 S    
C50   H31   1.110656 S    
Cu2   O6    1.965794 S    
C49   C50   1.531593 S    
C45   H22   1.108973 S    
C34   C49   1.532763 S    
C11   C12   1.405205 A    
C40   C41   1.417112 A    
C5    N1    1.367694 A    
