data_mof_unit_14339.cif
_audit_creation_date              2012-12-10T17:30:18-0500
_audit_creation_method            fapswitch 2.2
_symmetry_space_group_name_H-M    P1
_symmetry_Int_Tables_number       1
_space_group_crystal_system       triclinic
_cell_length_a                    11.975631
_cell_length_b                    12.856409
_cell_length_c                    14.989486
_cell_angle_alpha                 89.97559
_cell_angle_beta                  85.744248
_cell_angle_gamma                 94.261063
_cell_volume                      2295.06954216

loop_
_atom_site_label
_atom_site_type_symbol
_atom_type_description
_atom_site_fract_x
_atom_site_fract_y
_atom_site_fract_z
_atom_type_partial_charge
C1    C     C_R   0.523293 0.700696 0.498569 0.889072
C2    C     C_R   0.363841 0.134021 0.546183 0.198157
C3    C     C_R   0.450531 0.866876 0.533222 -0.313422
C4    C     C_R   0.549469 0.133124 0.466778 -0.313422
C5    C     C_R   0.452906 0.973235 0.522842 0.154929
C6    C     C_R   0.547094 0.026765 0.477157 0.154929
C7    C     C_R   0.954917 0.410969 0.408692 0.126455
C8    C     C_R   0.045083 0.589031 0.591308 0.126454
C9    C     C_R   0.838213 0.419112 0.419051 -0.009269
C10   C     C_R   0.161787 0.580888 0.580948 -0.009269
C11   C     C_R   0.857196 0.536095 0.539968 -0.064334
C12   C     C_R   0.476707 0.299304 0.501430 0.889072
C13   C     C_R   0.142804 0.463904 0.460032 -0.064333
C14   C     C_R   0.975239 0.531809 0.533410 0.015397
C15   C     C_R   0.024761 0.468191 0.466590 0.015397
C16   C     C_R   0.499451 0.498795 0.672869 0.930782
C17   C     C_R   0.500549 0.501205 0.327131 0.930782
C18   C     C_R   0.431268 0.425760 0.191421 0.119811
C19   C     C_R   0.568732 0.574240 0.808579 0.119811
C20   C     C_R   0.501713 0.500915 0.231688 -0.175167
C21   C     C_R   0.498287 0.499085 0.768312 -0.175167
C22   C     C_R   0.573834 0.574151 0.181638 0.088318
C23   C     C_R   0.633615 0.652758 0.945139 -0.232523
C24   C     C_R   0.426166 0.425849 0.818362 0.088318
C25   C     C_R   0.570489 0.575592 0.088771 0.094532
C26   C     C_R   0.429511 0.424408 0.911229 0.094532
C27   C     C_R   0.500570 0.499848 0.046804 0.005943
C28   C     C_R   0.499430 0.500152 0.953195 0.005943
C29   C     C_R   0.431743 0.423944 0.098094 0.061941
C30   C     C_R   0.568257 0.576056 0.901906 0.061941
C31   C     C_R   0.634289 0.652751 0.037204 -0.193944
C32   C     C_R   0.365711 0.347249 0.962796 -0.193944
C33   C     C_3   0.412721 0.258235 0.267334 -0.783186
C34   C     C_R   0.366385 0.347242 0.054861 -0.232523
C35   C     C_3   0.587279 0.741764 0.732666 -0.783185
C36   C     C_3   0.002093 0.341932 0.336175 -0.983066
C37   C     C_3   0.997907 0.658068 0.663825 -0.983066
C38   C     C_3   0.761792 0.623859 0.224731 -0.737953
C39   C     C_3   0.238207 0.376141 0.775269 -0.737953
C40   C     C_3   0.183297 0.195214 0.522982 -0.753830
C41   C     C_3   0.816702 0.804785 0.477018 -0.753830
C42   C     C_R   0.460469 0.187330 0.503247 -0.098831
C43   C     C_R   0.539531 0.812670 0.496753 -0.098830
C44   C     C_R   0.638509 0.973621 0.443632 -0.274075
C45   C     C_R   0.361491 0.026379 0.556368 -0.274075
C46   C     C_R   0.636159 0.865979 0.453817 0.198157
H1    H     H_    0.685079 0.714265 0.067528 0.175525
H2    H     H_    0.815890 0.583759 0.589764 0.161597
H3    H     H_    0.216733 0.623508 0.624585 0.132876
H4    H     H_    0.783267 0.376492 0.375414 0.132876
H5    H     H_    0.279529 0.340381 0.229201 0.217896
H6    H     H_    0.429076 0.211949 0.205828 0.236029
H7    H     H_    0.355613 0.210380 0.315555 0.235640
H8    H     H_    0.493051 0.277270 0.298415 0.238251
H9    H     H_    0.720471 0.659619 0.770799 0.217896
H10   H     H_    0.570924 0.788051 0.794171 0.236029
H11   H     H_    0.506949 0.722730 0.701585 0.238251
H12   H     H_    0.314921 0.285735 0.932472 0.175525
H13   H     H_    0.644387 0.789620 0.684445 0.235640
H14   H     H_    0.061121 0.389080 0.288796 0.246645
H15   H     H_    0.046950 0.279689 0.366291 0.246157
H16   H     H_    0.934988 0.303771 0.297470 0.242813
H17   H     H_    0.938879 0.610921 0.711204 0.246645
H18   H     H_    0.065012 0.696230 0.702530 0.242813
H19   H     H_    0.953050 0.720311 0.633708 0.246157
H20   H     H_    0.614079 0.676515 0.285063 0.232771
H21   H     H_    0.768350 0.552811 0.265447 0.259281
H22   H     H_    0.812368 0.689568 0.253638 0.228510
H23   H     H_    0.684302 0.714225 0.908857 0.153736
H24   H     H_    0.797871 0.610417 0.155695 0.232904
H25   H     H_    0.385921 0.323485 0.714937 0.232771
H26   H     H_    0.231649 0.447189 0.734553 0.259281
H27   H     H_    0.202129 0.389583 0.844305 0.232904
H28   H     H_    0.187632 0.310432 0.746362 0.228510
H29   H     H_    0.240748 0.160505 0.645155 0.215841
H30   H     H_    0.119412 0.245599 0.553243 0.236813
H31   H     H_    0.142140 0.116551 0.511259 0.222253
H32   H     H_    0.217410 0.230145 0.457893 0.248443
H33   H     H_    0.759252 0.839495 0.354845 0.215841
H34   H     H_    0.315698 0.285775 0.091143 0.153736
H35   H     H_    0.880588 0.754400 0.446757 0.236812
H36   H     H_    0.782590 0.769854 0.542107 0.248443
H37   H     H_    0.857860 0.883448 0.488741 0.222253
H38   H     H_    0.622439 0.174228 0.431935 0.165216
H39   H     H_    0.377561 0.825772 0.568065 0.165216
H40   H     H_    0.711371 0.015367 0.409386 0.140708
H41   H     H_    0.288629 0.984633 0.590614 0.140708
H42   H     H_    0.184109 0.416241 0.410236 0.161597
N1    N     N_R   0.207800 0.519350 0.516680 -0.119097
N2    N     N_R   0.792200 0.480650 0.483320 -0.119097
N3    N     N_2   0.361241 0.352654 0.246285 -0.298999
N4    N     N_2   0.638759 0.647345 0.753715 -0.298999
N5    N     N_2   0.645917 0.649264 0.224427 -0.312572
N6    N     N_2   0.354083 0.350736 0.775573 -0.312572
N7    N     N_2   0.271798 0.188008 0.582842 -0.291535
N8    N     N_2   0.728202 0.811992 0.417158 -0.291535
O1    O     O_R   0.421700 0.658830 0.504450 -0.633830
O2    O     O_R   0.578300 0.341170 0.495550 -0.633830
O3    O     O_R   0.609310 0.646410 0.493750 -0.586534
O4    O     O_R   0.390690 0.353590 0.506250 -0.586534
O5    O     O_R   0.406180 0.506230 0.637500 -0.634127
O6    O     O_R   0.593820 0.493770 0.362500 -0.634128
O7    O     O_R   0.593800 0.493820 0.626800 -0.605340
O8    O     O_R   0.406200 0.506180 0.373200 -0.605340
Zn1   Zn    Zn3+2 0.374730 0.508290 0.507150 0.946387
Zn2   Zn    Zn3+2 0.625270 0.491710 0.492850 0.946387

loop_
_geom_bond_atom_site_label_1
_geom_bond_atom_site_label_2
_ccdc_geom_bond_type
C25   C31   A    
C38   H24   S    
C26   C32   A    
C16   C21   S    
C3    H39   S    
C7    C36   S    
C23   H23   S    
C32   H12   S    
C1    O3    A    
H29   N7    S    
H25   N6    S    
C33   H6    S    
C3    C43   A    
O4    Zn1   S    
C18   N3    S    
C2    N7    S    
C45   H41   S    
C17   O8    A    
C24   C26   A    
C33   N3    S    
C5    C6    A    
C11   C14   A    
C44   H40   S    
C41   N8    S    
C27   C29   A    
C41   H37   S    
C17   C20   S    
C38   N5    S    
C35   H13   S    
C39   H28   S    
C12   C42   S    
C19   N4    S    
C34   H34   S    
C1    C43   S    
C10   N1    A    
C22   C25   A    
C37   H19   S    
C39   H26   S    
C12   O2    A    
O1    Zn1   S    
C35   N4    S    
C7    C15   A    
C31   H1    S    
C33   H7    S    
C11   H2    S    
C36   H16   S    
O8    Zn1   S    
C37   H17   S    
C44   C46   A    
C13   N1    A    
C2    C45   A    
O5    Zn1   S    
C23   C30   A    
N2    Zn2   S    
C4    C6    A    
C1    O1    A    
C3    C5    A    
C5    C45   A    
C29   C34   A    
C40   H30   S    
C32   C34   A    
C17   O6    A    
C39   N6    S    
H9    N4    S    
C24   N6    S    
C16   O7    A    
C4    H38   S    
C41   H35   S    
C18   C29   A    
H20   N5    S    
C20   C22   A    
C13   C15   A    
C22   N5    S    
C40   H32   S    
C8    C37   S    
C40   N7    S    
C36   H15   S    
C37   H18   S    
C33   H8    S    
C7    C9    A    
O3    Zn2   S    
C8    C14   A    
C19   C21   A    
C35   H10   S    
C14   C15   A    
C9    H4    S    
C38   H22   S    
C36   H14   S    
C9    N2    A    
C25   C27   A    
C26   C28   A    
O2    Zn2   S    
C35   H11   S    
C28   C30   A    
H33   N8    S    
C19   C30   A    
C11   N2    A    
C4    C42   A    
C2    C42   A    
C41   H36   S    
C13   H42   S    
O6    Zn2   S    
O7    Zn2   S    
C18   C20   A    
C39   H27   S    
C43   C46   A    
C12   O4    A    
C16   O5    A    
C46   N8    S    
C38   H21   S    
C8    C10   A    
C21   C24   A    
N1    Zn1   S    
C27   C28   A    
H5    N3    S    
C40   H31   S    
C6    C44   A    
C10   H3    S    
C23   C31   A    
