data_mof_unit_53192.cif
_audit_creation_date              2012-12-10T19:28:20-0500
_audit_creation_method            fapswitch 2.2
_symmetry_space_group_name_H-M    P1
_symmetry_Int_Tables_number       1
_space_group_crystal_system       triclinic
_cell_length_a                    17.862844
_cell_length_b                    16.469852
_cell_length_c                    15.888113
_cell_angle_alpha                 90.224102
_cell_angle_beta                  91.156774
_cell_angle_gamma                 89.695405
_cell_volume                      4673.20489137

loop_
_atom_site_label
_atom_site_type_symbol
_atom_type_description
_atom_site_fract_x
_atom_site_fract_y
_atom_site_fract_z
_atom_type_partial_charge
C1    C     C_R   0.355113 0.500134 0.503763 0.798331
C2    C     C_R   0.766726 0.423976 0.472570 0.125893
C3    C     C_R   0.042098 0.198130 0.565943 -0.111557
C4    C     C_R   0.069787 0.244417 0.633521 -0.142365
C5    C     C_R   0.105807 0.318004 0.618725 -0.135989
C6    C     C_R   0.727750 0.499051 0.482751 -0.164258
C7    C     C_R   0.885239 0.493798 0.495542 0.027933
C8    C     C_1   0.965758 0.491123 0.497877 -0.004127
C9    C     C_R   0.499898 0.499816 0.340230 0.834123
C10   C     C_1   0.032854 0.490883 0.498851 -0.032459
C11   C     C_R   0.149703 0.567499 0.489310 -0.034778
C12   C     C_R   0.154354 0.422569 0.519829 -0.035730
C13   C     C_R   0.228593 0.571622 0.495810 -0.079589
C14   C     C_R   0.233265 0.425459 0.525885 -0.073274
C15   C     C_3   0.578721 0.499198 0.950974 -0.430649
C16   C     C_R   0.271530 0.499503 0.509439 -0.172600
C17   C     C_R   0.113355 0.493109 0.500439 0.009225
C18   C     C_R   0.531017 0.835445 0.554126 -0.316974
C19   C     C_R   0.535732 0.164825 0.550582 -0.321723
C20   C     C_R   0.532693 0.749840 0.561453 0.357038
C21   C     C_R   0.537170 0.250401 0.558269 0.364463
C22   C     C_R   0.468449 0.737841 0.430296 0.058173
C23   C     C_R   0.462329 0.262270 0.434163 0.049799
C24   C     C_R   0.469052 0.823320 0.419204 0.103480
C25   C     C_R   0.460652 0.176635 0.423956 0.094268
C26   C     C_3   0.587566 0.511069 0.050042 0.043803
C27   C     C_R   0.499213 0.873315 0.483408 0.084853
C28   C     C_R   0.497674 0.126804 0.483773 0.089356
C29   C     C_R   0.644517 0.499831 0.493007 0.823253
C30   C     C_1   0.497536 0.962846 0.479452 -0.031841
C31   C     C_1   0.496936 0.037261 0.479535 -0.029854
C32   C     C_R   0.499713 0.500152 0.659960 0.834350
C33   C     C_3   0.444799 0.568222 0.051339 0.147789
C34   C     C_3   0.468734 0.407657 0.047596 0.139880
C35   C     C_3   0.457206 0.419841 0.948349 -0.040926
C36   C     C_3   0.452240 0.573520 0.950841 -0.043483
C37   C     C_1   0.497565 0.500026 0.824574 -0.035253
C38   C     C_1   0.498572 0.500446 0.749231 -0.222543
C39   C     C_3   0.501424 0.495144 0.083929 0.114951
C40   C     C_3   0.496996 0.498497 0.917253 0.180905
C41   C     C_R   0.263321 0.653390 0.494668 0.161682
C42   C     C_R   0.260198 0.700646 0.421263 -0.140141
C43   C     C_R   0.279731 0.782609 0.424583 -0.136215
C44   C     C_R   0.304573 0.817363 0.500484 -0.102678
C45   C     C_R   0.310637 0.769948 0.573039 -0.145463
C46   C     C_R   0.289372 0.688420 0.570488 -0.110123
C47   C     C_R   0.273875 0.351538 0.555801 0.159586
C48   C     C_1   0.501358 0.496403 0.175859 -0.106708
C49   C     C_R   0.308724 0.350958 0.635900 -0.117527
C50   C     C_R   0.343726 0.280368 0.665934 -0.131174
C51   C     C_R   0.343266 0.209761 0.616912 -0.109213
C52   C     C_R   0.308357 0.209781 0.537436 -0.130690
C53   C     C_R   0.274711 0.280643 0.506308 -0.122129
C54   C     C_3   0.570617 0.715236 0.638710 -0.810211
C55   C     C_3   0.578947 0.285380 0.632955 -0.806264
C56   C     C_3   0.437719 0.859952 0.339231 -0.905880
C57   C     C_3   0.419279 0.139710 0.349918 -0.911371
C58   C     C_R   0.361303 0.553216 0.080479 0.111862
C59   C     C_1   0.500595 0.498893 0.251323 -0.262406
C60   C     C_R   0.299881 0.531877 0.025929 -0.170482
C61   C     C_R   0.227439 0.522049 0.056055 -0.109704
C62   C     C_R   0.212965 0.532277 0.140973 -0.100637
C63   C     C_R   0.270731 0.553592 0.196202 -0.141084
C64   C     C_R   0.342966 0.564967 0.166667 -0.111952
C65   C     C_R   0.394814 0.376241 0.089879 0.143015
C66   C     C_R   0.393292 0.360636 0.177757 -0.124375
C67   C     C_R   0.328445 0.335046 0.217319 -0.147247
C68   C     C_R   0.264350 0.317613 0.169930 -0.099293
C69   C     C_R   0.266140 0.322554 0.082717 -0.125506
C70   C     C_R   0.848142 0.569519 0.496208 0.153369
C71   C     C_R   0.330630 0.349232 0.042952 -0.157882
C72   C     C_3   0.524280 0.335755 0.064343 -0.807598
C73   C     C_3   0.464348 0.653442 0.091482 -0.806305
C74   C     C_3   0.471804 0.342967 0.893647 -0.879534
C75   C     C_3   0.477544 0.655299 0.912375 -0.866497
C76   C     C_R   0.621659 0.595288 0.077872 0.146746
C77   C     C_R   0.653117 0.652735 0.021891 -0.183291
C78   C     C_R   0.682785 0.726320 0.051002 -0.144962
C79   C     C_R   0.686121 0.743675 0.136627 -0.110787
C80   C     C_R   0.662361 0.686139 0.193687 -0.140665
C81   C     C_R   0.845149 0.421021 0.485432 0.149605
C82   C     C_R   0.632672 0.612596 0.165018 -0.130804
C83   C     C_R   0.653478 0.453501 0.079901 0.106839
C84   C     C_R   0.719349 0.450183 0.031005 -0.151581
C85   C     C_R   0.781910 0.404360 0.055836 -0.134684
C86   C     C_R   0.782275 0.362621 0.131697 -0.105325
C87   C     C_R   0.720689 0.368140 0.183562 -0.131852
C88   C     C_R   0.658002 0.414174 0.159218 -0.168655
C89   C     C_3   0.891721 0.647155 0.512220 -0.841914
C90   C     C_3   0.886997 0.340627 0.489972 -0.849030
C91   C     C_3   0.731705 0.654203 0.468091 -0.805745
C92   C     C_R   0.769547 0.572688 0.484420 0.116396
C93   C     C_3   0.726826 0.349285 0.438251 -0.816818
C94   C     C_R   0.104800 0.642045 0.471689 0.126053
C95   C     C_R   0.096450 0.701858 0.534087 -0.140962
C96   C     C_R   0.058376 0.774160 0.515431 -0.131244
C97   C     C_R   0.028304 0.787006 0.434636 -0.121702
C98   C     C_R   0.035837 0.727333 0.372502 -0.149675
C99   C     C_R   0.073784 0.654902 0.390927 -0.146125
C100  C     C_R   0.114163 0.345649 0.536020 0.132245
C101  C     C_R   0.085817 0.299248 0.468420 -0.164813
C102  C     C_R   0.050190 0.225481 0.483457 -0.147914
Cu1   Cu    Cu3+1 0.499980 0.580420 0.500000 0.926795
Cu2   Cu    Cu3+1 0.499980 0.419580 0.500000 0.929969
H1    H     H_    0.397116 0.570456 0.920016 0.136280
H2    H     H_    0.274923 0.819340 0.368416 0.130852
H3    H     H_    0.319743 0.880879 0.502887 0.126801
H4    H     H_    0.330334 0.796806 0.631628 0.123760
H5    H     H_    0.291161 0.653134 0.627889 0.107264
H6    H     H_    0.308362 0.404962 0.675025 0.097266
H7    H     H_    0.370517 0.280057 0.727554 0.116304
H8    H     H_    0.369990 0.155031 0.640471 0.124537
H9    H     H_    0.307729 0.154940 0.499758 0.131146
H10   H     H_    0.248485 0.280072 0.444262 0.112092
H11   H     H_    0.607896 0.760548 0.669860 0.182301
H12   H     H_    0.398196 0.433859 0.934100 0.115489
H13   H     H_    0.527943 0.698201 0.685135 0.231111
H14   H     H_    0.606480 0.662731 0.622781 0.251600
H15   H     H_    0.617102 0.239683 0.662397 0.181694
H16   H     H_    0.614459 0.336800 0.614695 0.253590
H17   H     H_    0.538737 0.304023 0.681768 0.234192
H18   H     H_    0.414766 0.812807 0.295840 0.222099
H19   H     H_    0.392171 0.903532 0.353997 0.235060
H20   H     H_    0.482681 0.892762 0.306414 0.244535
H21   H     H_    0.374592 0.099025 0.372363 0.233215
H22   H     H_    0.392920 0.186869 0.309152 0.226089
H23   H     H_    0.555026 0.872916 0.603919 0.147446
H24   H     H_    0.458809 0.103846 0.311371 0.247639
H25   H     H_    0.304294 0.518376 0.960196 0.085972
H26   H     H_    0.182383 0.504767 0.013140 0.113087
H27   H     H_    0.156947 0.523671 0.163970 0.111262
H28   H     H_    0.259516 0.562078 0.262353 0.115488
H29   H     H_    0.383623 0.585055 0.212872 0.132741
H30   H     H_    0.442935 0.363772 0.216814 0.138673
H31   H     H_    0.328594 0.326598 0.284842 0.114195
H32   H     H_    0.214311 0.297084 0.200518 0.110714
H33   H     H_    0.217509 0.304836 0.045392 0.113923
H34   H     H_    0.564157 0.127452 0.597435 0.146719
H35   H     H_    0.328028 0.346078 0.975352 0.115056
H36   H     H_    0.539626 0.330514 0.131729 0.213202
H37   H     H_    0.497958 0.276566 0.048253 0.224239
H38   H     H_    0.575266 0.338360 0.026446 0.241070
H39   H     H_    0.416159 0.695989 0.083696 0.214800
H40   H     H_    0.477901 0.650355 0.159658 0.220892
H41   H     H_    0.511552 0.685291 0.063522 0.254781
H42   H     H_    0.442464 0.289518 0.919117 0.232543
H43   H     H_    0.448918 0.351429 0.828845 0.226503
H44   H     H_    0.532338 0.328949 0.888987 0.244579
H45   H     H_    0.442403 0.700632 0.381985 0.140573
H46   H     H_    0.469977 0.654886 0.842810 0.227268
H47   H     H_    0.442343 0.706318 0.935054 0.236675
H48   H     H_    0.536739 0.668423 0.925637 0.246910
H49   H     H_    0.657335 0.643938 0.955350 0.111644
H50   H     H_    0.704451 0.769645 0.006696 0.125172
H51   H     H_    0.709535 0.800509 0.158856 0.120593
H52   H     H_    0.668388 0.697690 0.260593 0.127890
H53   H     H_    0.621581 0.568478 0.212514 0.135532
H54   H     H_    0.723375 0.484296 0.973269 0.116745
H55   H     H_    0.830646 0.402172 0.016476 0.119877
H56   H     H_    0.432848 0.299977 0.388816 0.130267
H57   H     H_    0.830847 0.327285 0.151079 0.115246
H58   H     H_    0.721725 0.337197 0.243507 0.126041
H59   H     H_    0.614510 0.417121 0.204180 0.135387
H60   H     H_    0.861802 0.686518 0.557571 0.227657
H61   H     H_    0.947769 0.636301 0.541071 0.242443
H62   H     H_    0.898613 0.680012 0.452112 0.241572
H63   H     H_    0.849922 0.288390 0.502111 0.232392
H64   H     H_    0.917172 0.330172 0.430474 0.231794
H65   H     H_    0.927956 0.341394 0.543482 0.246687
H66   H     H_    0.704742 0.676571 0.525991 0.238629
H67   H     H_    0.611543 0.540784 0.912959 0.150225
H68   H     H_    0.770690 0.701645 0.447000 0.219669
H69   H     H_    0.690199 0.648887 0.415431 0.232374
H70   H     H_    0.764336 0.311151 0.399538 0.216660
H71   H     H_    0.705101 0.312387 0.490630 0.241811
H72   H     H_    0.680739 0.366456 0.393803 0.230919
H73   H     H_    0.120131 0.692758 0.596640 0.120159
H74   H     H_    0.052370 0.820318 0.563520 0.122848
H75   H     H_    0.998914 0.843042 0.420265 0.119182
H76   H     H_    0.012399 0.737286 0.310029 0.126426
H77   H     H_    0.080208 0.609482 0.342079 0.117723
H78   H     H_    0.602576 0.439576 0.932195 0.166271
H79   H     H_    0.092022 0.319877 0.404305 0.117578
H80   H     H_    0.028625 0.189671 0.431203 0.123846
H81   H     H_    0.014316 0.141130 0.577491 0.118415
H82   H     H_    0.063521 0.223155 0.697345 0.121860
H83   H     H_    0.127546 0.353206 0.671409 0.116737
H84   H     H_    0.239281 0.675024 0.362595 0.113341
N1    N     N_R   0.499970 0.701220 0.499980 -0.182904
N2    N     N_R   0.499970 0.298780 0.499980 -0.177271
O1    O     O_R   0.391240 0.567930 0.499990 -0.570739
O2    O     O_R   0.391240 0.432070 0.499990 -0.569263
O3    O     O_R   0.499990 0.567940 0.379430 -0.595704
O4    O     O_R   0.499990 0.432060 0.379430 -0.597002
O5    O     O_R   0.608730 0.567880 0.500000 -0.581908
O6    O     O_R   0.608730 0.432120 0.500000 -0.581646
O7    O     O_R   0.499980 0.567880 0.620560 -0.578238
O8    O     O_R   0.499980 0.432120 0.620560 -0.572390

loop_
_geom_bond_atom_site_label_1
_geom_bond_atom_site_label_2
_ccdc_geom_bond_type
C87   C88   A    
C55   H17   S    
C35   C74   S    
C101  C102  A    
C90   H63   S    
C41   C42   A    
C95   C96   A    
C24   C27   A    
C43   C44   A    
C57   H24   S    
C13   C41   S    
C97   C98   A    
C7    C8    S    
C47   C49   A    
C55   H15   S    
C77   C78   A    
C52   C53   A    
C25   C28   A    
C72   H38   S    
C26   C83   S    
Cu1   O5    S    
C91   H68   S    
C56   H20   S    
C74   H44   S    
C19   C21   A    
C37   C38   T    
C37   C40   S    
C57   H21   S    
C30   C31   T    
C9    O3    A    
C26   C39   S    
C97   H75   S    
C75   H46   S    
C58   C60   A    
Cu2   O2    S    
C15   H78   S    
C93   H70   S    
C33   C36   S    
C91   H69   S    
C34   C35   S    
Cu1   O7    S    
C4    H82   S    
C69   C71   A    
C100  C101  A    
C32   O8    A    
C77   H49   S    
C66   H30   S    
C95   H73   S    
C75   H47   S    
C68   C69   A    
C12   C17   A    
C26   C76   S    
C41   C46   A    
Cu1   N1    S    
C32   C38   S    
C89   H60   S    
C18   C20   A    
C61   C62   A    
C101  H79   S    
C45   H4    S    
C47   C53   A    
C23   H56   S    
C66   C67   A    
C22   H45   S    
C54   H11   S    
C27   C30   S    
C58   C64   A    
C2    C6    A    
C25   C57   S    
C7    C70   A    
C3    H81   S    
C34   C65   S    
C80   H52   S    
C55   H16   S    
C28   C31   S    
C69   H33   S    
C72   H37   S    
C89   H62   S    
C42   H84   S    
C44   C45   A    
C12   C100  S    
C34   C39   S    
C56   H19   S    
C74   H43   S    
C36   C40   S    
C84   C85   A    
C20   C54   S    
C76   C82   A    
C57   H22   S    
C86   H57   S    
C82   H53   S    
C84   H54   S    
C78   C79   A    
C78   H50   S    
C15   C26   S    
C71   H35   S    
C52   H9    S    
C93   H71   S    
C51   C52   A    
C73   H41   S    
C60   C61   A    
C9    C59   S    
C43   H2    S    
C56   H18   S    
C67   H31   S    
C67   C68   A    
C32   O7    A    
C36   C75   S    
C18   H23   S    
C10   C17   S    
C83   C84   A    
C5    C100  A    
C68   H32   S    
C75   H48   S    
Cu2   N2    S    
C96   C97   A    
C87   H58   S    
C62   C63   A    
C50   C51   A    
Cu2   O6    S    
C15   H67   S    
C35   H12   S    
C1    C16   S    
C33   C39   S    
C63   H28   S    
C76   C77   A    
C22   N1    A    
C19   C28   A    
C89   H61   S    
C85   C86   A    
C86   C87   A    
C61   H26   S    
C81   C90   S    
C1    O1    A    
C11   C94   S    
C80   C82   A    
C7    C81   A    
C12   C14   A    
C49   C50   A    
C54   H14   S    
C14   C16   A    
C79   C80   A    
C54   H13   S    
C70   C89   S    
Cu1   O1    S    
C42   C43   A    
C5    H83   S    
C72   H36   S    
C98   H76   S    
C3    C4    A    
C29   O6    A    
C34   C72   S    
C20   N1    A    
C53   H10   S    
C3    C102  A    
C48   C59   T    
C21   C55   S    
C73   H39   S    
C44   H3    S    
C33   C73   S    
C64   H29   S    
C11   C17   A    
C91   H66   S    
C90   H64   S    
C36   H1    S    
C9    O4    A    
Cu2   O8    S    
C62   H27   S    
C74   H42   S    
C2    C93   S    
C70   C92   A    
C18   C27   A    
C4    C5    A    
C60   H25   S    
C14   C47   S    
C24   C56   S    
C88   H59   S    
Cu1   O3    S    
C93   H72   S    
C33   C58   S    
C102  H80   S    
C35   C40   S    
C13   C16   A    
C65   C66   A    
C29   O5    A    
C11   C13   A    
C21   N2    A    
C94   C99   A    
C19   H34   S    
C6    C92   A    
C90   H65   S    
C50   H7    S    
C83   C88   A    
C22   C24   A    
C23   C25   A    
C94   C95   A    
C15   C40   S    
C99   H77   S    
C51   H8    S    
C79   H51   S    
C63   C64   A    
C1    O2    A    
C45   C46   A    
C65   C71   A    
C6    C29   S    
C8    C10   T    
C98   C99   A    
C46   H5    S    
Cu1   Cu2   S    
Cu2   O4    S    
C49   H6    S    
C2    C81   A    
C85   H55   S    
C96   H74   S    
C23   N2    A    
C91   C92   S    
C39   C48   S    
C73   H40   S    
