data_mof_unit_7234.cif
_audit_creation_date              2012-12-11T16:22:06-0500
_audit_creation_method            fapswitch 2.2
_symmetry_space_group_name_H-M    P1
_symmetry_Int_Tables_number       1
_space_group_crystal_system       triclinic
_cell_length_a                    13.49734
_cell_length_b                    14.052319
_cell_length_c                    29.996058
_cell_angle_alpha                 97.900156
_cell_angle_beta                  90.083841
_cell_angle_gamma                 118.695157
_cell_volume                      4928.30956587

loop_
_atom_site_label
_atom_site_type_symbol
_atom_type_description
_atom_site_fract_x
_atom_site_fract_y
_atom_site_fract_z
_atom_type_partial_charge
C1    C     C_R   0.721452 0.099143 0.569003 0.542729
C2    C     C_1   0.308733 0.598636 0.752507 -0.049085
C3    C     C_1   0.315145 0.607375 0.713169 -0.056040
C4    C     C_R   0.383500 0.787832 0.550847 0.537189
C5    C     C_R   0.291235 0.581498 0.892541 0.018487
C6    C     C_3   0.211034 0.136185 0.721608 -0.114666
C7    C     C_3   0.241173 0.072719 0.752791 -0.094448
C8    C     C_1   0.293682 0.203224 0.875332 -0.017205
C9    C     C_1   0.360277 0.140346 0.612287 -0.022189
C10   C     C_3   0.275753 0.243183 0.756360 -0.107319
C11   C     C_3   0.306425 0.179343 0.786530 0.041218
C12   C     C_R   0.329600 0.630774 0.667683 0.029306
C13   C     C_3   0.386573 0.272195 0.732610 -0.108145
C14   C     C_3   0.321723 0.165510 0.698696 0.051463
C15   C     C_3   0.417168 0.209143 0.763687 -0.091419
C16   C     C_R   0.396641 0.119353 0.569175 0.546156
C17   C     C_3   0.351769 0.103078 0.729466 0.032802
C18   C     C_1   0.299688 0.188604 0.835279 -0.064439
C19   C     C_1   0.338056 0.154074 0.650576 -0.065362
C20   C     C_3   0.926720 0.267706 0.731642 -0.098491
C21   C     C_3   0.841876 0.270656 0.765894 -0.100595
C22   C     C_1   0.900041 0.206168 0.877892 -0.015608
C23   C     C_R   0.237445 0.623443 0.642984 -0.133416
C24   C     C_1   0.772958 0.133233 0.614010 -0.023713
C25   C     C_3   0.942315 0.185655 0.756588 -0.097651
C26   C     C_3   0.856888 0.188268 0.789917 0.053031
C27   C     C_3   0.843249 0.087888 0.726201 -0.105269
C28   C     C_R   0.720901 0.095452 0.442980 0.531093
C29   C     C_3   0.827921 0.170034 0.702060 0.051061
C30   C     C_3   0.758495 0.090815 0.760288 -0.105402
C31   C     C_3   0.742771 0.172800 0.735497 -0.103272
C32   C     C_1   0.875453 0.197027 0.838492 -0.060577
C33   C     C_1   0.803785 0.153925 0.653400 -0.066222
C34   C     C_R   0.253399 0.669793 0.603606 -0.139676
C35   C     C_3   0.294873 0.575692 0.258818 -0.099391
C36   C     C_3   0.238426 0.619884 0.228592 -0.098562
C37   C     C_1   0.309875 0.608496 0.111104 -0.018588
C38   C     C_1   0.366972 0.736732 0.378128 -0.024124
C39   C     C_3   0.398149 0.614838 0.229806 -0.098818
C40   C     C_R   0.382277 0.784362 0.424438 0.544122
C41   C     C_3   0.341823 0.659492 0.200349 0.050370
C42   C     C_3   0.456525 0.728159 0.260733 -0.101451
C43   C     C_3   0.352979 0.688397 0.288877 0.050102
C44   C     C_3   0.399896 0.772249 0.230401 -0.099669
C45   C     C_R   0.224441 0.613412 0.823668 -0.117574
C46   C     C_3   0.296685 0.732992 0.259369 -0.097730
C47   C     C_1   0.329139 0.637299 0.151180 -0.060182
C48   C     C_1   0.359100 0.709481 0.338005 -0.064694
C49   C     C_R   0.357452 0.132447 0.400714 0.020503
C50   C     C_R   0.420059 0.233433 0.385187 -0.125299
C51   C     C_R   0.404101 0.241713 0.340315 -0.114242
C52   C     C_R   0.395997 0.114518 0.443057 0.541974
C53   C     C_R   0.325250 0.149516 0.310849 0.039272
C54   C     C_R   0.255916 0.051408 0.326814 -0.117188
C55   C     C_R   0.271375 0.042959 0.371739 -0.129230
C56   C     C_R   0.217640 0.606533 0.869664 -0.126121
C57   C     C_R   0.238396 0.090353 0.147070 -0.113923
C58   C     C_R   0.231462 0.110285 0.103284 -0.125954
C59   C     C_R   0.411832 0.278329 0.119128 -0.127086
C60   C     C_R   0.418506 0.258126 0.162912 -0.116199
C61   C     C_R   0.329707 0.166464 0.177264 0.038654
C62   C     C_1   0.326456 0.157262 0.224018 -0.032687
C63   C     C_1   0.324022 0.152839 0.263599 -0.032613
C64   C     C_R   0.361832 0.723206 0.588129 0.000972
C65   C     C_R   0.315543 0.207204 0.089648 0.020450
C66   C     C_R   0.772821 0.127005 0.400570 0.032769
C67   C     C_R   0.376217 0.570336 0.868962 -0.128440
C68   C     C_R   0.743029 0.041180 0.364160 -0.136201
C69   C     C_R   0.760838 0.062994 0.320377 -0.125129
C70   C     C_R   0.808671 0.170720 0.312160 0.022933
C71   C     C_R   0.846749 0.258008 0.347952 -0.090676
C72   C     C_R   0.832066 0.237745 0.392777 0.014868
C73   C     C_R   0.869236 0.301023 0.164013 -0.118783
C74   C     C_R   0.899556 0.308864 0.119737 -0.129715
C75   C     C_R   0.850247 0.116300 0.107284 -0.126594
C76   C     C_R   0.453026 0.724083 0.611317 -0.113190
C77   C     C_R   0.819368 0.108573 0.151440 -0.113601
C78   C     C_R   0.382587 0.576993 0.822946 -0.123466
C79   C     C_R   0.832860 0.201833 0.180173 0.039538
C80   C     C_1   0.822648 0.197812 0.227245 -0.032528
C81   C     C_1   0.816963 0.189347 0.266455 -0.034047
C82   C     C_R   0.895074 0.217697 0.091664 0.020992
C83   C     C_R   0.283543 0.233439 0.921741 0.544644
C84   C     C_R   0.264518 0.544098 0.936871 0.539648
C85   C     C_R   0.945791 0.222379 0.922842 0.545490
C86   C     C_R   0.292897 0.243116 0.048869 0.542188
C87   C     C_R   0.275379 0.558845 0.065061 0.547393
C88   C     C_R   0.439026 0.680020 0.651756 0.009851
C89   C     C_R   0.304735 0.595495 0.800051 0.033569
C90   C     C_R   0.953546 0.233045 0.049804 0.541883
C91   C     C_3   0.393771 0.021910 0.713526 -0.256741
C92   C     C_3   0.427984 0.984618 0.753691 -0.307442
C93   C     C_3   0.457179 0.894456 0.737476 -0.453122
C94   C     C_3   0.879769 0.335031 0.430683 -0.275732
C95   C     C_3   0.008668 0.402649 0.431319 -0.447198
C96   C     C_3   0.538647 0.689474 0.679896 -0.255044
C97   C     C_3   0.656020 0.752844 0.662181 -0.310192
C98   C     C_3   0.748776 0.760220 0.693935 -0.458360
Cr1   Cr    Cr6+3 0.583430 0.162610 0.509470 1.012607
Cr2   Cr    Cr6+3 0.584210 0.916680 0.495400 1.013393
Cr3   Cr    Cr6+3 0.332380 0.920740 0.495100 1.015688
Cr4   Cr    Cr6+3 0.086810 0.177030 0.983130 1.018418
Cr5   Cr    Cr6+3 0.337180 0.419300 0.994610 1.017920
Cr6   Cr    Cr6+3 0.084840 0.422330 0.995830 1.018544
H1    H     H_    0.150966 0.615049 0.886683 0.129372
H2    H     H_    0.844495 0.013187 0.709234 0.102978
H3    H     H_    0.165049 0.629651 0.806268 0.105180
H4    H     H_    0.024353 0.190679 0.766136 0.106084
H5    H     H_    0.148596 0.575469 0.214721 0.104504
H6    H     H_    0.251827 0.495309 0.271047 0.109794
H7    H     H_    0.254650 0.781447 0.272193 0.105002
H8    H     H_    0.442926 0.852650 0.218186 0.110629
H9    H     H_    0.546247 0.772607 0.274718 0.098073
H10   H     H_    0.440142 0.566398 0.216928 0.105583
H11   H     H_    0.156618 0.053641 0.081224 0.126581
H12   H     H_    0.126858 0.107068 0.703899 0.103622
H13   H     H_    0.169622 0.018980 0.158076 0.108307
H14   H     H_    0.194456 0.979859 0.304034 0.104664
H15   H     H_    0.154078 0.587594 0.655682 0.110426
H16   H     H_    0.221847 0.964108 0.382725 0.131079
H17   H     H_    0.486493 0.303817 0.406805 0.127704
H18   H     H_    0.489651 0.317142 0.186277 0.106551
H19   H     H_    0.478008 0.353416 0.109547 0.130161
H20   H     H_    0.457602 0.318106 0.328034 0.107250
H21   H     H_    0.933851 0.388120 0.108634 0.130725
H22   H     H_    0.880040 0.373531 0.186243 0.103522
H23   H     H_    0.501530 0.238479 0.781282 0.096571
H24   H     H_    0.886393 0.341549 0.340890 0.107573
H25   H     H_    0.698176 0.955951 0.369029 0.134396
H26   H     H_    0.181747 0.667725 0.586306 0.129143
H27   H     H_    0.791114 0.031463 0.163920 0.106831
H28   H     H_    0.845382 0.044728 0.086348 0.127075
H29   H     H_    0.732677 0.995198 0.292689 0.106847
H30   H     H_    0.535951 0.764764 0.598822 0.129922
H31   H     H_    0.446151 0.564679 0.804985 0.104727
H32   H     H_    0.433696 0.550163 0.885366 0.133153
H33   H     H_    0.182401 0.990724 0.761569 0.098384
H34   H     H_    0.445445 0.354125 0.723798 0.102347
H35   H     H_    0.381567 0.823574 0.718619 0.176081
H36   H     H_    0.527695 0.923568 0.714941 0.157742
H37   H     H_    0.482028 0.868056 0.766811 0.143268
H38   H     H_    0.502596 0.055090 0.773782 0.158162
H39   H     H_    0.356950 0.952332 0.775906 0.166452
H40   H     H_    0.324787 0.950069 0.691463 0.150126
H41   H     H_    0.467521 0.061590 0.693253 0.141896
H42   H     H_    0.047923 0.349855 0.434276 0.159880
H43   H     H_    0.034226 0.440459 0.400228 0.150076
H44   H     H_    0.041160 0.469667 0.460777 0.143302
H45   H     H_    0.244725 0.301780 0.768360 0.112724
H46   H     H_    0.841409 0.388019 0.426430 0.142512
H47   H     H_    0.860864 0.309229 0.464304 0.160999
H48   H     H_    0.750257 0.804176 0.727892 0.148175
H49   H     H_    0.734281 0.676700 0.697038 0.153169
H50   H     H_    0.832454 0.806245 0.680320 0.141338
H51   H     H_    0.658269 0.710405 0.628381 0.163862
H52   H     H_    0.674106 0.837767 0.659494 0.161076
H53   H     H_    0.541651 0.731558 0.714487 0.147288
H54   H     H_    0.522240 0.605068 0.682591 0.147618
H55   H     H_    0.840931 0.345490 0.782926 0.101612
H56   H     H_    0.995826 0.339942 0.719299 0.107362
H57   H     H_    0.661178 0.168715 0.726125 0.102979
H58   H     H_    0.690981 0.018803 0.773242 0.105796
O1    O     O_R   0.493980 0.188910 0.559650 -0.508325
O2    O     O_R   0.170560 0.527890 0.952050 -0.516116
O3    O     O_R   0.987620 0.318470 0.945550 -0.495587
O4    O     O_R   0.678640 0.153520 0.554450 -0.496807
O5    O     O_R   0.976400 0.159270 0.031530 -0.518751
O6    O     O_R   0.194000 0.188570 0.028560 -0.502625
O7    O     O_R   0.365260 0.335720 0.039020 -0.516798
O8    O     O_R   0.330440 0.515580 0.044910 -0.493606
O9    O     O_R   0.177310 0.536200 0.050190 -0.511481
O10   O     O_R   0.993870 0.326170 0.036530 -0.503327
O11   O     O_3   0.169610 0.339550 0.991190 -0.243211
O12   O     O_R   0.480180 0.824400 0.444640 -0.495530
O13   O     O_R   0.698130 0.004030 0.549500 -0.513484
O14   O     O_R   0.481060 0.827210 0.535360 -0.505176
O15   O     O_R   0.309260 0.811560 0.537660 -0.515455
O16   O     O_R   0.341620 0.023400 0.546290 -0.494328
O17   O     O_R   0.493030 0.185890 0.461780 -0.517040
O18   O     O_R   0.677760 0.150720 0.463730 -0.503377
O19   O     O_R   0.697180 0.001010 0.451640 -0.517486
O20   O     O_R   0.308310 0.808540 0.439800 -0.513650
O21   O     O_R   0.340740 0.020600 0.455570 -0.503192
O22   O     O_3   0.500010 0.000010 0.499990 -0.239566
O23   O     O_R   0.969650 0.150960 0.933380 -0.507811
O24   O     O_R   0.187740 0.180870 0.937580 -0.494246
O25   O     O_R   0.358510 0.327410 0.940870 -0.513008
O26   O     O_R   0.324180 0.507870 0.953930 -0.503824

loop_
_geom_bond_atom_site_label_1
_geom_bond_atom_site_label_2
_ccdc_geom_bond_type
C66   C68   A    
C21   C26   S    
C98   H50   S    
C11   C18   S    
C26   C32   S    
Cr4   O5    S    
C90   O5    A    
C27   C29   S    
C86   O7    A    
C73   C74   A    
C5    C56   A    
C96   H54   S    
C35   C36   S    
C17   C91   S    
C52   O21   A    
C4    O15   A    
C5    C67   A    
C49   C50   A    
C88   C96   S    
C97   C98   S    
C65   C86   S    
C39   C41   S    
C98   H48   S    
C53   C54   A    
Cr4   O11   S    
C7    C11   S    
C95   H42   S    
C12   C23   A    
Cr4   O24   S    
C22   C32   T    
C9    C16   S    
C69   C70   A    
C10   H45   S    
C23   H15   S    
C30   C31   S    
C35   H6    S    
C22   C85   S    
C74   H21   S    
C20   C25   S    
C73   H22   S    
C8    C83   S    
C29   C33   S    
Cr5   O11   S    
C77   H27   S    
C97   H52   S    
C70   C81   S    
C92   H39   S    
C92   C93   S    
Cr3   O16   S    
C58   C65   A    
Cr6   O3    S    
C11   C15   S    
C9    C19   T    
C66   C72   A    
C45   C56   A    
C16   O16   A    
C68   C69   A    
C7    C17   S    
Cr2   O14   S    
Cr5   O8    S    
Cr4   O6    S    
C83   O24   A    
C36   C46   S    
C70   C71   A    
C3    C12   S    
C37   C47   T    
C35   C43   S    
C78   H31   S    
C76   C88   A    
C38   C48   T    
C84   O2    A    
C20   C29   S    
Cr1   O4    S    
C72   C94   S    
C39   H10   S    
C96   H53   S    
C98   H49   S    
C59   C60   A    
C78   C89   A    
C15   H23   S    
C13   C14   S    
C27   C30   S    
C59   H19   S    
C51   H20   S    
C21   H55   S    
C14   C17   S    
C83   O25   A    
C36   C41   S    
C68   H25   S    
C50   H17   S    
C42   C44   S    
C74   C82   A    
C41   C47   S    
C44   C46   S    
C39   C42   S    
C40   O20   A    
C55   H16   S    
C77   C79   A    
C16   O1    A    
C85   O23   A    
Cr4   O23   S    
C12   C88   A    
C4    O14   A    
Cr5   O25   S    
C10   C11   S    
C91   C92   S    
C7    H33   S    
C5    C84   S    
C76   H30   S    
C27   H2    S    
C25   C26   S    
C49   C55   A    
C87   O8    A    
C8    C18   T    
C60   C61   A    
C51   C53   A    
C2    C89   S    
C28   C66   S    
C28   O19   A    
Cr1   O17   S    
C62   C63   T    
C93   H35   S    
C6    C14   S    
C21   C31   S    
C42   H9    S    
C23   C34   A    
C87   O9    A    
C96   C97   S    
Cr2   O13   S    
C34   C64   A    
C50   C51   A    
C64   C76   A    
C95   H43   S    
C94   C95   S    
C60   H18   S    
Cr2   O19   S    
C28   O18   A    
C6    H12   S    
Cr1   O22   S    
Cr6   O11   S    
Cr3   O22   S    
Cr6   O9    S    
Cr1   O1    S    
C44   H8    S    
C26   C30   S    
C13   C15   S    
Cr2   O12   S    
C58   H11   S    
C41   C44   S    
C71   H24   S    
C84   O26   A    
C94   H46   S    
C42   C43   S    
C30   H58   S    
Cr6   O10   S    
C91   H41   S    
C93   H37   S    
C75   H28   S    
C57   H13   S    
C91   H40   S    
C43   C48   S    
C15   C17   S    
C54   C55   A    
C1    O13   A    
C69   H29   S    
C45   C89   A    
C14   C19   S    
C37   C87   S    
Cr5   O26   S    
C49   C52   S    
C80   C81   T    
C73   C79   A    
C10   C13   S    
Cr3   O21   S    
Cr6   O2    S    
C75   C82   A    
C57   C61   A    
C6    C7    S    
C25   C27   S    
C4    C64   S    
C31   H57   S    
C24   C33   T    
C82   C90   S    
C67   C78   A    
C85   O3    A    
C13   H34   S    
C54   H14   S    
C2    C3    T    
C94   H47   S    
C52   O17   A    
C71   C72   A    
C29   C31   S    
C93   H36   S    
C59   C65   A    
C38   C40   S    
C53   C63   S    
C57   C58   A    
C1    O4    A    
C35   C39   S    
C92   H38   S    
C67   H32   S    
C97   H51   S    
C61   C62   S    
Cr2   O22   S    
C43   C46   S    
C56   H1    S    
Cr3   O15   S    
C6    C10   S    
C79   C80   S    
Cr1   O18   S    
C95   H44   S    
C20   C21   S    
C34   H26   S    
C1    C24   S    
C40   O12   A    
C20   H56   S    
C75   C77   A    
C90   O10   A    
C36   H5    S    
Cr5   O7    S    
C86   O6    A    
C46   H7    S    
Cr3   O20   S    
C45   H3    S    
C25   H4    S    
