data_mof_unit_26854.cif
_audit_creation_date              2012-10-26T17:12:47-0400
_audit_creation_method            fapswitch 2.2
_symmetry_space_group_name_H-M    P1
_symmetry_Int_Tables_number       1
_space_group_crystal_system       triclinic
_cell_length_a                    27.999584
_cell_length_b                    18.780677
_cell_length_c                    16.879264
_cell_angle_alpha                 90.181975
_cell_angle_beta                  62.584031
_cell_angle_gamma                 90.294184
_cell_volume                      7878.98592367

loop_
_atom_site_label
_atom_site_type_symbol
_atom_type_description
_atom_site_fract_x
_atom_site_fract_y
_atom_site_fract_z
_atom_type_partial_charge
C1    C     C_R   0.295839 0.730582 0.328768 0.794364
C2    C     C_R   0.597103 0.000726 0.514139 0.065975
C3    C     C_R   0.696247 0.708458 0.900817 0.073789
C4    C     C_R   0.117920 0.826808 0.044442 -0.173061
C5    C     C_R   0.881800 0.172769 0.955686 -0.171994
C6    C     C_R   0.883584 0.824398 0.954993 -0.172479
C7    C     C_R   0.115261 0.177248 0.045555 -0.172424
C8    C     C_R   0.649564 0.379161 0.015105 -0.179067
C9    C     C_R   0.350264 0.620456 0.985100 -0.179563
C10   C     C_R   0.347469 0.385321 0.990073 -0.179699
C11   C     C_R   0.651532 0.616926 0.011363 -0.179031
C12   C     C_R   0.147616 0.814801 0.090339 -0.214451
C13   C     C_R   0.912405 0.500477 0.455952 0.066094
C14   C     C_R   0.852018 0.184586 0.909898 -0.213817
C15   C     C_R   0.854068 0.812343 0.908746 -0.213725
C16   C     C_R   0.144399 0.190209 0.092256 -0.214086
C17   C     C_R   0.671923 0.352450 0.066896 -0.218411
C18   C     C_R   0.327803 0.647015 0.933392 -0.217942
C19   C     C_R   0.324364 0.360098 0.938463 -0.219157
C20   C     C_R   0.674146 0.642930 0.063318 -0.219970
C21   C     C_R   0.272080 0.757641 0.769962 -0.169621
C22   C     C_R   0.727737 0.241960 0.230281 -0.170576
C23   C     C_R   0.728831 0.754106 0.228666 -0.177236
C24   C     C_R   0.100133 0.499751 0.503284 0.067726
C25   C     C_R   0.270242 0.248279 0.772573 -0.175635
C26   C     C_R   0.744261 0.200169 0.791290 -0.167268
C27   C     C_R   0.255429 0.799407 0.208891 -0.167268
C28   C     C_R   0.252847 0.203470 0.209967 -0.175841
C29   C     C_R   0.745852 0.798409 0.790750 -0.167913
C30   C     C_R   0.295819 0.729522 0.818970 -0.215862
C31   C     C_R   0.703913 0.269939 0.181326 -0.216981
C32   C     C_R   0.705407 0.725585 0.179141 -0.217998
C33   C     C_R   0.293185 0.277576 0.822415 -0.216180
C34   C     C_R   0.776099 0.186037 0.832886 -0.212982
C35   C     C_R   0.616594 0.882200 0.449288 -0.200041
C36   C     C_R   0.223499 0.813347 0.167419 -0.213563
C37   C     C_R   0.220271 0.190831 0.169206 -0.224081
C38   C     C_R   0.778073 0.811833 0.831998 -0.215460
C39   C     C_R   0.927830 0.900850 0.064926 0.809450
C40   C     C_R   0.072096 0.099244 0.935123 0.809218
C41   C     C_R   0.072376 0.901139 0.934854 0.807604
C42   C     C_R   0.927599 0.098831 0.065162 0.807752
C43   C     C_R   0.423393 0.407547 0.068927 0.813215
C44   C     C_R   0.576505 0.592642 0.931172 0.813551
C45   C     C_R   0.576362 0.407055 0.931336 0.810815
C46   C     C_R   0.383321 0.117819 0.550933 -0.200289
C47   C     C_R   0.423617 0.592909 0.068682 0.809789
C48   C     C_R   0.040241 0.625324 0.529189 0.102265
C49   C     C_R   0.972686 0.374720 0.426621 0.102680
C50   C     C_R   0.955770 0.628319 0.484039 0.094090
C51   C     C_R   0.069672 0.376716 0.440025 0.099593
C52   C     C_R   0.528367 0.119725 0.570590 0.101894
C53   C     C_R   0.471581 0.880315 0.429577 0.101901
C54   C     C_R   0.430848 0.117957 0.559293 0.103681
C55   C     C_R   0.569080 0.882074 0.440907 0.103652
C56   C     C_R   0.013804 0.689472 0.533404 -0.199791
C57   C     C_R   0.422386 0.878960 0.426248 -0.201195
C58   C     C_R   0.005358 0.313951 0.404857 -0.202836
C59   C     C_R   0.973305 0.691485 0.507274 -0.201132
C60   C     C_R   0.053880 0.315317 0.410064 -0.198157
C61   C     C_R   0.492798 0.177464 0.602371 -0.199138
C62   C     C_R   0.507175 0.822609 0.397699 -0.199137
C63   C     C_R   0.444340 0.176417 0.597252 -0.198922
C64   C     C_R   0.555630 0.823654 0.402824 -0.198777
C65   C     C_R   0.979943 0.563572 0.484211 0.026995
C66   C     C_R   0.037481 0.437678 0.461548 0.025672
C67   C     C_R   0.024591 0.562747 0.501382 0.024526
C68   C     C_R   0.577586 0.121082 0.573861 -0.201358
C69   C     C_R   0.989821 0.437275 0.452027 0.025837
C70   C     C_R   0.465695 0.059303 0.528582 0.024451
C71   C     C_R   0.534216 0.940710 0.471681 0.024416
C72   C     C_R   0.514393 0.059951 0.534888 0.023851
C73   C     C_R   0.485524 0.940065 0.465366 0.023814
C74   C     C_R   0.451284 0.999497 0.493479 -0.022981
C75   C     C_R   0.548627 0.000511 0.506790 -0.022958
C76   C     C_R   0.960723 0.500313 0.463935 -0.023396
C77   C     C_R   0.053758 0.499794 0.489782 -0.023548
C78   C     C_R   0.386312 0.936907 0.457860 -0.031106
C79   C     C_R   0.117226 0.378079 0.448234 -0.198901
C80   C     C_R   0.613646 0.063115 0.542279 -0.031084
C81   C     C_R   0.629335 0.938849 0.492078 -0.032175
C82   C     C_R   0.370588 0.061154 0.508135 -0.032135
C83   C     C_R   0.890293 0.435381 0.445024 -0.029285
C84   C     C_R   0.116445 0.563142 0.530187 -0.031362
C85   C     C_R   0.130689 0.436916 0.487647 -0.033526
C86   C     C_R   0.887044 0.566007 0.458170 -0.029886
C87   C     C_R   0.334400 0.935302 0.461456 -0.224852
C88   C     C_R   0.665578 0.064711 0.538618 -0.224775
C89   C     C_R   0.673216 0.936492 0.513295 -0.228828
C90   C     C_R   0.914665 0.629324 0.459891 -0.200269
C91   C     C_R   0.326741 0.063512 0.486828 -0.229280
C92   C     C_R   0.836799 0.434811 0.454135 -0.232947
C93   C     C_R   0.166270 0.564366 0.534133 -0.228858
C94   C     C_R   0.173522 0.435739 0.511620 -0.234519
C95   C     C_R   0.835560 0.565610 0.459243 -0.231153
C96   C     C_R   0.308452 0.999851 0.466344 0.526834
C97   C     C_R   0.691523 0.000156 0.533733 0.526628
C98   C     C_R   0.811733 0.500100 0.456776 0.524534
C99   C     C_R   0.191060 0.499707 0.533056 0.527737
C100  C     C_R   0.923377 0.373963 0.423329 -0.199754
C101  C     C_R   0.704137 0.269377 0.671242 0.797058
C102  C     C_R   0.082956 0.623537 0.549957 -0.196180
C103  C     C_R   0.220997 0.771108 0.954420 0.026142
C104  C     C_R   0.778683 0.228305 0.045845 0.026331
C105  C     C_R   0.780351 0.768321 0.044353 0.025332
C106  C     C_R   0.218161 0.234578 0.956925 0.024984
C107  C     C_R   0.723070 0.268581 0.950147 0.026342
C108  C     C_R   0.276585 0.730837 0.050158 0.026224
C109  C     C_R   0.273462 0.274502 0.053329 0.026704
C110  C     C_R   0.724914 0.728387 0.948192 0.026003
C111  C     C_R   0.269657 0.733384 0.911986 0.044374
C112  C     C_R   0.704146 0.730631 0.671292 0.814780
C113  C     C_R   0.730017 0.266008 0.088312 0.044514
C114  C     C_R   0.731767 0.729992 0.086234 0.047802
C115  C     C_R   0.266608 0.273274 0.915316 0.047447
C116  C     C_R   0.767207 0.221831 0.911319 0.042118
C117  C     C_R   0.232400 0.777515 0.089009 0.042221
C118  C     C_R   0.229127 0.227636 0.091642 0.044936
C119  C     C_R   0.769148 0.775382 0.909832 0.042925
C120  C     C_R   0.292326 0.704353 0.963652 0.047011
C121  C     C_R   0.707335 0.295042 0.036664 0.047029
C122  C     C_R   0.709313 0.700979 0.034117 0.046482
C123  C     C_R   0.295765 0.269524 0.328739 0.798724
C124  C     C_R   0.288983 0.302239 0.967592 0.046003
C125  C     C_R   0.799331 0.210287 0.954853 0.044056
C126  C     C_R   0.200295 0.789057 0.045442 0.044615
C127  C     C_R   0.197101 0.216414 0.047884 0.045046
C128  C     C_R   0.801257 0.786594 0.953441 0.044448
C129  C     C_R   0.141831 0.822368 0.950181 0.063142
C130  C     C_R   0.857970 0.177307 0.049936 0.062520
C131  C     C_R   0.859225 0.820324 0.049274 0.061179
C132  C     C_R   0.139932 0.181066 0.951246 0.061521
C133  C     C_R   0.655241 0.343226 0.937351 0.063719
C134  C     C_R   0.792548 0.223699 0.330817 0.799895
C135  C     C_R   0.344587 0.656459 0.062817 0.063595
C136  C     C_R   0.342490 0.347307 0.065800 0.060553
C137  C     C_R   0.656632 0.654375 0.935194 0.061457
C138  C     C_R   0.116685 0.848326 0.899028 -0.123057
C139  C     C_R   0.883230 0.151555 0.101012 -0.122819
C140  C     C_R   0.883916 0.847298 0.100670 -0.124328
C141  C     C_R   0.115769 0.153164 0.899496 -0.124326
C142  C     C_R   0.624178 0.359876 0.892283 -0.120647
C143  C     C_R   0.375744 0.639992 0.107782 -0.120566
C144  C     C_R   0.374917 0.361535 0.108993 -0.122118
C145  C     C_R   0.207435 0.776270 0.669199 0.804385
C146  C     C_R   0.624707 0.639143 0.891379 -0.121671
C147  C     C_R   0.138828 0.831140 0.808368 -0.274025
C148  C     C_R   0.861144 0.168836 0.191636 -0.274811
C149  C     C_R   0.861566 0.830613 0.191455 -0.272968
C150  C     C_R   0.138364 0.169475 0.808577 -0.269842
C151  C     C_R   0.639111 0.330785 0.807807 -0.268879
C152  C     C_R   0.360844 0.669163 0.192207 -0.271363
C153  C     C_R   0.360737 0.331161 0.192422 -0.268450
C154  C     C_R   0.639096 0.669038 0.807626 -0.265815
C155  C     C_R   0.188193 0.796204 0.764232 -0.113603
C156  C     C_R   0.207170 0.224233 0.669499 0.801658
C157  C     C_R   0.811740 0.203674 0.235827 -0.112385
C158  C     C_R   0.812257 0.795091 0.235383 -0.111992
C159  C     C_R   0.187447 0.205566 0.764920 -0.116081
C160  C     C_R   0.681880 0.283013 0.768496 -0.118407
C161  C     C_R   0.318022 0.716850 0.231554 -0.117524
C162  C     C_R   0.317335 0.284039 0.231997 -0.117625
C163  C     C_R   0.682248 0.716568 0.768221 -0.121712
C164  C     C_R   0.217988 0.781075 0.811865 0.059871
C165  C     C_R   0.781851 0.218607 0.188296 0.059762
C166  C     C_R   0.782794 0.778732 0.187327 0.064540
C167  C     C_R   0.792744 0.775950 0.330592 0.789962
C168  C     C_R   0.216442 0.222988 0.813469 0.064723
C169  C     C_R   0.706951 0.256956 0.819691 0.058750
C170  C     C_R   0.292824 0.742714 0.180464 0.059048
C171  C     C_R   0.290906 0.259809 0.181833 0.058187
C172  C     C_R   0.708098 0.741733 0.818870 0.058873
C173  C     C_R   0.196771 0.631595 0.526549 0.859499
C174  C     C_R   0.803847 0.368117 0.471073 0.859758
C175  C     C_R   0.803104 0.631649 0.473735 0.871170
C176  C     C_R   0.200298 0.368919 0.514967 0.871400
C177  C     C_R   0.696451 0.131871 0.528159 0.829153
C178  C     C_R   0.402823 0.999282 0.486082 0.066060
C179  C     C_R   0.303544 0.868133 0.471856 0.829562
C180  C     C_R   0.299702 0.130886 0.485075 0.844828
C181  C     C_R   0.700282 0.869117 0.514972 0.844493
C182  C     C_R   0.193326 0.791137 0.905464 0.072626
C183  C     C_R   0.806442 0.208437 0.094720 0.072359
C184  C     C_R   0.807737 0.788704 0.093702 0.072105
C185  C     C_R   0.191203 0.213373 0.907170 0.072914
C186  C     C_R   0.694743 0.289280 0.902501 0.072963
C187  C     C_R   0.304997 0.710294 0.097724 0.072687
C188  C     C_R   0.302529 0.293651 0.100319 0.073333
Cu1   Cu    Cu3+1 0.209920 0.785290 0.495070 0.971960
Cu2   Cu    Cu3+1 0.504760 0.500000 0.075850 0.935131
Cu3   Cu    Cu3+1 0.995240 0.000000 0.924150 0.936839
Cu4   Cu    Cu3+1 0.004760 0.000000 0.075850 0.934676
Cu5   Cu    Cu3+1 0.790080 0.214710 0.504930 0.973855
Cu6   Cu    Cu3+1 0.790080 0.785290 0.504930 0.966293
Cu7   Cu    Cu3+1 0.209920 0.214710 0.495070 0.970023
Cu8   Cu    Cu3+1 0.709920 0.285290 0.495070 0.978925
Cu9   Cu    Cu3+1 0.290080 0.714710 0.504930 0.977441
Cu10  Cu    Cu3+1 0.290080 0.285290 0.504930 0.979297
Cu11  Cu    Cu3+1 0.709920 0.714710 0.495070 0.980599
Cu12  Cu    Cu3+1 0.495240 0.500000 0.924150 0.936730
F1    F     F_    0.264328 0.000297 0.452432 -0.640433
F2    F     F_    0.735671 0.999709 0.547576 -0.640665
F3    F     F_    0.762447 0.499843 0.459534 -0.633944
F4    F     F_    0.233352 0.499412 0.551856 -0.633510
H1    H     H_    0.582218 0.778198 0.378238 0.131224
H2    H     H_    0.355956 0.161412 0.581257 0.155721
H3    H     H_    0.413833 0.833593 0.395175 0.161972
H4    H     H_    0.586179 0.166465 0.604846 0.161927
H5    H     H_    0.143752 0.333364 0.420305 0.174133
H6    H     H_    0.907486 0.680665 0.440041 0.178861
H7    H     H_    0.912807 0.325858 0.399814 0.166063
H8    H     H_    0.088628 0.669712 0.582904 0.167662
H9    H     H_    0.118103 0.847311 0.770777 0.191421
H10   H     H_    0.881951 0.152824 0.229155 0.191040
H11   H     H_    0.882017 0.847719 0.229327 0.192370
H12   H     H_    0.417786 0.221904 0.621722 0.131542
H13   H     H_    0.118309 0.151611 0.770379 0.193608
H14   H     H_    0.618171 0.347388 0.770732 0.192964
H15   H     H_    0.381864 0.652703 0.229210 0.192591
H16   H     H_    0.382785 0.346161 0.228474 0.194588
H17   H     H_    0.617450 0.653290 0.771176 0.194705
H18   H     H_    0.075779 0.837749 0.085122 0.171458
H19   H     H_    0.923947 0.161940 0.914909 0.172631
H20   H     H_    0.925835 0.835467 0.914780 0.169808
H21   H     H_    0.073078 0.165523 0.085382 0.169053
H22   H     H_    0.629959 0.429687 0.036819 0.167878
H23   H     H_    0.497396 0.776400 0.369266 0.139624
H24   H     H_    0.369983 0.570018 0.963314 0.167431
H25   H     H_    0.367539 0.435937 0.969806 0.165957
H26   H     H_    0.631906 0.566045 0.031640 0.166701
H27   H     H_    0.127794 0.821756 0.162039 0.143028
H28   H     H_    0.871794 0.177576 0.838208 0.144119
H29   H     H_    0.874029 0.819341 0.837061 0.141991
H30   H     H_    0.124280 0.183308 0.163960 0.139135
H31   H     H_    0.664259 0.380366 0.127813 0.145138
H32   H     H_    0.335481 0.619070 0.872482 0.145443
H33   H     H_    0.331730 0.389021 0.878471 0.145337
H34   H     H_    0.502609 0.223709 0.630682 0.139803
H35   H     H_    0.666765 0.614272 0.123485 0.144986
H36   H     H_    0.298415 0.762563 0.699629 0.181674
H37   H     H_    0.701467 0.237112 0.300649 0.182128
H38   H     H_    0.702242 0.758209 0.298868 0.165397
H39   H     H_    0.297173 0.243937 0.702527 0.165086
H40   H     H_    0.748918 0.164359 0.738205 0.181957
H41   H     H_    0.250792 0.835335 0.261854 0.182198
H42   H     H_    0.248283 0.166651 0.261855 0.185785
H43   H     H_    0.750539 0.834696 0.738291 0.182953
H44   H     H_    0.336456 0.709372 0.783200 0.147111
H45   H     H_    0.078441 0.267796 0.392608 0.137019
H46   H     H_    0.663275 0.290077 0.217135 0.147217
H47   H     H_    0.664822 0.704731 0.214448 0.140232
H48   H     H_    0.333696 0.298718 0.787349 0.140353
H49   H     H_    0.805474 0.143836 0.806039 0.145546
H50   H     H_    0.194076 0.855486 0.194294 0.145305
H51   H     H_    0.190534 0.148719 0.195610 0.145214
H52   H     H_    0.807714 0.854047 0.805537 0.144994
H53   H     H_    0.954491 0.741952 0.508072 0.136914
H54   H     H_    0.993443 0.265398 0.383753 0.135774
H55   H     H_    0.025847 0.738443 0.553477 0.136471
H56   H     H_    0.643951 0.838648 0.418948 0.155754
O1    O     O_R   0.255040 0.869590 0.478480 -0.508743
O2    O     O_R   0.817950 0.203450 0.375560 -0.591613
O3    O     O_R   0.817950 0.796550 0.375560 -0.592257
O4    O     O_R   0.182050 0.203450 0.624440 -0.583482
O5    O     O_R   0.682050 0.296550 0.624440 -0.586131
O6    O     O_R   0.317950 0.703450 0.375560 -0.588633
O7    O     O_R   0.317950 0.296550 0.375560 -0.582644
O8    O     O_R   0.682050 0.703450 0.624440 -0.578278
O9    O     O_R   0.250530 0.763330 0.367210 -0.597125
O10   O     O_R   0.749470 0.236670 0.632790 -0.596588
O11   O     O_R   0.749470 0.763330 0.632790 -0.598240
O12   O     O_R   0.744960 0.130410 0.521520 -0.508707
O13   O     O_R   0.250530 0.236670 0.367210 -0.611559
O14   O     O_R   0.750530 0.263330 0.367210 -0.600207
O15   O     O_R   0.249470 0.736670 0.632790 -0.597791
O16   O     O_R   0.249470 0.263330 0.632790 -0.604495
O17   O     O_R   0.750530 0.736670 0.367210 -0.608188
O18   O     O_R   0.177260 0.690030 0.513710 -0.610902
O19   O     O_R   0.822740 0.309970 0.486290 -0.608423
O20   O     O_R   0.822740 0.690030 0.486290 -0.620447
O21   O     O_R   0.177260 0.309970 0.513710 -0.613226
O22   O     O_R   0.677260 0.190030 0.513710 -0.617902
O23   O     O_R   0.744960 0.869590 0.521520 -0.509973
O24   O     O_R   0.322740 0.809970 0.486290 -0.617744
O25   O     O_R   0.322740 0.190030 0.486290 -0.617484
O26   O     O_R   0.677260 0.809970 0.513710 -0.618014
O27   O     O_R   0.051640 0.926880 0.885090 -0.585659
O28   O     O_R   0.948360 0.073120 0.114910 -0.586108
O29   O     O_R   0.948360 0.926880 0.114910 -0.585774
O30   O     O_R   0.051640 0.073120 0.885090 -0.584931
O31   O     O_R   0.551640 0.426880 0.885090 -0.579593
O32   O     O_R   0.448360 0.573120 0.114910 -0.580320
O33   O     O_R   0.448360 0.426880 0.114910 -0.579433
O34   O     O_R   0.255040 0.130410 0.478480 -0.509396
O35   O     O_R   0.551640 0.573120 0.885090 -0.578727
O36   O     O_R   0.940620 0.926560 0.986760 -0.593406
O37   O     O_R   0.059380 0.073440 0.013240 -0.593379
O38   O     O_R   0.059380 0.926560 0.013240 -0.594345
O39   O     O_R   0.940620 0.073440 0.986760 -0.594180
O40   O     O_R   0.440620 0.426560 0.986760 -0.601977
O41   O     O_R   0.559380 0.573440 0.013240 -0.602631
O42   O     O_R   0.559380 0.426560 0.013240 -0.603161
O43   O     O_R   0.440620 0.573440 0.986760 -0.603188
O44   O     O_R   0.755040 0.369590 0.478480 -0.494079
O45   O     O_R   0.244960 0.630410 0.521520 -0.498562
O46   O     O_R   0.244960 0.369590 0.521520 -0.499490
O47   O     O_R   0.755040 0.630410 0.478480 -0.496452
O48   O     O_R   0.182050 0.796550 0.624440 -0.590032

loop_
_geom_bond_atom_site_label_1
_geom_bond_atom_site_label_2
_ccdc_geom_bond_type
C38   H52   S    
C54   C70   A    
C99   F4    S    
C108  C120  A    
C97   F2    S    
C129  C182  A    
C88   C177  S    
C7    C132  A    
C30   H44   S    
C34   H49   S    
C50   C59   A    
Cu12  O40   S    
Cu1   O9    S    
C145  O15   A    
C181  O23   A    
Cu8   O22   S    
C52   C61   A    
C18   H32   S    
C12   C126  A    
C54   C63   A    
C58   C60   A    
C62   H23   S    
C47   C143  S    
C44   O41   A    
Cu9   O6    S    
C61   C63   A    
C103  C126  A    
C95   C175  S    
C153  H16   S    
C62   C64   A    
C131  C140  A    
C91   C96   A    
C50   C90   A    
C162  C171  A    
C170  C187  A    
C70   C74   A    
C4    C12   A    
C147  C155  A    
C24   C85   A    
C112  O8    A    
C14   H28   S    
C88   C97   A    
Cu7   Cu10  S    
C119  C128  A    
C49   C69   A    
C43   C144  S    
C158  C167  S    
C6    H20   S    
C11   C20   A    
C150  C159  A    
Cu3   Cu4   S    
C165  C183  A    
C137  C146  A    
C166  C184  A    
C175  O20   A    
C86   C90   A    
C71   C73   A    
C8    H22   S    
C106  C127  A    
C82   C91   A    
C51   C66   A    
C89   C181  S    
C142  C151  A    
C52   C72   A    
C41   O38   A    
C105  C114  A    
C74   C178  A    
C82   C178  A    
C176  O46   A    
C36   C117  A    
C181  O26   A    
C38   C119  A    
Cu7   O34   S    
C5    C130  A    
C83   C100  A    
C43   O33   A    
C45   C142  S    
C177  O12   A    
C79   C85   A    
C173  O18   A    
Cu1   Cu9   S    
C66   C77   A    
C39   C140  S    
Cu9   O45   S    
C57   C78   A    
C148  H10   S    
C64   H1    S    
C8    C17   A    
C56   C59   A    
C106  C115  A    
Cu10  O7    S    
C80   C88   A    
C179  O1    A    
C93   C173  S    
Cu12  O31   S    
C9    H24   S    
C84   C93   A    
C105  C184  A    
C156  O16   A    
C86   C95   A    
C24   C77   A    
C104  C183  A    
C42   O39   A    
C2    C81   A    
C41   O27   A    
C22   H37   S    
C55   C71   A    
C2    C75   A    
C78   C87   A    
Cu5   O19   S    
Cu6   O20   S    
C39   O29   A    
C84   C102  A    
C67   C77   A    
Cu3   O27   S    
Cu8   O44   S    
C133  C142  A    
C58   H54   S    
C130  C183  A    
C27   H41   S    
C1    O9    A    
C134  C157  S    
C3    C110  A    
C69   C76   A    
C85   C94   A    
Cu12  O43   S    
C180  O25   A    
C46   C82   A    
C101  C160  S    
Cu4   O29   S    
C29   C38   A    
C63   H12   S    
C149  C158  A    
C167  O17   A    
C20   C122  A    
C152  C161  A    
C135  C143  A    
C174  O19   A    
C48   C67   A    
C40   C141  S    
C136  C188  A    
C72   C75   A    
C112  O11   A    
C135  C187  A    
C141  C150  A    
C25   C168  A    
Cu4   O38   S    
C139  C148  A    
C1    O6    A    
C98   F3    S    
Cu1   O48   S    
C157  C165  A    
C167  O3    A    
C7    H21   S    
C92   C174  S    
Cu2   O41   S    
C36   H50   S    
C33   H48   S    
C149  H11   S    
Cu7   O13   S    
Cu5   Cu8   S    
C91   C180  S    
C45   O31   A    
C28   H42   S    
C9    C135  A    
C116  C125  A    
C60   H45   S    
C118  C127  A    
Cu8   O14   S    
C12   H27   S    
C117  C126  A    
C132  C141  A    
C46   H2    S    
C180  O34   A    
C108  C117  A    
C147  H9    S    
C110  C119  A    
Cu11  O8    S    
C109  C118  A    
Cu1   O18   S    
C100  H7    S    
Cu5   O2    S    
C173  O45   A    
Cu7   O4    S    
C28   C37   A    
C150  H13   S    
C148  C157  A    
C50   C65   A    
C51   C79   A    
C107  C116  A    
C104  C113  A    
C177  O22   A    
C113  C121  A    
Cu10  O46   S    
C51   C60   A    
C140  C149  A    
C31   C113  A    
C123  O13   A    
C25   C33   A    
C43   O40   A    
C73   C74   A    
Cu4   O28   S    
Cu2   Cu12  S    
C107  C186  A    
C65   C76   A    
C171  C188  A    
C61   H34   S    
C40   O37   A    
C169  C186  A    
C19   H33   S    
C3    C172  A    
C47   O32   A    
C152  H15   S    
C103  C111  A    
Cu2   O32   S    
C104  C125  A    
C65   C67   A    
C68   H4    S    
C160  C169  A    
C40   O30   A    
C3    C137  A    
C93   C99   A    
C81   C89   A    
C8    C133  A    
C1    C161  S    
C21   C164  A    
C130  C139  A    
C35   H56   S    
C25   H39   S    
C179  O24   A    
C53   C73   A    
C33   C115  A    
Cu6   O3    S    
C112  C163  S    
C53   C57   A    
C132  C185  A    
Cu3   O39   S    
C16   H30   S    
C10   C19   A    
C48   C102  A    
C46   C54   A    
Cu1   O1    S    
C27   C170  A    
C5    C14   A    
C17   C121  A    
C143  C152  A    
C15   C128  A    
C56   H55   S    
C107  C121  A    
C158  C166  A    
C79   H5    S    
Cu11  O26   S    
C101  O5    A    
C175  O47   A    
C115  C124  A    
C78   C178  A    
C106  C185  A    
C6    C131  A    
C4    C129  A    
C32   H47   S    
C27   C36   A    
C21   C30   A    
C13   C83   A    
C153  C162  A    
C23   C32   A    
C154  H17   S    
C11   C137  A    
C136  C144  A    
C110  C122  A    
C102  H8    S    
Cu11  O17   S    
C4    H18   S    
C164  C182  A    
C123  O7    A    
C59   H53   S    
C94   C176  S    
C68   C80   A    
Cu3   O30   S    
C103  C182  A    
C108  C187  A    
C35   C81   A    
C95   C98   A    
C92   C98   A    
C96   F1    S    
C83   C92   A    
C14   C125  A    
C10   C136  A    
Cu9   O15   S    
C26   H40   S    
C66   C69   A    
Cu10  O16   S    
Cu2   O33   S    
C34   C116  A    
Cu2   O42   S    
C159  C168  A    
C131  C184  A    
Cu11  O47   S    
C144  C153  A    
C6    C15   A    
C22   C165  A    
C26   C34   A    
C37   C118  A    
C26   C169  A    
C37   H51   S    
C44   O35   A    
C146  C154  A    
C13   C86   A    
C44   C146  S    
C52   C68   A    
Cu10  O25   S    
C134  O2    A    
C156  O4    A    
Cu5   O10   S    
C29   H43   S    
Cu8   O5    S    
C16   C127  A    
C17   H31   S    
C109  C188  A    
C19   C124  A    
C22   C31   A    
C129  C138  A    
C35   C55   A    
C154  C163  A    
C90   H6    S    
C123  C162  S    
C10   H25   S    
C49   C58   A    
C31   H46   S    
C89   C97   A    
C111  C120  A    
C114  C122  A    
C176  O21   A    
C163  C172  A    
C23   C166  A    
C53   C62   A    
C9    C18   A    
C28   C171  A    
Cu6   Cu11  S    
C13   C76   A    
C138  C147  A    
C87   C96   A    
C15   H29   S    
C41   C138  S    
C151  H14   S    
C45   O42   A    
C23   H38   S    
C133  C186  A    
C161  C170  A    
Cu3   O36   S    
C5    H19   S    
C11   H26   S    
Cu6   O23   S    
C134  O14   A    
Cu12  O35   S    
C174  O44   A    
C18   C120  A    
C145  O48   A    
Cu4   O37   S    
C48   C56   A    
C7    C16   A    
C168  C185  A    
C105  C128  A    
C42   C139  S    
C156  C159  S    
C47   O43   A    
C109  C124  A    
C55   C64   A    
C155  C164  A    
C20   H35   S    
C101  O10   A    
C57   H3    S    
C30   C111  A    
Cu7   O21   S    
C151  C160  A    
C24   C84   A    
C49   C100  A    
C71   C75   A    
C94   C99   A    
C29   C172  A    
Cu9   O24   S    
C2    C80   A    
C87   C179  S    
C145  C155  S    
C21   H36   S    
C39   O36   A    
Cu5   O12   S    
C70   C72   A    
Cu6   O11   S    
C32   C114  A    
C42   O28   A    
