data_mof_unit_68165.cif
_audit_creation_date              2012-12-11T16:27:30-0500
_audit_creation_method            fapswitch 2.2
_symmetry_space_group_name_H-M    P1
_symmetry_Int_Tables_number       1
_space_group_crystal_system       triclinic
_cell_length_a                    22.607456
_cell_length_b                    7.081387
_cell_length_c                    15.396311
_cell_angle_alpha                 90.161041
_cell_angle_beta                  106.050427
_cell_angle_gamma                 89.579226
_cell_volume                      2368.68165425

loop_
_atom_site_label
_atom_site_type_symbol
_atom_type_description
_atom_site_fract_x
_atom_site_fract_y
_atom_site_fract_z
_atom_type_partial_charge
O1    O     O_R   0.835850 0.638310 0.002120 -0.538138
O2    O     O_R   0.164150 0.361690 0.997880 -0.516135
O3    O     O_R   0.664150 0.138310 0.997880 -0.538147
O4    O     O_R   0.335850 0.861690 0.002120 -0.520617
O5    O     O_R   0.717530 0.306070 0.861970 -0.593843
O6    O     O_R   0.282470 0.693930 0.138030 -0.556626
O7    O     O_R   0.782470 0.806070 0.138030 -0.584252
O8    O     O_R   0.217530 0.193930 0.861970 -0.542650
C1    C     C_R   0.696752 0.475161 0.829902 0.840847
C2    C     C_R   0.304256 0.524693 0.169538 0.888767
C3    C     C_R   0.808045 0.974089 0.164633 0.867527
C4    C     C_R   0.193748 0.024643 0.832159 0.881499
O9    O     O_R   0.838690 0.308440 0.993250 -0.543894
O10   O     O_R   0.161310 0.691560 0.006750 -0.560176
O11   O     O_R   0.661310 0.808440 0.006750 -0.533893
O12   O     O_R   0.338690 0.191560 0.993250 -0.550610
O13   O     O_R   0.786170 0.140510 0.130090 -0.513358
O14   O     O_R   0.213830 0.859490 0.869910 -0.568208
O15   O     O_R   0.713830 0.640510 0.869910 -0.516541
O16   O     O_R   0.286170 0.359490 0.130090 -0.556319
C5    C     C_R   0.864802 0.478819 0.993148 0.781311
C6    C     C_R   0.135607 0.522268 0.006074 0.851606
C7    C     C_R   0.635617 0.979482 0.007580 0.829203
C8    C     C_R   0.364935 0.021692 0.995783 0.854759
O17   O     O_3   0.732630 0.472520 0.044740 -0.408307
O18   O     O_3   0.267370 0.527480 0.955260 -0.421172
O19   O     O_3   0.767370 0.972520 0.955260 -0.414913
O20   O     O_3   0.232630 0.027480 0.044740 -0.424045
V1    V     V_3+5 0.753220 0.196740 0.991700 1.432788
V2    V     V_3+5 0.246780 0.803260 0.008300 1.418406
V3    V     V_3+5 0.746780 0.696740 0.008300 1.443213
V4    V     V_3+5 0.253220 0.303260 0.991700 1.446764
C9    C     C_R   0.535389 0.967127 0.836140 0.403737
C10   C     C_R   0.465205 0.996041 0.165625 0.385560
C11   C     C_R   0.965352 0.466752 0.164778 0.409150
C12   C     C_R   0.036254 0.482818 0.835978 0.392352
C13   C     C_R   0.490956 0.996644 0.752591 0.033881
C14   C     C_R   0.510037 0.035640 0.247905 0.074680
C15   C     C_R   0.009489 0.496996 0.248428 0.038990
C16   C     C_R   0.990695 0.498885 0.753694 0.090361
C17   C     C_R   0.430649 0.045642 0.750908 0.086883
C18   C     C_R   0.569650 0.084674 0.246898 0.096183
C19   C     C_R   0.069770 0.544665 0.250583 0.075656
C20   C     C_R   0.931996 0.559015 0.752897 0.089932
C21   C     C_R   0.412521 0.059399 0.830916 0.368111
C22   C     C_R   0.585585 0.094696 0.164798 0.351992
C23   C     C_R   0.088141 0.556601 0.170858 0.375044
C24   C     C_R   0.916455 0.588593 0.834714 0.342765
C25   C     C_R   0.454666 0.019808 0.916141 -0.127992
C26   C     C_R   0.544887 0.027193 0.083461 -0.150966
C27   C     C_R   0.046003 0.519956 0.085302 -0.122673
C28   C     C_R   0.956387 0.524133 0.917466 -0.145057
C29   C     C_R   0.518938 0.990090 0.919131 -0.059399
C30   C     C_R   0.481062 0.005669 0.081777 -0.056575
C31   C     C_R   0.981735 0.489844 0.081863 -0.051586
C32   C     C_R   0.020466 0.501708 0.919943 -0.073362
C33   C     C_R   0.434121 0.010554 0.997294 -0.053911
C34   C     C_R   0.565798 0.993987 0.003929 -0.076964
C35   C     C_R   0.066784 0.511894 0.004391 -0.058592
C36   C     C_R   0.934885 0.492923 0.996806 -0.058912
C37   C     C_R   0.161257 0.011373 0.734531 -0.270079
C38   C     C_R   0.839320 0.988587 0.260734 -0.270857
C39   C     C_R   0.337181 0.519326 0.267297 -0.293849
C40   C     C_R   0.667940 0.481189 0.731167 -0.277396
C41   C     C_R   0.176065 0.049622 0.588730 0.407875
C42   C     C_R   0.825409 0.093035 0.400959 0.433889
C43   C     C_R   0.324264 0.549202 0.415764 0.409679
C44   C     C_R   0.682967 0.575737 0.589720 0.431654
C45   C     C_R   0.198960 0.001330 0.678220 0.349817
C46   C     C_R   0.801185 0.038801 0.313046 0.329189
C47   C     C_R   0.300498 0.506738 0.325222 0.363529
C48   C     C_R   0.707284 0.513329 0.677865 0.337345
C49   C     C_R   0.096207 0.002427 0.696463 0.089240
C50   C     C_R   0.903821 0.978885 0.298357 0.071531
C51   C     C_R   0.402266 0.528775 0.303553 0.093424
C52   C     C_R   0.603340 0.474934 0.691950 0.073515
C53   C     C_R   0.071651 0.989250 0.598028 -0.013154
C54   C     C_R   0.927728 0.987454 0.396372 -0.011720
C55   C     C_R   0.428575 0.528828 0.401508 -0.020869
C56   C     C_R   0.578360 0.494425 0.594088 -0.006858
C57   C     C_R   0.114290 0.016322 0.545459 -0.138021
C58   C     C_R   0.885187 0.035179 0.445440 -0.133550
C59   C     C_R   0.387354 0.531547 0.456275 -0.138769
C60   C     C_R   0.620134 0.549761 0.544389 -0.164649
C61   C     C_R   0.007684 0.972877 0.546727 0.085736
C62   C     C_R   0.990463 0.964002 0.449784 0.084828
C63   C     C_R   0.493014 0.532176 0.449828 0.094286
C64   C     C_R   0.514219 0.481535 0.543509 0.094565
C65   C     C_R   0.036885 0.934198 0.410272 -0.192284
C66   C     C_R   0.959607 0.959484 0.586052 -0.160560
C67   C     C_R   0.469208 0.433107 0.584011 -0.188721
C68   C     C_R   0.535666 0.599728 0.409660 -0.182023
C69   C     C_R   0.095763 0.998944 0.450821 0.559032
C70   C     C_R   0.899768 0.005837 0.537710 0.551256
C71   C     C_R   0.409278 0.502080 0.550014 0.568704
C72   C     C_R   0.598616 0.592330 0.451256 0.568656
H1    H     H_    0.028279 0.866149 0.346866 0.181990
H2    H     H_    0.965672 0.899576 0.651079 0.183005
H3    H     H_    0.479732 0.352580 0.644364 0.186332
H4    H     H_    0.520514 0.670316 0.346216 0.185639
I1    I     I_    0.637135 0.133800 0.372428 -0.345620
I2    I     I_    0.362930 0.074027 0.625201 -0.342766
I3    I     I_    0.866737 0.581017 0.624831 -0.307853
I4    I     I_    0.137513 0.568608 0.376826 -0.345988
O21   O     O_3   0.590184 0.875124 0.837863 -0.541504
C73   C     C_3   0.627889 0.976114 0.795223 -0.092997
H5    H     H_    0.610654 0.117616 0.770571 0.134459
H6    H     H_    0.635748 0.890998 0.738850 0.149882
H7    H     H_    0.673215 0.992604 0.843167 0.183833
O22   O     O_3   0.411013 0.906360 0.166930 -0.544889
C74   C     C_3   0.372324 0.016664 0.204895 -0.126926
H8    H     H_    0.387456 0.163102 0.221216 0.144941
H9    H     H_    0.366091 0.944393 0.265518 0.149669
H10   H     H_    0.326639 0.024716 0.156891 0.178109
O23   O     O_3   0.910886 0.375532 0.163198 -0.542009
C75   C     C_3   0.872547 0.480413 0.204092 -0.100835
H11   H     H_    0.888766 0.624378 0.225486 0.128560
H12   H     H_    0.865402 0.400769 0.262166 0.145658
H13   H     H_    0.826985 0.491813 0.156139 0.185005
O24   O     O_3   0.093377 0.415161 0.833393 -0.538517
C76   C     C_3   0.127391 0.560097 0.807783 -0.127959
H14   H     H_    0.122648 0.692616 0.842347 0.138491
H15   H     H_    0.115252 0.585253 0.734554 0.147868
H16   H     H_    0.176259 0.518565 0.826722 0.173844
I5    I     I_    0.512105 0.948921 0.625821 -0.429129
I6    I     I_    0.487278 0.049294 0.375010 -0.411275
I7    I     I_    0.987878 0.453376 0.374801 -0.418039
I8    I     I_    0.011624 0.436060 0.628639 -0.386904
O25   O     O_3   0.352362 0.108642 0.824992 -0.523681
C77   C     C_3   0.345946 0.306817 0.818283 -0.144537
H17   H     H_    0.334423 0.349360 0.746984 0.159629
H18   H     H_    0.386477 0.384525 0.860845 0.101271
H19   H     H_    0.305951 0.351577 0.840737 0.177850
O26   O     O_3   0.636555 0.199424 0.162784 -0.520130
C78   C     C_3   0.616098 0.376305 0.121672 -0.116953
H20   H     H_    0.578001 0.439682 0.144847 0.105603
H21   H     H_    0.599588 0.364961 0.047069 0.160478
H22   H     H_    0.655053 0.476302 0.138353 0.142180
O27   O     O_3   0.148546 0.601618 0.177464 -0.528731
C79   C     C_3   0.154929 0.799652 0.183168 -0.160597
H23   H     H_    0.167941 0.842496 0.254343 0.155606
H24   H     H_    0.113888 0.878728 0.141941 0.110447
H25   H     H_    0.193832 0.842921 0.158453 0.181130
O28   O     O_3   0.864535 0.693720 0.833461 -0.522683
C80   C     C_3   0.883195 0.876711 0.866243 -0.111124
H26   H     H_    0.914737 0.941230 0.830707 0.120162
H27   H     H_    0.905622 0.875350 0.940228 0.153924
H28   H     H_    0.841908 0.968846 0.853921 0.136938
O29   O     O_3   0.137200 0.028631 0.399944 -0.535740
C81   C     C_3   0.106393 0.100917 0.313493 -0.205695
H29   H     H_    0.138109 0.177636 0.284078 0.180703
H30   H     H_    0.069481 0.200180 0.316163 0.197220
H31   H     H_    0.085584 0.986273 0.266930 0.140698
O30   O     O_3   0.851878 0.969447 0.573418 -0.521772
C82   C     C_3   0.853267 0.089444 0.645188 -0.198316
H32   H     H_    0.835791 0.010316 0.694481 0.163200
H33   H     H_    0.899447 0.146086 0.681313 0.141498
H34   H     H_    0.820330 0.204476 0.617524 0.211535
O31   O     O_3   0.370304 0.523986 0.605358 -0.532879
C83   C     C_3   0.403483 0.585103 0.692577 -0.220565
H35   H     H_    0.373639 0.662953 0.725410 0.157337
H36   H     H_    0.440762 0.682407 0.691214 0.199037
H37   H     H_    0.423021 0.462614 0.735182 0.154420
O32   O     O_3   0.640496 0.636883 0.403437 -0.533216
C84   C     C_3   0.619737 0.586236 0.311193 -0.252256
H38   H     H_    0.585824 0.470913 0.296245 0.188914
H39   H     H_    0.659539 0.533412 0.289811 0.161448
H40   H     H_    0.598527 0.709740 0.270209 0.144170
I9    I     I_    0.951891 0.962731 0.194851 -0.510831
I10   I     I_    0.045889 0.007452 0.797035 -0.498786
I11   I     I_    0.554841 0.464585 0.795211 -0.505267
I12   I     I_    0.451536 0.492538 0.202823 -0.498303
O33   O     O_3   0.738737 0.031497 0.277304 -0.508685
C85   C     C_3   0.721515 0.842338 0.282864 -0.086326
H41   H     H_    0.755063 0.733394 0.273560 0.062817
H42   H     H_    0.678693 0.819427 0.228342 0.131373
H43   H     H_    0.715528 0.817761 0.350761 0.221075
O34   O     O_3   0.258728 0.940682 0.710419 -0.499939
C86   C     C_3   0.258611 0.740912 0.709394 -0.140446
H44   H     H_    0.272905 0.691011 0.650000 0.184746
H45   H     H_    0.213644 0.673331 0.706288 0.053502
H46   H     H_    0.291113 0.689800 0.772843 0.137530
O35   O     O_3   0.769980 0.526146 0.716112 -0.499643
C87   C     C_3   0.794782 0.354542 0.758281 -0.074521
H47   H     H_    0.766014 0.227360 0.734219 0.053661
H48   H     H_    0.806966 0.370900 0.831493 0.146859
H49   H     H_    0.840753 0.331348 0.751390 0.105140
O36   O     O_3   0.244567 0.418356 0.296504 -0.500793
C88   C     C_3   0.254928 0.222038 0.312188 -0.138095
H50   H     H_    0.240426 0.181992 0.372721 0.212993
H51   H     H_    0.303484 0.172773 0.323153 0.072094
H52   H     H_    0.227671 0.143907 0.252218 0.113567
O37   O     O_3   0.213317 0.143077 0.546308 -0.526302
C89   C     C_3   0.219962 0.328808 0.580719 -0.060807
H53   H     H_    0.237182 0.333727 0.655575 0.082321
H54   H     H_    0.175770 0.408250 0.559293 0.154099
H55   H     H_    0.254735 0.398965 0.555388 0.251414
O38   O     O_3   0.789239 0.190298 0.445230 -0.528897
C90   C     C_3   0.782875 0.377793 0.412811 -0.118458
H56   H     H_    0.757792 0.384406 0.339768 0.139906
H57   H     H_    0.828416 0.447463 0.424539 0.141873
H58   H     H_    0.755487 0.458682 0.449648 0.243091
O39   O     O_3   0.285146 0.609866 0.463929 -0.534547
C91   C     C_3   0.275001 0.803941 0.446640 -0.077016
H59   H     H_    0.246054 0.828371 0.376945 0.125930
H60   H     H_    0.318604 0.883323 0.456162 0.139866
H61   H     H_    0.250235 0.859041 0.493668 0.240112
O40   O     O_3   0.719688 0.685890 0.552418 -0.508002
C92   C     C_3   0.711863 0.875326 0.576349 -0.024233
H62   H     H_    0.732769 0.898496 0.649874 0.105813
H63   H     H_    0.662529 0.919253 0.557926 0.127119
H64   H     H_    0.735040 0.968108 0.538639 0.233863

loop_
_geom_bond_atom_site_label_1
_geom_bond_atom_site_label_2
_ccdc_geom_bond_type
O17   V3    S    
C78   H22   S    
C89   H54   S    
C63   C64   A    
O1    C5    A    
C84   H38   S    
C58   C70   A    
O19   V1    S    
C1    C40   S    
O13   V1    S    
O3    C7    A    
C74   H8    S    
C79   H25   S    
C68   C72   A    
C47   O36   S    
C56   C60   A    
C3    C38   S    
O15   V3    S    
C80   H28   S    
C55   C63   A    
O34   C86   S    
O4    V2    S    
C78   H20   S    
C61   C62   A    
C87   H47   S    
O7    C3    A    
C38   C46   A    
C26   C30   A    
C51   C55   A    
C39   C51   A    
C71   O31   S    
O9    V1    S    
O32   C84   S    
C79   H24   S    
C14   C18   A    
C18   C22   A    
O4    C8    A    
C25   C29   A    
C89   H55   S    
C82   H33   S    
C73   H5    S    
O23   C75   S    
C16   I8    S    
O1    V3    S    
C92   H64   S    
C25   C33   A    
C17   I2    S    
C24   O28   S    
O2    V4    S    
C60   C72   A    
O3    V1    S    
C19   I4    S    
C73   H7    S    
C76   H16   S    
C28   C36   A    
C14   I6    S    
O22   C74   S    
C69   O29   S    
C1    O15   A    
C2    C39   S    
C2    O16   A    
C8    C33   S    
C50   I9    S    
C81   H31   S    
O2    C6    A    
C90   H58   S    
C91   H61   S    
C11   O23   S    
O38   C90   S    
O14   V2    S    
C21   C25   A    
C16   C20   A    
O5    V1    S    
C44   C48   A    
C86   H46   S    
C54   C62   A    
O11   C7    A    
C89   H53   S    
C53   C61   A    
C90   H56   S    
O12   C8    A    
C31   C36   A    
C82   H34   S    
C9    C29   A    
O10   V2    S    
C80   H27   S    
C20   I3    S    
C66   C70   A    
C13   I5    S    
O17   V1    S    
C44   O40   S    
O27   C79   S    
O7    V3    S    
C11   C31   A    
C44   C60   A    
C83   H37   S    
O20   V4    S    
C15   I7    S    
C79   H23   S    
C5    C36   S    
C6    C35   S    
O18   V4    S    
O40   C92   S    
C23   C27   A    
C27   C31   A    
C37   C49   A    
O33   C85   S    
O19   V3    S    
C65   C69   A    
C9    C13   A    
C72   O32   S    
C65   H1    S    
O36   C88   S    
C26   C34   A    
C88   H52   S    
C11   C15   A    
O35   C87   S    
O5    C1    A    
C12   C32   A    
C45   O34   S    
C42   C58   A    
C57   C69   A    
C54   C58   A    
C41   C57   A    
O31   C83   S    
C64   C67   A    
C53   C57   A    
O8    C4    A    
C59   C71   A    
C92   H62   S    
C40   C52   A    
C9    O21   S    
C74   H9    S    
C43   C59   A    
O11   V3    S    
C85   H43   S    
O30   C82   S    
C76   H14   S    
C42   O38   S    
C52   I11   S    
O6    V2    S    
C39   C47   A    
O18   V2    S    
C84   H40   S    
C10   O22   S    
C81   H30   S    
C61   C66   A    
C77   H19   S    
C27   C35   A    
C4    O14   A    
C18   I1    S    
C80   H26   S    
C51   I12   S    
C12   C16   A    
O24   C76   S    
C68   H4    S    
O25   C77   S    
O16   V4    S    
C37   C45   A    
C78   H21   S    
C75   H13   S    
C3    O13   A    
C17   C21   A    
C4    C37   S    
C10   C14   A    
C52   C56   A    
C48   O35   S    
C91   H60   S    
O28   C80   S    
C62   C65   A    
O6    C2    A    
C15   C19   A    
C29   C34   A    
C32   C35   A    
C10   C30   A    
O26   C78   S    
C22   O26   S    
O12   V4    S    
O21   C73   S    
C22   C26   A    
C87   H48   S    
C87   H49   S    
C77   H18   S    
C83   H35   S    
O10   C6    A    
O20   V2    S    
C77   H17   S    
C56   C64   A    
O29   C81   S    
O9    C5    A    
C55   C59   A    
C70   O30   S    
C42   C46   A    
O8    V4    S    
C73   H6    S    
C41   C45   A    
C21   O25   S    
C92   H63   S    
C75   H12   S    
C75   H11   S    
C74   H10   S    
C43   C47   A    
C40   C48   A    
C41   O37   S    
C13   C17   A    
C88   H50   S    
C12   O24   S    
C46   O33   S    
C85   H42   S    
C76   H15   S    
C43   O39   S    
C67   C71   A    
C86   H44   S    
C85   H41   S    
C28   C32   A    
C24   C28   A    
C91   H59   S    
C84   H39   S    
O37   C89   S    
C50   C54   A    
C23   O27   S    
C82   H32   S    
C90   H57   S    
C49   C53   A    
C81   H29   S    
C38   C50   A    
O39   C91   S    
C67   H3    S    
C49   I10   S    
C63   C68   A    
C19   C23   A    
C66   H2    S    
C7    C34   S    
C20   C24   A    
C83   H36   S    
C88   H51   S    
C86   H45   S    
C30   C33   A    
