data_mof_unit_5663.cif
_audit_creation_date              2013-03-05T15:56:38-0500
_audit_creation_method            fapswitch 2.2
_symmetry_space_group_name_H-M    P1
_symmetry_Int_Tables_number       1
_space_group_crystal_system       triclinic
_cell_length_a                    18.84545
_cell_length_b                    18.813956
_cell_length_c                    20.408754
_cell_angle_alpha                 106.969296
_cell_angle_beta                  106.346696
_cell_angle_gamma                 111.01368
_cell_volume                      5825.40349404

loop_
_atom_site_label
_atom_site_type_symbol
_atom_site_description
_atom_site_fract_x
_atom_site_fract_y
_atom_site_fract_z
_atom_type_partial_charge
C1    C     C_R   0.086439 0.087746 0.353881 -0.147901
H1    H     H_    0.135368 0.152378 0.376635 0.092970
N1    N     N_R   0.052570 0.055840 0.395080 -0.038639
C2    C     C_R   0.761404 0.926157 0.505098 0.360473
N2    N     N_R   0.834730 0.954500 0.499860 -0.088680
C3    C     C_R   0.848424 0.778368 0.290047 -0.112871
H2    H     H_    0.877051 0.760671 0.253562 0.085782
N3    N     N_R   0.890190 0.849120 0.355200 -0.044839
C4    C     C_R   0.948114 0.195179 0.520140 -0.125699
H3    H     H_    0.902909 0.198654 0.541837 0.098994
N4    N     N_R   0.997110 0.161210 0.539740 -0.040709
C5    C     C_R   0.770847 0.770848 0.354409 -0.084964
H4    H     H_    0.729125 0.743659 0.377350 0.173688
N5    N     N_R   0.841940 0.845190 0.395070 -0.045396
C6    C     C_R   0.026174 0.201774 0.455290 -0.129196
H5    H     H_    0.053353 0.211723 0.416727 0.096189
N6    N     N_R   0.045360 0.165140 0.499870 -0.042672
C7    C     C_R   0.831741 0.065641 0.571157 -0.211142
H6    H     H_    0.857930 0.128308 0.615753 0.118935
N7    N     N_R   0.877490 0.041590 0.539730 -0.061575
C8    C     C_R   0.015847 0.947458 0.289285 -0.116712
H7    H     H_    0.997398 0.883404 0.251987 0.085180
N8    N     N_R   0.009810 0.968740 0.355210 -0.040119
C9    C     C_R   0.065023 0.021221 0.287112 0.044076
C10   C     C_R   0.758320 0.994578 0.552337 -0.062639
C11   C     C_R   0.773416 0.726527 0.288529 0.006599
C12   C     C_R   0.963317 0.219658 0.465317 0.071431
C13   C     C_R   0.237570 0.215080 0.652987 -0.128576
H8    H     H_    0.288126 0.238764 0.637269 0.083291
N9    N     N_R   0.158060 0.154810 0.604930 -0.038067
C14   C     C_R   0.920086 0.756108 0.494142 -0.140835
H9    H     H_    0.869383 0.732079 0.509802 0.125018
N10   N     N_R   0.954640 0.834860 0.500130 -0.039843
C15   C     C_R   0.176451 0.928763 0.478467 -0.135387
H10   H     H_    0.159598 0.862598 0.457866 0.098185
N11   N     N_R   0.122510 0.958410 0.460270 -0.042734
C16   C     C_R   0.027273 0.050714 0.718728 -0.124314
H11   H     H_    0.062534 0.113348 0.764734 0.091530
N12   N     N_R   0.990190 0.031260 0.644790 -0.044078
C17   C     C_R   0.960577 0.909949 0.653175 -0.066650
H12   H     H_    0.938430 0.843182 0.636856 0.099316
N13   N     N_R   0.947430 0.944160 0.604920 -0.035653
C18   C     C_R   0.246283 0.069923 0.539258 -0.122292
H13   H     H_    0.295208 0.134381 0.571247 0.088256
N14   N     N_R   0.165270 0.045500 0.500140 -0.041594
C19   C     C_R   0.159739 0.208042 0.717252 -0.140573
H14   H     H_    0.138819 0.225710 0.760477 0.089431
N15   N     N_R   0.109810 0.150880 0.644800 -0.037070
C20   C     C_R   0.997768 0.762876 0.430054 -0.145555
H15   H     H_    0.018742 0.745516 0.386731 0.086197
N16   N     N_R   0.002890 0.838790 0.460260 -0.042122
Ni1   Ni    Ni4+2 0.104370 0.104380 0.500010 0.211537
Ni2   Ni    Ni4+2 0.895630 0.895620 0.499990 0.279020
Ni3   Ni    Ni4+2 0.006290 0.904630 0.408560 0.203682
Ni4   Ni    Ni4+2 0.993710 0.095370 0.591440 0.209069
C21   C     C_R   0.241586 0.245006 0.725122 0.043024
C22   C     C_R   0.945030 0.708606 0.449365 0.072550
C23   C     C_R   0.254896 0.997984 0.530403 0.075697
C24   C     C_R   0.012970 0.975885 0.725374 0.011291
C25   C     C_R   0.942641 0.577027 0.372275 -0.257921
C26   C     C_R   0.912581 0.616388 0.419152 0.115899
C27   C     C_R   0.857944 0.568681 0.442941 -0.252518
C28   C     C_R   0.844160 0.486988 0.430378 0.139632
C29   C     C_R   0.883901 0.452165 0.391932 0.027805
C30   C     C_R   0.929723 0.495589 0.359438 0.142029
C31   C     C_R   0.798498 0.443206 0.462330 -0.201366
C32   C     C_R   0.799949 0.369975 0.463398 -0.204697
C33   C     C_R   0.847280 0.340342 0.432718 0.139733
C34   C     C_R   0.885573 0.378714 0.393199 0.027183
C35   C     C_R   0.933323 0.349297 0.362226 0.140272
C36   C     C_R   0.970984 0.387643 0.322800 -0.203252
C37   C     C_R   0.969164 0.460612 0.321387 -0.207229
C38   C     C_R   0.864796 0.279579 0.448235 -0.254222
C39   C     C_R   0.922990 0.259918 0.427649 0.115638
C40   C     C_R   0.950445 0.288667 0.378537 -0.255263
H16   H     H_    0.982205 0.611462 0.350887 0.115160
H17   H     H_    0.831621 0.596787 0.476735 0.124128
H18   H     H_    0.766435 0.468561 0.490868 0.134381
H19   H     H_    0.769092 0.340125 0.492852 0.131449
H20   H     H_    0.839190 0.254339 0.482546 0.119405
H21   H     H_    0.991702 0.270612 0.358742 0.118207
H22   H     H_    0.006707 0.364768 0.297685 0.130375
H23   H     H_    0.003419 0.492751 0.295096 0.129616
C41   C     C_R   0.334586 0.920080 0.554923 -0.254952
C42   C     C_R   0.332932 0.997024 0.569069 0.114864
C43   C     C_R   0.408259 0.073977 0.615278 -0.252723
C44   C     C_R   0.485344 0.074824 0.633625 0.138731
C45   C     C_R   0.486895 0.997411 0.610060 0.031536
C46   C     C_R   0.411622 0.919807 0.575107 0.139729
C47   C     C_R   0.560129 0.151756 0.667378 -0.202078
C48   C     C_R   0.634405 0.151619 0.669018 -0.205858
C49   C     C_R   0.634386 0.074561 0.638328 0.134999
C50   C     C_R   0.562153 0.997460 0.613689 0.033032
C51   C     C_R   0.562744 0.920062 0.585049 0.102451
C52   C     C_R   0.490060 0.843478 0.559600 -0.173373
C53   C     C_R   0.414398 0.843280 0.553814 -0.205801
C54   C     C_R   0.701720 0.072953 0.623875 -0.248011
C55   C     C_R   0.698210 0.995297 0.585889 0.127793
C56   C     C_R   0.632874 0.920077 0.574982 -0.207421
H24   H     H_    0.276738 0.860288 0.523131 0.120693
H25   H     H_    0.408420 0.134082 0.631155 0.117854
H26   H     H_    0.559771 0.211704 0.686775 0.129071
H27   H     H_    0.690191 0.211418 0.689604 0.128411
H28   H     H_    0.752760 0.132463 0.636324 0.119187
H29   H     H_    0.632296 0.860396 0.553992 0.188708
H30   H     H_    0.490066 0.783513 0.538531 0.146042
H31   H     H_    0.357321 0.783241 0.528375 0.132854
C57   C     C_R   0.318241 0.291705 0.796705 0.151039
C58   C     C_R   0.313955 0.281341 0.861073 -0.186179
C59   C     C_R   0.386850 0.318149 0.927398 -0.166754
C60   C     C_R   0.465800 0.366693 0.930667 0.229199
C61   C     C_R   0.470070 0.376074 0.866200 -0.182079
C62   C     C_R   0.396936 0.338711 0.799473 -0.188046
C63   C     C_R   0.682520 0.509580 0.130656 -0.162304
C64   C     C_R   0.740839 0.591173 0.186763 -0.174822
C65   C     C_R   0.600225 0.471866 0.124632 0.219608
N17   N     N_2   0.539887 0.417225 0.999786 -0.100252
N18   N     N_2   0.531812 0.406950 0.055434 -0.107009
C66   C     C_R   0.717565 0.635783 0.237345 0.142404
H32   H     H_    0.802217 0.620139 0.187557 0.109529
H33   H     H_    0.699008 0.478767 0.088125 0.122444
H34   H     H_    0.530207 0.414506 0.868430 0.121016
H35   H     H_    0.402104 0.347279 0.750529 0.113681
C67   C     C_R   0.638764 0.593461 0.236723 -0.169893
C68   C     C_R   0.580964 0.511411 0.181182 -0.173827
H36   H     H_    0.619072 0.625232 0.275496 0.142095
H37   H     H_    0.380836 0.310172 0.976342 0.124083
H38   H     H_    0.517788 0.482576 0.177121 0.124855
H39   H     H_    0.254444 0.243525 0.860089 0.108633
C69   C     C_R   0.104376 0.027345 0.234737 0.144983
C70   C     C_R   0.108380 0.957359 0.190420 -0.187548
C71   C     C_R   0.138096 0.960839 0.135715 -0.163044
C72   C     C_R   0.163927 0.034603 0.124284 0.224162
C73   C     C_R   0.167887 0.106833 0.173611 -0.179147
C74   C     C_R   0.137723 0.103264 0.228140 -0.181872
C75   C     C_R   0.161302 0.035271 0.923356 -0.166220
C76   C     C_R   0.127505 0.038796 0.855174 -0.181002
C77   C     C_R   0.121217 0.961402 0.931620 0.224090
N19   N     N_2   0.170083 0.034270 0.056652 -0.104435
N20   N     N_2   0.135206 0.961862 0.003661 -0.104400
C78   C     C_R   0.053671 0.968821 0.794287 0.148535
H40   H     H_    0.157901 0.097242 0.851200 0.112097
H41   H     H_    0.215400 0.091768 0.970783 0.124180
H42   H     H_    0.187645 0.163949 0.165460 0.120857
H43   H     H_    0.136404 0.158552 0.262172 0.113784
C79   C     C_R   0.019148 0.892604 0.800164 -0.177872
C80   C     C_R   0.053295 0.888987 0.868378 -0.178972
H44   H     H_    0.963087 0.837180 0.753749 0.119151
H45   H     H_    0.136149 0.904410 0.099558 0.124806
H46   H     H_    0.022070 0.831734 0.873924 0.121836
H47   H     H_    0.086527 0.898974 0.196200 0.112788
N21   N     N_R   0.710631 0.839122 0.485000 0.195193
O1    O     O_R   0.634673 0.796971 0.430321 -0.447072
O2    O     O_R   0.743610 0.799297 0.514321 -0.464792

loop_
_geom_bond_atom_site_label_1
_geom_bond_atom_site_label_2
_geom_bond_distance
_ccdc_geom_bond_type
N15   Ni4   1.849301 S    
C76   H40   1.081798 S    
C50   C51   1.407346 A    
C38   C39   1.405575 A    
C27   H17   1.081303 S    
N1    N8    1.379247 A    
C52   C53   1.395801 A    
C44   C45   1.408188 A    
C2    C10   1.396676 A    
C13   C21   1.383086 A    
N2    N7    1.379094 A    
C66   C67   1.405336 A    
C5    H4    1.075941 S    
C16   H11   1.073830 S    
N9    N15   1.377598 A    
C13   H8    1.077131 S    
C1    H1    1.081538 S    
C75   H41   1.083001 S    
N13   Ni2   1.848042 S    
C6    H5    1.077474 S    
C55   C56   1.407315 A    
C20   C22   1.383188 A    
C57   C58   1.402926 A    
C15   H10   1.078436 S    
C59   C60   1.409344 A    
C47   H26   1.084043 S    
N9    Ni1   1.848002 S    
C18   C23   1.386414 A    
C19   H14   1.078282 S    
C63   H33   1.083209 S    
C70   H47   1.081043 S    
N12   Ni4   1.842441 S    
C69   C74   1.403322 A    
C71   C72   1.409166 A    
C20   N16   1.335258 A    
C68   H38   1.083350 S    
C14   N10   1.338579 A    
C35   C36   1.401690 A    
C12   C39   1.471790 S    
C4    H3    1.077727 S    
C7    N7    1.334576 A    
C26   C27   1.405160 A    
C59   H37   1.082687 S    
C36   H22   1.083724 S    
C17   N13   1.338868 A    
C31   C32   1.394145 A    
C28   C31   1.401898 A    
C17   C24   1.385854 A    
C8    H7    1.080577 S    
C71   H45   1.082832 S    
C34   C35   1.410266 A    
C7    C10   1.387049 A    
N7    Ni4   1.849550 S    
C56   H29   1.073411 S    
N6    Ni1   1.858846 S    
C61   C62   1.392156 A    
C49   C54   1.389653 A    
C54   C55   1.407344 A    
N12   N13   1.379245 A    
C79   H44   1.082035 S    
N10   Ni2   1.858846 S    
C31   H18   1.083750 S    
C19   N15   1.338370 A    
C39   C40   1.404483 A    
C32   C33   1.402050 A    
C41   H24   1.082210 S    
C80   H46   1.083264 S    
C32   H19   1.083743 S    
C11   C66   1.471437 S    
C75   C77   1.409305 A    
C63   C64   1.389659 A    
N3    Ni3   1.849304 S    
C48   C49   1.401277 A    
C43   C44   1.387275 A    
C40   H21   1.081312 S    
C3    N3    1.336338 A    
N14   Ni1   1.859071 S    
C74   H43   1.082365 S    
C33   C38   1.392572 A    
C42   C43   1.405742 A    
C25   H16   1.080748 S    
C5    C11   1.384408 A    
C25   C26   1.406049 A    
C1    N1    1.340398 A    
C57   C62   1.402773 A    
C18   H13   1.069631 S    
C61   H34   1.083217 S    
C27   C28   1.393425 A    
C52   H30   1.083802 S    
C4    N4    1.336238 A    
C6    C12   1.392980 A    
C14   H9    1.079811 S    
C62   H35   1.082009 S    
C77   C80   1.397638 A    
N1    Ni1   1.848042 S    
N11   N14   1.379092 A    
C29   C34   1.401055 A    
C41   C42   1.404778 A    
C2    N21   1.424232 S    
C18   N14   1.332689 A    
C16   C24   1.390308 A    
C77   N20   1.415648 S    
C78   C79   1.403252 A    
C17   H12   1.079165 S    
C53   H31   1.083711 S    
C5    N5    1.338898 A    
C25   C30   1.392032 A    
C72   N19   1.415735 S    
C64   C66   1.405553 A    
C65   C68   1.394829 A    
C8    N8    1.337104 A    
C58   H39   1.082179 S    
C72   C73   1.397197 A    
C8    C9    1.386877 A    
C41   C46   1.395473 A    
C70   C71   1.390209 A    
C23   C42   1.469653 S    
C37   H23   1.083825 S    
N4    Ni4   1.842789 S    
C4    C12   1.390209 A    
N8    Ni3   1.842441 S    
C67   H36   1.081406 S    
C79   C80   1.392570 A    
N2    Ni2   1.859068 S    
C6    N6    1.339076 A    
C76   C78   1.404085 A    
C45   C50   1.398873 A    
N4    N6    1.377596 A    
N3    N5    1.377591 A    
C60   C61   1.397719 A    
C33   C34   1.409359 A    
N21   O2    1.300814 A    
C2    N2    1.339126 A    
C63   C65   1.405834 A    
N19   N20   1.247069 D    
C64   H32   1.080458 S    
C22   C26   1.471965 S    
C3    H2    1.080077 S    
N10   N16   1.377593 A    
C30   C37   1.402128 A    
C73   C74   1.392303 A    
C60   N17   1.414097 S    
N16   Ni3   1.842790 S    
C29   C30   1.409106 A    
C14   C22   1.386055 A    
C46   C53   1.402191 A    
C13   N9    1.340886 A    
C69   C70   1.404275 A    
C36   C37   1.393900 A    
C16   N12   1.341616 A    
N17   N18   1.246888 D    
C47   C48   1.391683 A    
C3    C11   1.385387 A    
C51   C56   1.393400 A    
C49   C50   1.408126 A    
C38   H20   1.081043 S    
C65   N18   1.409715 S    
C15   N11   1.340694 A    
C51   C52   1.403329 A    
C54   H28   1.080430 S    
N11   Ni3   1.849547 S    
C73   H42   1.083173 S    
C28   C29   1.410102 A    
C9    C69   1.470620 S    
C10   C55   1.481388 S    
N5    Ni2   1.848006 S    
C45   C46   1.410643 A    
C24   C78   1.469355 S    
C1    C9    1.385234 A    
C20   H15   1.079550 S    
C44   C47   1.401525 A    
C19   C21   1.383709 A    
C35   C40   1.393283 A    
C15   C23   1.391565 A    
C7    H6    1.079577 S    
C21   C57   1.464797 S    
C75   C76   1.389840 A    
N21   O1    1.301309 A    
C58   C59   1.386662 A    
C43   H25   1.080208 S    
C48   H27   1.083844 S    
C67   C68   1.389968 A    
