data_mof_unit_37055.cif
_audit_creation_date              2012-12-10T17:29:19-0500
_audit_creation_method            fapswitch 2.2
_symmetry_space_group_name_H-M    P1
_symmetry_Int_Tables_number       1
_space_group_crystal_system       triclinic
_cell_length_a                    11.972184
_cell_length_b                    12.872547
_cell_length_c                    13.188423
_cell_angle_alpha                 88.082371
_cell_angle_beta                  113.151065
_cell_angle_gamma                 93.587835
_cell_volume                      1865.07677654

loop_
_atom_site_label
_atom_site_type_symbol
_atom_type_description
_atom_site_fract_x
_atom_site_fract_y
_atom_site_fract_z
_atom_type_partial_charge
C1    C     C_R   0.476100 0.299559 0.495946 0.908504
C2    C     C_R   0.609710 0.514497 0.829782 -0.135162
C3    C     C_R   0.537886 0.812227 0.503187 -0.075117
C4    C     C_R   0.567093 0.502195 0.708995 0.872222
C5    C     C_R   0.459522 0.188414 0.491562 -0.078395
C6    C     C_R   0.361492 0.030235 0.524662 0.002978
C7    C     C_R   0.369227 0.137842 0.519363 -0.303200
C8    C     C_R   0.536109 0.133125 0.459668 -0.224211
C9    C     C_R   0.537725 0.025895 0.472399 0.075663
C10   C     C_R   0.454801 0.974468 0.513540 0.120053
C11   C     C_R   0.470769 0.870130 0.545144 0.168416
C12   C     C_R   0.555520 0.542194 0.987214 0.094559
C13   C     C_R   0.611653 0.860695 0.454105 -0.355088
C14   C     C_R   0.619562 0.968314 0.445671 0.012404
C15   C     C_R   0.024265 0.620307 0.429341 -0.299712
C16   C     C_R   0.523691 0.700558 0.503622 0.895536
C17   C     C_R   0.140557 0.605797 0.431470 0.015087
C18   C     C_R   0.149936 0.445284 0.527090 -0.033260
C19   C     C_R   0.032359 0.456026 0.525834 0.075168
C20   C     C_R   0.969215 0.545190 0.476994 0.077754
C21   C     C_R   0.852199 0.556453 0.476742 -0.066785
C22   C     C_R   0.859309 0.394024 0.568267 0.048010
C23   C     C_R   0.529954 0.554833 0.874152 -0.009455
C24   C     C_R   0.976786 0.380570 0.572669 -0.302210
C25   C     C_R   0.434487 0.510749 0.291737 0.899501
C26   C     C_R   0.249268 0.563616 0.987702 -0.197053
C27   C     C_R   0.397272 0.537608 0.174377 -0.106508
C28   C     C_R   0.722590 0.475661 0.902694 0.199083
C29   C     C_R   0.748695 0.469781 0.015514 -0.148518
C30   C     C_R   0.664759 0.498020 0.056378 -0.222042
C31   C     C_3   0.168373 0.507191 0.130327 -0.859696
C32   C     C_2   0.248986 0.980786 0.530802 0.388544
C33   C     C_2   0.713003 0.014478 0.407158 0.378637
C34   C     C_R   0.464892 0.563929 0.025951 0.027195
C35   C     C_3   0.202755 0.639591 0.760362 -0.898822
C36   C     C_3   0.600819 0.635366 0.210359 -0.881615
C37   C     C_3   0.814052 0.434440 0.863522 -0.886038
C38   C     C_3   0.439390 0.825963 0.639235 -0.848540
C39   C     C_R   0.344372 0.577316 0.950582 0.063215
C40   C     C_R   0.324397 0.605723 0.841467 0.177873
C41   C     C_R   0.421462 0.603477 0.808276 -0.192785
C42   C     C_R   0.489816 0.569699 0.137893 0.104651
C43   C     C_R   0.274065 0.535161 0.097729 0.143117
H1    H     H_    0.666304 0.814543 0.425729 0.157723
H2    H     H_    0.155665 0.569489 0.930632 0.161309
H3    H     H_    0.684237 0.479291 0.141725 0.168097
H4    H     H_    0.832000 0.437234 0.072234 0.150315
H5    H     H_    0.407902 0.635623 0.728515 0.182736
H6    H     H_    0.178038 0.428479 0.168904 0.245936
H7    H     H_    0.164061 0.565681 0.188473 0.254439
H8    H     H_    0.080168 0.505880 0.057969 0.223272
H9    H     H_    0.201572 0.020288 0.572263 0.066444
H10   H     H_    0.734859 0.972954 0.347578 0.069733
H11   H     H_    0.205876 0.663855 0.679870 0.253329
H12   H     H_    0.303620 0.182140 0.535073 0.153687
H13   H     H_    0.133265 0.574203 0.744757 0.240972
H14   H     H_    0.174716 0.706680 0.793886 0.243941
H15   H     H_    0.575878 0.687508 0.262665 0.231900
H16   H     H_    0.673816 0.585992 0.263731 0.247291
H17   H     H_    0.637890 0.686252 0.159933 0.236859
H18   H     H_    0.894612 0.405604 0.932886 0.221430
H19   H     H_    0.772204 0.367880 0.807223 0.249177
H20   H     H_    0.847538 0.497291 0.821156 0.252400
H21   H     H_    0.429404 0.888183 0.690854 0.225107
H22   H     H_    0.354347 0.775929 0.607483 0.278510
H23   H     H_    0.595223 0.175578 0.426795 0.208800
H24   H     H_    0.515150 0.779816 0.695334 0.205248
H25   H     H_    0.803906 0.625667 0.441533 0.127331
H26   H     H_    0.816747 0.334786 0.603396 0.150928
H27   H     H_    0.977954 0.689698 0.390823 0.167176
H28   H     H_    0.023142 0.311273 0.611422 0.157217
H29   H     H_    0.182502 0.664423 0.395122 0.167243
H30   H     H_    0.200594 0.378157 0.566439 0.127325
N1    N     N_R   0.798200 0.480260 0.519790 -0.102603
N2    N     N_R   0.201820 0.519740 0.480210 -0.108767
O1    O     O_R   0.579910 0.341070 0.505280 -0.624516
O2    O     O_2   0.772519 0.094374 0.446763 -0.586012
O3    O     O_R   0.388440 0.353740 0.492580 -0.620170
O4    O     O_R   0.643280 0.490550 0.663120 -0.606418
O5    O     O_R   0.451810 0.503220 0.650420 -0.620590
O6    O     O_R   0.611560 0.646260 0.507420 -0.628537
O7    O     O_R   0.420090 0.658930 0.494720 -0.623842
O8    O     O_R   0.548190 0.496780 0.349580 -0.605078
O9    O     O_R   0.356720 0.509450 0.336880 -0.614305
O10   O     O_2   0.203987 0.899139 0.483694 -0.582840
Zn1   Zn    Zn3+2 0.627850 0.491540 0.508480 0.939785
Zn2   Zn    Zn3+2 0.372150 0.508460 0.491520 0.934064

loop_
_geom_bond_atom_site_label_1
_geom_bond_atom_site_label_2
_ccdc_geom_bond_type
O3    Zn2   S    
C6    C32   S    
C8    H23   S    
C18   N2    A    
C36   C42   S    
C19   C20   A    
C34   C42   A    
O9    Zn2   S    
C7    H12   S    
C36   H16   S    
C14   C33   S    
C37   H19   S    
C12   C23   A    
C31   C43   S    
C29   H4    S    
C1    C5    S    
C28   C29   A    
C4    O5    A    
O5    Zn2   S    
C36   H15   S    
C26   C39   A    
O7    Zn2   S    
C18   C19   A    
C32   H9    S    
C26   H2    S    
C8    C9    A    
C25   O9    A    
C9    C10   A    
C22   H26   S    
O6    Zn1   S    
C3    C13   A    
C13   C14   A    
C35   H11   S    
C1    O3    A    
C31   H6    S    
C37   H20   S    
C26   C43   A    
C38   H21   S    
C33   H10   S    
C15   C20   A    
C34   C39   A    
C38   H24   S    
C4    O4    A    
C39   C40   A    
C5    C7    A    
C21   N1    A    
C11   C38   S    
C2    C4    S    
C9    C14   A    
C29   C30   A    
C38   H22   S    
C16   O7    A    
N1    Zn1   S    
N2    Zn2   S    
C40   C41   A    
C18   H30   S    
C21   H25   S    
C22   C24   A    
C22   N1    A    
C31   H7    S    
C12   C34   A    
O1    Zn1   S    
C25   O8    A    
C15   C17   A    
C15   H27   S    
C12   C30   A    
C35   H13   S    
C1    O1    A    
C30   H3    S    
C31   H8    S    
C36   H17   S    
C6    C10   A    
C5    C8    A    
C37   H18   S    
C6    C7    A    
C25   C27   S    
C23   C41   A    
C35   H14   S    
C35   C40   S    
C27   C42   A    
C33   O2    D    
C28   C37   S    
C32   O10   D    
C16   O6    A    
C41   H5    S    
C19   C24   A    
O4    Zn1   S    
C3    C11   A    
C10   C11   A    
C27   C43   A    
O8    Zn1   S    
C20   C21   A    
C17   H29   S    
C2    C23   A    
C17   N2    A    
C2    C28   A    
C13   H1    S    
C3    C16   S    
C24   H28   S    
