data_mof_unit_34380.cif
_audit_creation_date              2012-12-11T17:39:34-0500
_audit_creation_method            fapswitch 2.2
_symmetry_space_group_name_H-M    P1
_symmetry_Int_Tables_number       1
_space_group_crystal_system       triclinic
_cell_length_a                    14.861729
_cell_length_b                    15.130947
_cell_length_c                    14.981109
_cell_angle_alpha                 109.198034
_cell_angle_beta                  108.779293
_cell_angle_gamma                 110.572786
_cell_volume                      2588.42987003

loop_
_atom_site_label
_atom_site_type_symbol
_atom_type_description
_atom_site_fract_x
_atom_site_fract_y
_atom_site_fract_z
_atom_type_partial_charge
C1    C     C_R   0.908021 0.909551 0.712291 -0.150648
C2    C     C_R   0.908173 0.685045 0.446541 -0.142833
C3    C     C_R   0.702275 0.787696 0.197142 -0.104122
C4    C     C_R   0.093945 0.298338 0.496400 -0.157349
C5    C     C_R   0.306739 0.011000 0.598581 -0.132319
C6    C     C_R   0.643091 0.690027 0.190725 0.142705
C7    C     C_R   0.374013 0.079586 0.574850 0.063786
C8    C     C_R   0.002482 0.677578 0.468891 0.045395
C9    C     C_R   0.006235 0.948639 0.180966 0.052286
C10   C     C_R   0.545506 0.770054 0.609960 -0.125230
C11   C     C_R   0.540127 0.854550 0.594861 -0.150791
C12   C     C_R   0.004132 0.301683 0.438630 0.059713
C13   C     C_R   0.618461 0.963305 0.676609 0.108707
C14   C     C_R   0.697926 0.986844 0.776128 -0.169134
C15   C     C_R   0.702990 0.901800 0.790804 -0.142146
C16   C     C_R   0.246090 0.220824 0.811901 -0.155206
C17   C     C_R   0.628105 0.793730 0.706905 -0.137716
C18   C     C_R   0.539640 0.076860 0.672365 -0.232120
C19   C     C_R   0.493115 0.118991 0.613444 0.028772
C20   C     C_R   0.553770 0.174443 0.573709 0.057132
C21   C     C_R   0.643535 0.164712 0.574025 -0.208816
C22   C     C_R   0.663790 0.089688 0.598766 0.051340
C23   C     C_R   0.271298 0.322157 0.821709 0.134441
C24   C     C_R   0.615638 0.050908 0.655959 0.025902
C25   C     C_R   0.465365 0.178395 0.403144 0.193054
C26   C     C_R   0.430993 0.232372 0.351573 -0.192594
C27   C     C_R   0.450507 0.335966 0.411966 -0.293712
C28   C     C_R   0.747274 0.061038 0.472937 -0.118513
C29   C     C_R   0.506149 0.389229 0.525681 0.224637
C30   C     C_R   0.543561 0.338167 0.579549 0.132855
C31   C     C_R   0.519490 0.231003 0.518200 -0.126401
C32   C     C_R   0.816234 0.123364 0.090064 -0.122385
C33   C     C_R   0.891376 0.221860 0.187769 -0.136734
C34   C     C_R   0.720341 0.044019 0.549835 0.056819
C35   C     C_R   0.854574 0.287296 0.236902 0.118269
C36   C     C_R   0.741463 0.253087 0.185210 -0.170441
C37   C     C_R   0.666638 0.154609 0.087236 -0.111412
C38   C     C_R   0.703948 0.089694 0.039895 -0.100440
C39   C     C_R   0.933317 0.485348 0.356388 -0.248578
C40   C     C_R   0.247133 0.312099 0.720351 -0.126504
C41   C     C_R   0.008163 0.582193 0.456044 0.071680
C42   C     C_R   0.087567 0.586927 0.543397 0.016285
C43   C     C_R   0.089906 0.493980 0.528500 -0.238324
C44   C     C_R   0.011418 0.395805 0.432085 0.060641
C45   C     C_R   0.702441 0.694668 0.286118 -0.160692
C46   C     C_R   0.933871 0.390098 0.342915 0.022316
C47   C     C_R   0.278456 0.730930 0.697974 -0.182896
C48   C     C_R   0.350425 0.819973 0.803346 -0.111542
C49   C     C_R   0.308194 0.861055 0.866736 -0.108792
C50   C     C_R   0.193830 0.813318 0.824751 -0.120421
C51   C     C_R   0.121409 0.724529 0.719088 -0.115390
C52   C     C_R   0.751236 0.971527 0.565646 -0.135098
C53   C     C_R   0.163345 0.683126 0.654677 0.109468
C54   C     C_2   0.367773 0.519632 0.931657 -0.126047
C55   C     C_2   0.321329 0.421685 0.923236 -0.192925
C56   C     C_R   0.307153 0.103197 0.510431 -0.161983
C57   C     C_2   0.464135 0.614271 0.033612 -0.116905
C58   C     C_2   0.533062 0.601327 0.104940 -0.214987
C59   C     C_R   0.391034 0.222601 0.091964 -0.111804
C60   C     C_R   0.299930 0.120646 0.049781 -0.231023
C61   C     C_R   0.196675 0.109563 0.031182 0.126170
C62   C     C_R   0.186060 0.201973 0.056614 -0.122383
C63   C     C_R   0.277976 0.304246 0.101230 -0.147266
C64   C     C_R   0.910339 0.210102 0.408196 -0.128877
C65   C     C_R   0.380438 0.314583 0.119241 -0.116240
C66   C     C_R   0.108936 0.994061 0.091069 -0.245911
C67   C     C_R   0.093654 0.780577 0.531441 -0.113638
C68   C     C_R   0.015309 0.918352 0.082714 0.061546
C69   C     C_R   0.924585 0.834311 0.980028 0.022474
C70   C     C_R   0.921594 0.841318 0.888042 -0.260104
C71   C     C_R   0.009059 0.930286 0.900132 0.059650
C72   C     C_R   0.105212 0.005613 0.003324 0.010352
C73   C     C_R   0.863631 0.683681 0.022006 -0.148481
C74   C     C_R   0.781298 0.598152 0.017677 -0.132739
C75   C     C_R   0.670633 0.567930 0.961277 -0.069533
C76   C     C_R   0.090637 0.997847 0.797930 -0.132335
C77   C     C_R   0.642509 0.624941 0.911525 -0.057739
C78   C     C_R   0.911924 0.936536 0.188312 -0.118398
C79   C     C_R   0.724738 0.710904 0.916349 -0.179956
C80   C     C_R   0.835826 0.740005 0.970006 0.121520
C81   C     C_R   0.001160 0.946513 0.807778 0.056916
C82   C     C_3   0.407957 0.023696 0.227094 -0.972846
C83   C     C_3   0.443601 0.491810 0.621977 -0.969204
C84   C     C_3   0.726428 0.465055 0.731751 -0.863098
C85   C     C_R   0.095824 0.022933 0.283861 -0.133293
H1    H     H_    0.823908 0.850955 0.684570 0.110586
H2    H     H_    0.486914 0.686393 0.545774 0.113573
H3    H     H_    0.477224 0.835669 0.518469 0.116287
H4    H     H_    0.179320 0.351600 0.522495 0.097688
H5    H     H_    0.757616 0.070405 0.840277 0.125121
H6    H     H_    0.766531 0.919925 0.866122 0.117576
H7    H     H_    0.503232 0.044715 0.714580 0.126454
H8    H     H_    0.687074 0.205034 0.540747 0.128830
H9    H     H_    0.386487 0.193963 0.264409 0.175238
H10   H     H_    0.421258 0.374648 0.369918 0.149956
H11   H     H_    0.645852 0.013316 0.964382 0.106723
H12   H     H_    0.331993 0.166774 0.491005 0.115761
H13   H     H_    0.255025 0.200793 0.875814 0.133745
H14   H     H_    0.845189 0.073122 0.053472 0.108045
H15   H     H_    0.978153 0.246818 0.225369 0.111714
H16   H     H_    0.710865 0.301543 0.221642 0.107084
H17   H     H_    0.579572 0.128274 0.048329 0.099201
H18   H     H_    0.874902 0.484472 0.289714 0.128196
H19   H     H_    0.147348 0.496857 0.597680 0.134109
H20   H     H_    0.312235 0.699576 0.649776 0.122557
H21   H     H_    0.438938 0.856790 0.835997 0.110142
H22   H     H_    0.364283 0.929425 0.948587 0.100461
H23   H     H_    0.179770 0.804389 0.563192 0.111500
H24   H     H_    0.161307 0.844770 0.874258 0.118460
H25   H     H_    0.734868 0.111901 0.439930 0.101083
H26   H     H_    0.032995 0.687928 0.687553 0.112977
H27   H     H_    0.348551 0.528758 0.860170 0.120915
H28   H     H_    0.335698 0.414509 0.995307 0.140660
H29   H     H_    0.487100 0.693898 0.041221 0.122764
H30   H     H_    0.513503 0.521971 0.096360 0.125536
H31   H     H_    0.451779 0.393909 0.154999 0.094652
H32   H     H_    0.470479 0.230733 0.106479 0.106494
H33   H     H_    0.309888 0.050602 0.033214 0.120578
H34   H     H_    0.827581 0.889190 0.122955 0.106923
H35   H     H_    0.107790 0.195248 0.045681 0.109120
H36   H     H_    0.270079 0.375709 0.122965 0.115038
H37   H     H_    0.256011 0.374701 0.698650 0.096521
H38   H     H_    0.180805 0.057347 0.169185 0.130543
H39   H     H_    0.850855 0.779330 0.808325 0.129138
H40   H     H_    0.949058 0.706005 0.065815 0.117576
H41   H     H_    0.803257 0.554934 0.057502 0.116084
H42   H     H_    0.606861 0.501316 0.957344 0.107776
H43   H     H_    0.557203 0.603792 0.870920 0.107278
H44   H     H_    0.702667 0.758175 0.883430 0.102929
H45   H     H_    0.181954 0.050844 0.309473 0.109065
H46   H     H_    0.749065 0.942477 0.621143 0.136624
H47   H     H_    0.825544 0.182828 0.354561 0.108621
H48   H     H_    0.173242 0.014524 0.842194 0.110844
H49   H     H_    0.672570 0.637833 0.312852 0.091186
H50   H     H_    0.415059 0.016979 0.366950 0.179803
H51   H     H_    0.412480 0.948562 0.198444 0.257519
H52   H     H_    0.461964 0.080998 0.210685 0.256740
H53   H     H_    0.320777 0.001361 0.181593 0.252040
H54   H     H_    0.532542 0.540122 0.548584 0.153118
H55   H     H_    0.466249 0.576213 0.674608 0.245523
H56   H     H_    0.823264 0.619387 0.403000 0.098744
H57   H     H_    0.441531 0.448898 0.669555 0.259416
H58   H     H_    0.360176 0.450182 0.550538 0.242419
H59   H     H_    0.597980 0.351742 0.732340 0.173658
H60   H     H_    0.774952 0.504828 0.821281 0.254936
H61   H     H_    0.738552 0.529321 0.708724 0.248845
H62   H     H_    0.758319 0.414860 0.696114 0.237269
H63   H     H_    0.673907 0.816169 0.142618 0.083566
H64   H     H_    0.332439 0.986841 0.657941 0.093423
H65   H     H_    0.634598 0.727973 0.715627 0.120368
N1    N     N_R   0.941940 0.944580 0.650780 -0.040313
N2    N     N_R   0.204460 0.150250 0.707090 -0.042584
N3    N     N_R   0.794270 0.003240 0.446420 -0.043179
N4    N     N_R   0.204920 0.207570 0.650770 -0.042950
N5    N     N_R   0.793810 0.945920 0.502740 -0.044131
N6    N     N_R   0.943620 0.152590 0.446420 -0.040632
N7    N     N_R   0.055110 0.000900 0.707100 -0.039281
N8    N     N_R   0.795080 0.792430 0.349230 -0.039319
N9    N     N_2   0.445415 0.071459 0.342385 -0.102097
N10   N     N_2   0.523547 0.494051 0.586240 -0.100624
N11   N     N_2   0.610588 0.397516 0.694862 -0.098710
N12   N     N_R   0.206190 0.054080 0.497260 -0.039941
N13   N     N_R   0.056380 0.847410 0.553580 -0.041646
N14   N     N_R   0.944890 0.999100 0.292900 -0.042039
N15   N     N_R   0.058060 0.055420 0.349220 -0.040892
N16   N     N_R   0.943200 0.791100 0.497260 -0.039222
N17   N     N_R   0.795540 0.849750 0.292910 -0.044968
N18   N     N_R   0.205730 0.996760 0.553580 -0.040114
N19   N     N_R   0.056800 0.208900 0.502740 -0.036331
Ni1   Ni    Ni4+2 0.869690 0.869690 0.500000 0.211116
Ni2   Ni    Ni4+2 0.130310 0.130310 0.500000 0.211044
Ni3   Ni    Ni4+2 0.129250 0.998840 0.629170 0.215150
Ni4   Ni    Ni4+2 0.870750 0.001160 0.370830 0.216523

loop_
_geom_bond_atom_site_label_1
_geom_bond_atom_site_label_2
_ccdc_geom_bond_type
C25   C31   A    
C66   C68   A    
C63   C65   A    
C78   N14   A    
C6    C45   A    
C56   N12   A    
H59   N11   S    
C27   C29   A    
C41   C42   A    
C6    C58   S    
C27   H10   S    
C17   H65   S    
C3    C6    A    
C3    N17   A    
C39   C41   A    
C84   H60   S    
C52   N5    A    
C26   C27   A    
C37   C38   A    
N1    Ni1   S    
C18   C24   A    
C7    C56   A    
C36   C37   A    
C82   H52   S    
C76   N7    A    
N7    Ni3   S    
C37   H17   S    
N2    Ni3   S    
C67   H23   S    
C10   C17   A    
C1    C81   A    
C23   C40   A    
C79   H44   S    
N3    Ni4   S    
N6    N19   A    
C5    H64   S    
C18   C19   A    
C73   C74   A    
C5    N18   A    
C43   H19   S    
C14   H5    S    
C82   H53   S    
C9    C85   A    
C48   H21   S    
N12   Ni2   S    
C64   H47   S    
C68   C69   A    
C47   H20   S    
C25   N9    S    
C60   H33   S    
C70   C71   A    
C32   C38   A    
C4    C12   A    
C29   C30   A    
C28   N3    A    
C2    N16   A    
C62   H35   S    
N17   Ni4   S    
C28   C34   A    
C3    H63   S    
C59   H32   S    
C13   C14   A    
N19   Ni2   S    
C40   N4    A    
C61   C62   A    
C56   H12   S    
C83   H55   S    
C63   H36   S    
C44   C46   A    
N8    N17   A    
C29   N10   S    
C77   C79   A    
C22   C34   S    
C66   C72   A    
C10   H2    S    
H50   N9    S    
C4    N19   A    
C83   N10   S    
N13   N16   A    
C8    C41   S    
C49   H22   S    
C74   C75   A    
C5    C7    A    
N8    Ni1   S    
C55   H28   S    
C28   H25   S    
C25   C26   A    
N6    Ni4   S    
C50   H24   S    
C30   C31   A    
C13   C24   S    
C36   H16   S    
C51   C53   A    
C35   C36   A    
C43   C44   A    
C62   C63   A    
C70   H39   S    
C85   H45   S    
C47   C48   A    
N18   Ni3   S    
C11   H3    S    
C50   C51   A    
C45   H49   S    
C54   H27   S    
N14   Ni4   S    
C16   N2    A    
C39   H18   S    
N13   Ni3   S    
C75   C77   A    
C77   H43   S    
N15   Ni2   S    
C39   C46   A    
N12   N18   A    
C61   C72   S    
C48   C49   A    
N2    N4    A    
H54   N10   S    
N16   Ni1   S    
C16   C23   A    
C7    C19   S    
C26   H9    S    
C58   H30   S    
C65   H31   S    
C22   C24   A    
N3    N5    A    
C42   C43   A    
N1    N7    A    
C4    H4    S    
C84   H62   S    
C1    H1    S    
C15   C17   A    
C12   C64   A    
C54   C55   D    
N14   N15   A    
C51   H26   S    
C14   C15   A    
C52   H46   S    
C2    C8    A    
C45   N8    A    
C76   C81   A    
C83   H57   S    
C76   H48   S    
C23   C55   S    
C57   H29   S    
C84   H61   S    
C40   H37   S    
C64   N6    A    
C34   C52   A    
C32   H14   S    
C47   C53   A    
C33   H15   S    
C18   H7    S    
C32   C33   A    
C19   C20   A    
C78   H34   S    
C9    C68   S    
C85   N15   A    
C71   C72   A    
C42   C53   S    
C59   C65   A    
C83   H58   S    
C82   N9    S    
C11   C13   A    
N5    Ni1   S    
C16   H13   S    
C57   C58   D    
C74   H41   S    
C21   H8    S    
C73   H40   S    
C33   C35   A    
C73   C80   A    
N4    Ni2   S    
C1    N1    A    
C75   H42   S    
C9    C78   A    
C82   H51   S    
C69   C70   A    
C10   C11   A    
C15   H6    S    
C79   C80   A    
C67   N13   A    
C59   C60   A    
C20   C21   A    
C8    C67   A    
C12   C44   S    
C49   C50   A    
C38   H11   S    
C2    H56   S    
C66   H38   S    
C60   C61   A    
C69   C80   S    
C30   N11   S    
C21   C22   A    
C35   C46   S    
C54   C57   S    
C84   N11   S    
C71   C81   S    
C20   C31   S    
