data_mof_unit_59874.cif
_audit_creation_date              2012-12-11T16:51:23-0500
_audit_creation_method            fapswitch 2.2
_symmetry_space_group_name_H-M    P1
_symmetry_Int_Tables_number       1
_space_group_crystal_system       triclinic
_cell_length_a                    24.622739
_cell_length_b                    17.503064
_cell_length_c                    15.584776
_cell_angle_alpha                 90.01481
_cell_angle_beta                  128.896758
_cell_angle_gamma                 90.266718
_cell_volume                      5227.30458102

loop_
_atom_site_label
_atom_site_type_symbol
_atom_type_description
_atom_site_fract_x
_atom_site_fract_y
_atom_site_fract_z
_atom_type_partial_charge
C1    C     C_R   0.831748 0.902325 0.194404 0.362727
C2    C     C_R   0.176195 0.135847 0.500971 -0.013364
C3    C     C_3   0.750873 0.040766 0.679464 -0.046607
C4    C     C_3   0.006545 0.618374 0.746856 -0.051471
C5    C     C_3   0.057625 0.602704 0.510064 -0.060251
C6    C     C_3   0.506545 0.118374 0.746862 -0.051471
C7    C     C_3   0.557625 0.102707 0.510066 -0.060248
C8    C     C_3   0.933376 0.109269 0.091505 -0.116720
C9    C     C_3   0.063849 0.123153 0.906869 -0.118755
C10   C     C_3   0.433376 0.609269 0.091505 -0.116719
C11   C     C_3   0.563849 0.623151 0.906869 -0.118756
C12   C     C_3   0.922570 0.018429 0.733963 -0.277384
C13   C     C_R   0.316082 0.613438 0.499218 -0.099717
C14   C     C_3   0.091099 0.024330 0.281519 -0.236930
C15   C     C_3   0.422569 0.518429 0.733962 -0.277384
C16   C     C_3   0.591100 0.524330 0.281521 -0.236933
C17   C     C_3   0.730772 0.917029 0.440368 -0.039185
C18   C     C_3   0.204475 0.877824 0.332329 -0.053912
C19   C     C_3   0.230771 0.417028 0.440366 -0.039185
C20   C     C_3   0.704473 0.377822 0.332324 -0.053914
C21   C     C_R   0.676195 0.635847 0.500971 -0.013367
C22   C     C_R   0.882742 0.181247 0.211325 -0.060253
C23   C     C_R   0.116898 0.182814 0.786574 -0.059968
C24   C     C_R   0.382742 0.681246 0.211324 -0.060253
C25   C     C_R   0.616898 0.682814 0.786574 -0.059969
C26   C     C_R   0.833584 0.692277 0.536522 0.014789
C27   C     C_R   0.195124 0.702775 0.532104 -0.036584
C28   C     C_R   0.333585 0.192277 0.536523 0.014788
C29   C     C_R   0.167801 0.900258 0.804043 0.395176
C30   C     C_R   0.695125 0.202775 0.532105 -0.036584
C31   C     C_R   0.813945 0.764078 0.488495 -0.266237
C32   C     C_R   0.192592 0.775743 0.495760 -0.251034
C33   C     C_R   0.313945 0.264078 0.488495 -0.266238
C34   C     C_R   0.692592 0.275743 0.495760 -0.251033
C35   C     C_R   0.744432 0.789426 0.430832 0.470193
C36   C     C_R   0.237310 0.798949 0.473596 0.465212
C37   C     C_R   0.244432 0.289425 0.430831 0.470193
C38   C     C_R   0.737309 0.298949 0.473594 0.465209
C39   C     C_R   0.198620 0.245562 0.433511 0.398285
C40   C     C_R   0.331748 0.402325 0.194404 0.362727
C41   C     C_R   0.782956 0.245484 0.484688 0.352384
C42   C     C_R   0.698620 0.745563 0.433511 0.398286
C43   C     C_R   0.282957 0.745485 0.484690 0.352384
C44   C     C_R   0.223031 0.178045 0.495794 -0.187735
C45   C     C_R   0.775760 0.168530 0.502530 -0.122354
C46   C     C_R   0.723031 0.678045 0.495794 -0.187732
C47   C     C_R   0.275760 0.668531 0.502531 -0.122354
C48   C     C_R   0.288033 0.148428 0.538316 -0.048690
C49   C     C_R   0.737235 0.148766 0.536923 -0.104155
C50   C     C_R   0.788032 0.648428 0.538315 -0.048699
C51   C     C_R   0.667801 0.400258 0.804043 0.395177
C52   C     C_R   0.237235 0.648766 0.536923 -0.104155
C53   C     C_3   0.845599 0.616469 0.649796 0.353771
C54   C     C_3   0.181964 0.587746 0.494713 0.345433
C55   C     C_3   0.345599 0.116470 0.649797 0.353766
C56   C     C_3   0.681964 0.087746 0.494713 0.345433
C57   C     C_R   0.094498 0.865055 0.405306 -0.170897
C58   C     C_R   0.912483 0.856132 0.591028 -0.202047
C59   C     C_R   0.594498 0.365055 0.405306 -0.170896
C60   C     C_R   0.412483 0.356132 0.591028 -0.202046
C61   C     C_3   0.895731 0.667281 0.648110 0.443297
C62   C     C_R   0.882745 0.097911 0.589480 0.744775
C63   C     C_3   0.135375 0.649245 0.487220 0.407831
C64   C     C_3   0.395731 0.167282 0.648112 0.443294
C65   C     C_3   0.635376 0.149246 0.487222 0.407832
C66   C     C_2   0.193947 0.856316 0.981828 0.495492
C67   C     C_2   0.804822 0.861252 0.014346 0.483112
C68   C     C_2   0.693947 0.356316 0.981828 0.495493
C69   C     C_2   0.304822 0.361252 0.014345 0.483112
C70   C     C_2   0.253621 0.822952 0.018204 -0.199314
C71   C     C_2   0.743546 0.829680 0.974877 -0.194888
C72   C     C_2   0.753621 0.322952 0.018204 -0.199315
C73   C     C_R   0.113025 0.110188 0.409867 0.739056
C74   C     C_2   0.243546 0.329680 0.974876 -0.194888
C75   C     C_2   0.854561 0.248537 0.142399 -0.126999
C76   C     C_2   0.143089 0.253202 0.850135 -0.143196
C77   C     C_2   0.354561 0.748537 0.142399 -0.126999
C78   C     C_2   0.643089 0.753202 0.850136 -0.143195
C79   C     C_2   0.800766 0.285271 0.123707 -0.040725
C80   C     C_2   0.197789 0.289592 0.870291 -0.052256
C81   C     C_2   0.300766 0.785271 0.123707 -0.040725
C82   C     C_2   0.697789 0.789592 0.870291 -0.052256
C83   C     C_R   0.170366 0.865623 0.590927 -0.103364
C84   C     C_R   0.382745 0.597911 0.589480 0.744776
C85   C     C_R   0.843563 0.854815 0.407134 -0.004002
C86   C     C_R   0.670366 0.365623 0.590927 -0.103367
C87   C     C_R   0.343563 0.354815 0.407134 -0.004003
C88   C     C_R   0.076697 0.895363 0.803222 -0.182602
C89   C     C_R   0.922861 0.897010 0.195680 -0.173136
C90   C     C_R   0.576697 0.395363 0.803222 -0.182600
C91   C     C_R   0.422861 0.397010 0.195680 -0.173135
C92   C     C_R   0.851717 0.883660 0.131094 -0.091805
C93   C     C_R   0.147354 0.880484 0.866407 -0.095164
C94   C     C_R   0.351717 0.383660 0.131094 -0.091805
C95   C     C_R   0.613025 0.610188 0.409867 0.739055
C96   C     C_R   0.647354 0.380484 0.866407 -0.095164
C97   C     C_R   0.150935 0.829489 0.496837 0.204968
C98   C     C_R   0.863230 0.813707 0.497369 0.152605
C99   C     C_R   0.650935 0.329490 0.496837 0.204965
C100  C     C_R   0.363230 0.313707 0.497369 0.152605
C101  C     C_R   0.811449 0.100331 0.408346 -0.162094
C102  C     C_R   0.185039 0.112890 0.592684 -0.263788
C103  C     C_R   0.311449 0.600331 0.408346 -0.162095
C104  C     C_R   0.685039 0.612890 0.592684 -0.263789
C105  C     C_R   0.938642 0.138602 0.237734 0.606274
C106  C     C_R   0.816081 0.113438 0.499218 -0.099718
C107  C     C_R   0.060817 0.139867 0.760159 0.606329
C108  C     C_R   0.438642 0.638602 0.237734 0.606275
C109  C     C_R   0.560817 0.639867 0.760159 0.606331
C110  C     C_R   0.148885 0.140840 0.754726 -0.127200
C111  C     C_R   0.851510 0.140457 0.245890 -0.112668
C112  C     C_R   0.648885 0.640840 0.754726 -0.127200
C113  C     C_R   0.351510 0.640457 0.245890 -0.112670
C114  C     C_3   0.814071 0.492897 0.655209 0.010573
C115  C     C_3   0.250873 0.540766 0.679465 -0.046615
C116  C     C_3   0.314075 0.992898 0.655219 0.010566
Cl1   Cl    Cl    0.749827 0.938929 0.143806 -0.685399
Cl2   Cl    Cl    0.833123 0.868407 0.934790 -0.726921
Cl3   Cl    Cl    0.667730 0.365322 0.063977 -0.735048
Cl4   Cl    Cl    0.333123 0.368407 0.934791 -0.726922
Cl5   Cl    Cl    0.250752 0.935778 0.856832 -0.718421
Cl6   Cl    Cl    0.249827 0.438929 0.143806 -0.685398
Cl7   Cl    Cl    0.750752 0.435778 0.856832 -0.718419
Cl8   Cl    Cl    0.113116 0.280597 0.366706 -0.562344
Cl9   Cl    Cl    0.849151 0.275879 0.478253 -0.605491
Cl10  Cl    Cl    0.613116 0.780598 0.366707 -0.562344
Cl11  Cl    Cl    0.349152 0.775880 0.478257 -0.605491
Cl12  Cl    Cl    0.167730 0.865322 0.063977 -0.735046
H1    H     H_    0.843614 0.632983 0.716862 -0.019998
H2    H     H_    0.215364 0.277750 0.822943 0.183029
H3    H     H_    0.709481 0.436923 0.312321 0.181761
H4    H     H_    0.285527 0.776370 0.174906 0.188680
H5    H     H_    0.715364 0.777750 0.822943 0.183029
H6    H     H_    0.264486 0.813675 0.961478 0.155243
H7    H     H_    0.730788 0.821890 0.029383 0.161489
H8    H     H_    0.764486 0.313676 0.961478 0.155243
H9    H     H_    0.230788 0.321891 0.029383 0.161490
H10   H     H_    0.871100 0.260731 0.093431 0.176774
H11   H     H_    0.124170 0.268680 0.894765 0.174678
H12   H     H_    0.371099 0.760731 0.093430 0.176774
H13   H     H_    0.160915 0.566328 0.411848 0.015681
H14   H     H_    0.624171 0.768680 0.894766 0.174678
H15   H     H_    0.068839 0.852971 0.319603 0.105503
H16   H     H_    0.935910 0.842948 0.675478 0.119720
H17   H     H_    0.568839 0.352971 0.319603 0.105503
H18   H     H_    0.435910 0.342948 0.675478 0.119720
H19   H     H_    0.215150 0.853987 0.675183 0.157841
H20   H     H_    0.803432 0.839584 0.321664 0.165202
H21   H     H_    0.715150 0.353987 0.675183 0.157842
H22   H     H_    0.303432 0.339584 0.321664 0.165203
H23   H     H_    0.046954 0.896341 0.832620 0.156109
H24   H     H_    0.343614 0.132984 0.716863 -0.020001
H25   H     H_    0.952858 0.898969 0.166737 0.154594
H26   H     H_    0.546954 0.396341 0.832620 0.156109
H27   H     H_    0.452858 0.398969 0.166737 0.154593
H28   H     H_    0.764746 0.102688 0.323192 0.155962
H29   H     H_    0.232644 0.114542 0.676904 0.150349
H30   H     H_    0.264746 0.602688 0.323192 0.155962
H31   H     H_    0.732644 0.614542 0.676904 0.150350
H32   H     H_    0.196861 0.154269 0.769597 0.143205
H33   H     H_    0.804252 0.153893 0.233285 0.146196
H34   H     H_    0.696861 0.654269 0.769598 0.143205
H35   H     H_    0.660914 0.066329 0.411848 0.015682
H36   H     H_    0.304252 0.653893 0.233285 0.146196
H37   H     H_    0.758526 0.498140 0.580824 0.130985
H38   H     H_    0.821061 0.507117 0.731224 0.111396
H39   H     H_    0.828834 0.432161 0.661656 0.188164
H40   H     H_    0.241685 0.592964 0.709075 0.167184
H41   H     H_    0.301452 0.545226 0.696041 0.142509
H42   H     H_    0.254197 0.491883 0.727807 0.181450
H43   H     H_    0.258529 0.998138 0.580835 0.130990
H44   H     H_    0.321067 0.007120 0.731235 0.111397
H45   H     H_    0.328840 0.932162 0.661669 0.188163
H46   H     H_    0.919404 0.715119 0.709182 -0.055654
H47   H     H_    0.741687 0.092965 0.709076 0.167182
H48   H     H_    0.801452 0.045222 0.696039 0.142506
H49   H     H_    0.754196 0.991883 0.727807 0.181450
H50   H     H_    0.000324 0.590441 0.804429 0.143402
H51   H     H_    0.032930 0.674848 0.780041 0.104669
H52   H     H_    0.040720 0.581579 0.741111 0.160385
H53   H     H_    0.056434 0.546720 0.474979 0.157652
H54   H     H_    0.013780 0.639236 0.444708 0.116326
H55   H     H_    0.050086 0.591402 0.572016 0.169624
H56   H     H_    0.500322 0.090438 0.804430 0.143405
H57   H     H_    0.089269 0.664829 0.401404 -0.017347
H58   H     H_    0.532931 0.174846 0.780051 0.104669
H59   H     H_    0.540721 0.081580 0.741118 0.160385
H60   H     H_    0.556431 0.046724 0.474977 0.157649
H61   H     H_    0.513780 0.139242 0.444713 0.116325
H62   H     H_    0.550087 0.091405 0.572019 0.169625
H63   H     H_    0.880830 0.134596 0.029977 0.107657
H64   H     H_    0.928191 0.047396 0.101807 0.114467
H65   H     H_    0.961834 0.113958 0.057955 0.180144
H66   H     H_    0.113294 0.155469 0.965814 0.120532
H67   H     H_    0.075455 0.061407 0.909123 0.117093
H68   H     H_    0.419404 0.215120 0.709182 -0.055652
H69   H     H_    0.032619 0.128508 0.935498 0.183649
H70   H     H_    0.380831 0.634594 0.029978 0.107656
H71   H     H_    0.428192 0.547395 0.101808 0.114467
H72   H     H_    0.461834 0.613958 0.057955 0.180143
H73   H     H_    0.613294 0.655467 0.965815 0.120532
H74   H     H_    0.575454 0.561406 0.909122 0.117093
H75   H     H_    0.532619 0.628507 0.935499 0.183649
H76   H     H_    0.971250 0.001954 0.749513 0.151397
H77   H     H_    0.879768 0.977476 0.676809 0.116721
H78   H     H_    0.932636 0.015058 0.813928 0.178568
H79   H     H_    0.589269 0.164830 0.401406 -0.017349
H80   H     H_    0.042074 0.999645 0.258627 0.132720
H81   H     H_    0.137066 0.992186 0.350732 0.142663
H82   H     H_    0.089456 0.018486 0.209055 0.176243
H83   H     H_    0.471249 0.501953 0.749512 0.151396
H84   H     H_    0.379767 0.477476 0.676808 0.116722
H85   H     H_    0.432635 0.515058 0.813927 0.178568
H86   H     H_    0.542076 0.499644 0.258629 0.132719
H87   H     H_    0.637068 0.492188 0.350734 0.142665
H88   H     H_    0.589458 0.518486 0.209057 0.176243
H89   H     H_    0.782993 0.916288 0.523049 0.078516
H90   H     H_    0.785527 0.276369 0.174906 0.188680
H91   H     H_    0.689600 0.915470 0.449459 0.204984
H92   H     H_    0.726386 0.971773 0.400851 0.147788
H93   H     H_    0.148044 0.864048 0.282366 0.088091
H94   H     H_    0.228141 0.839635 0.307079 0.195665
H95   H     H_    0.209483 0.936925 0.312327 0.181759
H96   H     H_    0.282993 0.416287 0.523047 0.078517
H97   H     H_    0.189600 0.415469 0.449457 0.204983
H98   H     H_    0.226385 0.471772 0.400848 0.147789
H99   H     H_    0.648042 0.364046 0.282362 0.088092
H100  H     H_    0.728138 0.339632 0.307074 0.195665
N1    N     N_R   0.888400 0.921830 0.294620 -0.072939
N2    N     N_R   0.874350 0.922400 0.443380 -0.051622
N3    N     N_R   0.625650 0.422400 0.556620 -0.046930
N4    N     N_R   0.374350 0.422400 0.443380 -0.051622
N5    N     N_R   0.054230 0.922730 0.705400 -0.069367
N6    N     N_R   0.945770 0.922730 0.294600 -0.071824
N7    N     N_R   0.554230 0.422730 0.705400 -0.069368
N8    N     N_R   0.445770 0.422730 0.294600 -0.071824
N9    N     N_R   0.873790 0.077030 0.443380 -0.061262
N10   N     N_R   0.126210 0.077030 0.556620 -0.065944
N11   N     N_R   0.373790 0.577030 0.443380 -0.061262
N12   N     N_R   0.111600 0.921830 0.705380 -0.063342
N13   N     N_R   0.626210 0.577030 0.556620 -0.065944
N14   N     N_R   0.945200 0.076700 0.294600 -0.124978
N15   N     N_R   0.054800 0.076700 0.705400 -0.121051
N16   N     N_R   0.445200 0.576700 0.294600 -0.124978
N17   N     N_R   0.554800 0.576700 0.705400 -0.121051
N18   N     N_R   0.111030 0.077600 0.705380 -0.058319
N19   N     N_R   0.888970 0.077600 0.294620 -0.061702
N20   N     N_R   0.611030 0.577600 0.705380 -0.058319
N21   N     N_R   0.388970 0.577600 0.294620 -0.061701
N22   N     N_R   0.919490 0.077280 0.556590 -0.117399
N23   N     N_R   0.388400 0.421830 0.294620 -0.072939
N24   N     N_R   0.080510 0.077280 0.443410 -0.132066
N25   N     N_R   0.419490 0.577280 0.556590 -0.117399
N26   N     N_R   0.580510 0.577280 0.443410 -0.132066
N27   N     N_R   0.611600 0.421830 0.705380 -0.063341
N28   N     N_R   0.079940 0.922160 0.443410 -0.065335
N29   N     N_R   0.920060 0.922160 0.556590 -0.074145
N30   N     N_R   0.579940 0.422160 0.443410 -0.065335
N31   N     N_R   0.420060 0.422160 0.556590 -0.074145
N32   N     N_R   0.125650 0.922400 0.556620 -0.046931
Ni1   Ni    Ni4+2 0.882160 0.999430 0.370180 0.273387
Ni2   Ni    Ni4+2 0.117840 0.999430 0.629820 0.256886
Ni3   Ni    Ni4+2 0.382160 0.499430 0.370180 0.273387
Ni4   Ni    Ni4+2 0.617840 0.499430 0.629820 0.256886
Ni5   Ni    Ni4+2 0.012460 0.999430 0.370180 0.207393
Ni6   Ni    Ni4+2 0.987540 0.999430 0.629820 0.210631
Ni7   Ni    Ni4+2 0.512460 0.499430 0.370180 0.207392
Ni8   Ni    Ni4+2 0.487540 0.499430 0.629820 0.210631
O1    O     O_3   0.857203 0.538014 0.644845 -0.550681
O2    O     O_3   0.024848 0.153271 0.799265 -0.582063
O3    O     O_3   0.471534 0.649113 0.192791 -0.560527
O4    O     O_3   0.524849 0.653271 0.799266 -0.582063
O5    O     O_3   0.903973 0.093916 0.695143 -0.585047
O6    O     O_3   0.096526 0.102238 0.307572 -0.558352
O7    O     O_3   0.403973 0.593916 0.695143 -0.585047
O8    O     O_3   0.596526 0.602239 0.307572 -0.558352
O9    O     O_3   0.721103 0.856949 0.371651 -0.582999
O10   O     O_3   0.238286 0.873957 0.446369 -0.616503
O11   O     O_3   0.221103 0.356948 0.371649 -0.582999
O12   O     O_3   0.196240 0.526207 0.566425 -0.613942
O13   O     O_3   0.738284 0.373956 0.446365 -0.616507
O14   O     O_3   0.357204 0.038014 0.644848 -0.550682
O15   O     O_3   0.696239 0.026207 0.566425 -0.613941
O16   O     O_3   0.941901 0.626130 0.640645 -0.565235
O17   O     O_3   0.122093 0.640496 0.562692 -0.605576
O18   O     O_3   0.441903 0.126132 0.640649 -0.565236
O19   O     O_3   0.622094 0.140497 0.562695 -0.605574
O20   O     O_3   0.971534 0.149113 0.192791 -0.560527

loop_
_geom_bond_atom_site_label_1
_geom_bond_atom_site_label_2
_ccdc_geom_bond_type
C115  O12   S    
C48   C55   S    
C19   O11   S    
C9    O2    S    
N4    Ni3   S    
C14   H80   S    
C51   Cl7   S    
C11   O4    S    
C105  N14   A    
C116  O14   S    
C40   Cl6   S    
C111  H33   S    
C77   H12   S    
C23   C76   S    
N3    Ni4   S    
N11   Ni3   S    
C10   H71   S    
C110  H32   S    
C55   H24   S    
C45   C106  S    
C5    H55   S    
C88   N5    A    
N13   N26   A    
C56   H35   S    
C68   C96   S    
C20   H99   S    
C116  H45   S    
C56   O15   S    
C86   N3    A    
C32   C36   A    
C60   N31   A    
C6    O18   S    
N5    N12   A    
N31   Ni8   S    
C72   C79   S    
C78   H14   S    
C68   Cl3   S    
C11   H73   S    
C31   C98   S    
C54   C63   S    
C2    C102  A    
C8    H63   S    
C87   N4    A    
N24   Ni5   S    
C64   H68   S    
C101  C106  A    
C113  N21   A    
C32   C97   S    
C116  H44   S    
C42   C46   A    
N14   Ni5   S    
N1    N6    A    
C16   H88   S    
C18   H93   S    
C78   C82   D    
C84   N25   A    
C15   H83   S    
C85   C98   A    
C38   O13   S    
C4    O16   S    
N5    Ni6   S    
C18   O10   S    
C21   C104  A    
C53   C61   S    
C2    C44   S    
C62   N22   A    
C52   C54   S    
C63   H57   S    
N4    N31   A    
C29   Cl5   S    
N11   N25   A    
N8    Ni7   S    
C63   O17   S    
N15   Ni6   S    
C7    H62   S    
C83   N32   A    
C24   C108  A    
C45   C49   A    
C13   C103  A    
N17   N20   A    
C29   N12   A    
C67   C71   D    
C17   H91   S    
C115  H41   S    
C51   C96   A    
C71   C82   S    
C110  N18   A    
C3    O15   S    
N2    Ni1   S    
C23   C107  A    
C26   C31   A    
C74   C80   S    
C107  O2    S    
N18   Ni2   S    
C25   C112  A    
C107  N15   A    
C65   H79   S    
C82   H5    S    
C60   H18   S    
C22   C75   S    
C4    H52   S    
C115  H42   S    
N30   Ni7   S    
C10   H70   S    
C102  H29   S    
C5    H53   S    
C74   H9    S    
C9    H69   S    
C114  H38   S    
N25   Ni8   S    
C69   C74   D    
C29   C93   A    
N3    N30   A    
N26   Ni7   S    
C102  N10   A    
C50   C53   S    
C80   H2    S    
N16   N21   A    
C30   C34   A    
C58   N29   A    
C101  N9    A    
C25   C78   S    
C105  O20   S    
C61   O16   S    
C41   Cl9   S    
C7    H60   S    
C114  H39   S    
C7    O19   S    
N22   Ni6   S    
C38   C41   A    
N32   Ni2   S    
C69   C94   S    
C86   H21   S    
C4    H50   S    
C13   C47   S    
C40   N23   A    
C14   H82   S    
C9    H66   S    
C81   H4    S    
C1    Cl1   S    
C21   C95   A    
C101  H28   S    
C60   C100  A    
C79   H90   S    
N9    Ni1   S    
C91   N8    A    
C87   H22   S    
C33   C37   A    
C95   O8    S    
C116  H43   S    
C6    H56   S    
C11   H74   S    
C12   H78   S    
C89   N6    A    
C16   H87   S    
C16   H86   S    
C40   C94   A    
C91   H27   S    
C15   H84   S    
C18   H95   S    
C58   H16   S    
C55   O14   S    
C14   O6    S    
C89   H25   S    
C13   C84   A    
N2    N29   A    
C77   C81   D    
C73   O6    S    
C68   C72   D    
N15   N18   A    
C57   C97   A    
C55   C64   S    
C108  N16   A    
N28   Ni5   S    
C34   C99   S    
C8    H65   S    
C59   N30   A    
C11   H75   S    
N21   Ni3   S    
C89   C92   A    
C15   O7    S    
C86   C99   A    
C17   H92   S    
C95   N26   A    
C36   O10   S    
C104  N13   A    
N19   Ni1   S    
C2    C73   A    
C27   C63   S    
C37   O11   S    
C66   C93   S    
C83   H19   S    
C59   H17   S    
C3    H47   S    
C30   C49   A    
C28   C33   A    
C1    C92   A    
C53   O1    S    
C10   O3    S    
C61   H46   S    
C88   H23   S    
C31   C35   A    
N9    N22   A    
N10   Ni2   S    
N17   Ni8   S    
C90   H26   S    
C20   O13   S    
N8    N23   A    
C43   Cl11  S    
C16   O8    S    
C49   C56   S    
C114  O1    S    
C28   C64   S    
C5    H54   S    
C33   C100  S    
C85   H20   S    
C17   H89   S    
C27   C52   A    
C39   Cl8   S    
C114  H37   S    
C21   C46   S    
C76   H11   S    
C64   O18   S    
N7    Ni8   S    
C112  N20   A    
C23   C110  A    
C6    H58   S    
C88   C93   A    
C28   C48   A    
C54   O12   S    
C35   O9    S    
C14   H81   S    
N10   N24   A    
C27   C32   A    
C34   C38   A    
C26   C61   S    
C108  O3    S    
N29   Ni6   S    
C76   C80   D    
N12   Ni2   S    
N6    Ni5   S    
C75   H10   S    
C10   H72   S    
C12   O5    S    
C85   N2    A    
C15   H85   S    
C9    H67   S    
C103  H30   S    
C90   C96   A    
C19   H96   S    
C62   C106  A    
C25   C109  A    
C58   C98   A    
C109  O4    S    
C22   C105  A    
C112  H34   S    
C46   C50   A    
C69   Cl4   S    
N14   N19   A    
C20   H100  S    
C65   O19   S    
N16   Ni7   S    
C12   H77   S    
C73   N24   A    
C57   N28   A    
C26   C50   A    
C54   H13   S    
C3    H49   S    
N7    N27   A    
C3    H48   S    
C37   C39   A    
C44   C48   A    
C113  H36   S    
C71   H7    S    
C104  H31   S    
C66   C70   D    
C51   N27   A    
C43   C47   A    
C8    H64   S    
C59   C99   A    
N28   N32   A    
C39   C44   A    
C67   C92   S    
C35   C42   A    
C66   Cl12  S    
C90   N7    A    
C5    O17   S    
C12   H76   S    
C111  N19   A    
C19   H97   S    
C18   H94   S    
C67   Cl2   S    
C20   H3    S    
C30   C65   S    
C72   H8    S    
C42   Cl10  S    
C109  N17   A    
C8    O20   S    
C1    N1    A    
C19   H98   S    
C24   C113  A    
C4    H51   S    
C53   H1    S    
N27   Ni4   S    
C103  N11   A    
C22   C111  A    
C83   C97   A    
C84   O7    S    
C6    H59   S    
C24   C77   S    
C70   H6    S    
C87   C100  A    
C41   C45   A    
C7    H61   S    
C36   C43   A    
N1    Ni1   S    
C70   C81   S    
C47   C52   A    
N20   Ni4   S    
C115  H40   S    
C75   C79   D    
N13   Ni4   S    
C62   O5    S    
C17   O9    S    
C56   C65   S    
C57   H15   S    
N23   Ni3   S    
C91   C94   A    
