data_mof_unit_27396.cif
_audit_creation_date              2013-03-05T15:45:31-0500
_audit_creation_method            fapswitch 2.2
_symmetry_space_group_name_H-M    P1
_symmetry_Int_Tables_number       1
_space_group_crystal_system       triclinic
_cell_length_a                    9.813364
_cell_length_b                    11.066828
_cell_length_c                    13.440018
_cell_angle_alpha                 94.591205
_cell_angle_beta                  81.357365
_cell_angle_gamma                 111.961076
_cell_volume                      1337.88634807

loop_
_atom_site_label
_atom_site_type_symbol
_atom_site_description
_atom_site_fract_x
_atom_site_fract_y
_atom_site_fract_z
_atom_type_partial_charge
O1    O     O_R   0.426290 0.668220 0.490680 -0.602222
O2    O     O_R   0.659360 0.703290 0.520190 -0.508032
C1    C     C_R   0.558172 0.746059 0.506619 0.769373
O3    O     O_R   0.326580 0.473880 0.629020 -0.571189
O4    O     O_R   0.559660 0.508940 0.658530 -0.579204
C2    C     C_R   0.420734 0.482512 0.690389 0.783868
Cu1   Cu    Cu3+1 0.362000 0.479240 0.482530 1.001567
Cu2   Cu    Cu3+1 0.638000 0.520760 0.517470 0.998587
O5    O     O_R   0.340640 0.296710 0.479810 -0.510047
O6    O     O_R   0.573710 0.331780 0.509320 -0.611331
O7    O     O_R   0.440340 0.491060 0.341470 -0.577484
O8    O     O_R   0.673420 0.526120 0.370980 -0.571935
C3    C     C_R   0.441752 0.253941 0.493577 0.754809
C4    C     C_R   0.577464 0.509947 0.309459 0.802675
C5    C     C_R   0.751004 0.425561 0.058506 -0.186334
H1    H     H_    0.807949 0.448447 0.208538 0.150334
H2    H     H_    0.747495 0.349022 0.866315 0.159690
H3    H     H_    0.839978 0.391844 0.028913 0.136853
C6    C     C_R   0.617635 0.499632 0.200585 -0.043841
C7    C     C_R   0.248368 0.504438 0.838523 -0.169821
C8    C     C_R   0.213339 0.518872 0.941563 -0.141600
C9    C     C_R   0.305076 0.508810 0.007363 -0.166787
C10   C     C_R   0.432156 0.478246 0.971322 0.083655
C11   C     C_R   0.457975 0.449293 0.866962 0.082407
C12   C     C_R   0.533586 0.474046 0.035403 0.076446
C13   C     C_R   0.650271 0.430179 0.996235 0.160173
C14   C     C_R   0.662950 0.388089 0.896057 -0.229231
C15   C     C_R   0.567054 0.395479 0.832801 -0.181916
C16   C     C_R   0.523090 0.512441 0.137412 -0.226509
C17   C     C_R   0.734236 0.459377 0.160472 -0.179249
C18   C     C_R   0.372601 0.473570 0.799790 -0.094647
H4    H     H_    0.440288 0.550829 0.170684 0.150311
H5    H     H_    0.180266 0.521297 0.788880 0.152973
H6    H     H_    0.271230 0.522765 0.086074 0.132681
H7    H     H_    0.116854 0.542368 0.970583 0.144372
H8    H     H_    0.577769 0.355244 0.757404 0.179954
H9    H     H_    0.627734 0.137028 0.486681 0.203995
H10   H     H_    0.371993 0.862902 0.513959 0.204224
C19   C     C_2   0.595365 0.886903 0.507814 0.145094
C20   C     C_2   0.485791 0.931318 0.507066 -0.216183
C21   C     C_2   0.404393 0.113120 0.492865 0.147845
C22   C     C_2   0.513903 0.068665 0.493744 -0.220560
H11   H     H_    0.126047 0.577106 0.568540 0.151897
H12   H     H_    0.872501 0.420367 0.433234 0.152451
N1    N     N_2   0.845330 0.551960 0.543750 -0.270215
C23   C     C_2   0.922058 0.489476 0.491613 -0.031254
H13   H     H_    0.105922 0.384860 0.400043 0.209600
N2    N     N_2   0.154690 0.448120 0.456210 -0.269023
C24   C     C_2   0.077185 0.509229 0.509308 -0.027226
H14   H     H_    0.895389 0.617527 0.598327 0.213628
N3    N     N_R   0.252116 0.026801 0.493577 0.135906
O9    O     O_R   0.148059 0.053064 0.552290 -0.280512
O10   O     O_R   0.215511 0.934795 0.424870 -0.335269
N4    N     N_R   0.747537 0.973322 0.507567 0.135551
O11   O     O_R   0.851970 0.947379 0.449051 -0.278159
O12   O     O_R   0.783611 0.065176 0.576440 -0.341137

loop_
_geom_bond_atom_site_label_1
_geom_bond_atom_site_label_2
_geom_bond_distance
_ccdc_geom_bond_type
C5    H3    1.084130 S    
H10   C20   1.084749 S    
C10   C11   1.419895 A    
O6    C3    1.297126 A    
C8    H7    1.083130 S    
O4    Cu2   1.931015 S    
C21   C22   1.340622 D    
N4    O11   1.301133 A    
H13   N2    1.030721 S    
Cu2   O8    1.948903 S    
Cu1   N2    2.013775 S    
C20   C22   1.460697 S    
O2    C1    1.289629 A    
C11   C18   1.422561 A    
C1    C19   1.461242 S    
Cu1   Cu2   2.680378 S    
C8    C9    1.391032 A    
Cu1   O7    1.931015 S    
C23   C24   1.507768 S    
C13   C14   1.392058 A    
N1    H14   1.030715 S    
O3    Cu1   1.948904 S    
C7    H5    1.083431 S    
C3    C21   1.461017 S    
N2    C24   1.299800 D    
H12   C23   1.085127 S    
C2    C18   1.474597 S    
C16   H4    1.076703 S    
C10   C12   1.425951 A    
C12   C16   1.402799 A    
O4    C2    1.293798 A    
C9    H6    1.076984 S    
O7    C4    1.292125 A    
N4    O12   1.301604 A    
C19   N4    1.440650 S    
Cu2   N1    2.013602 S    
C19   C20   1.340647 D    
H1    C17   1.083344 S    
N3    O9    1.301154 A    
H2    C14   1.084446 S    
N1    C23   1.299772 D    
C14   C15   1.387160 A    
C7    C8    1.387111 A    
C15   H8    1.080247 S    
C5    C17   1.393339 A    
Cu2   O6    1.944537 S    
O3    C2    1.301365 A    
H9    C22   1.084777 S    
Cu1   O5    1.949249 S    
O5    C3    1.289692 A    
C9    C10   1.418445 A    
H11   C24   1.085129 S    
C5    C13   1.404822 A    
N3    O10   1.301581 A    
C12   C13   1.420451 A    
O1    Cu1   1.944534 S    
C6    C17   1.398515 A    
C4    C6    1.463953 S    
C21   N3    1.440545 S    
O2    Cu2   1.949247 S    
C11   C15   1.413023 A    
O8    C4    1.298710 A    
O1    C1    1.297241 A    
C7    C18   1.402243 A    
C6    C16   1.398635 A    
