data_mof_unit_10658.cif
_audit_creation_date              2012-12-11T17:08:24-0500
_audit_creation_method            fapswitch 2.2
_symmetry_space_group_name_H-M    P1
_symmetry_Int_Tables_number       1
_space_group_crystal_system       triclinic
_cell_length_a                    6.978435
_cell_length_b                    14.512766
_cell_length_c                    16.086701
_cell_angle_alpha                 89.928035
_cell_angle_beta                  90.109064
_cell_angle_gamma                 89.915095
_cell_volume                      1629.19704052

loop_
_atom_site_label
_atom_site_type_symbol
_atom_type_description
_atom_site_fract_x
_atom_site_fract_y
_atom_site_fract_z
_atom_type_partial_charge
O1    O     O_R   0.505700 0.583890 0.413310 -0.532596
O2    O     O_R   0.175960 0.594920 0.586080 -0.544869
O3    O     O_R   0.005660 0.416110 0.586690 -0.535974
C1    C     C_R   0.344777 0.616973 0.614742 0.685997
O4    O     O_R   0.175980 0.594920 0.413930 -0.543936
O5    O     O_R   0.005680 0.416110 0.413310 -0.541859
C2    C     C_R   0.344596 0.617369 0.385648 0.742355
O6    O     O_R   0.505680 0.583890 0.586690 -0.539073
O7    O     O_3   0.339200 0.441330 0.500000 -0.368477
V1    V     V_3+5 0.064350 0.510880 0.500000 1.399269
O8    O     O_R   0.675960 0.405080 0.413920 -0.521570
C3    C     C_R   0.844641 0.383641 0.384732 0.712627
O9    O     O_R   0.675940 0.405080 0.586070 -0.547940
C4    C     C_R   0.844970 0.382940 0.614592 0.688551
V2    V     V_3+5 0.564340 0.489120 0.500000 1.425090
O10   O     O_3   0.839360 0.558670 0.500000 -0.375753
C5    C     C_R   0.014004 0.313018 0.737617 0.022599
C6    C     C_R   0.853964 0.317167 0.684984 -0.086887
C7    C     C_R   0.700928 0.257036 0.702054 -0.197258
H1    H     H_    0.577238 0.255900 0.661680 0.141777
C8    C     C_R   0.712535 0.192784 0.767520 -0.197846
H2    H     H_    0.599146 0.143573 0.775685 0.192384
C9    C     C_R   0.876402 0.186550 0.818034 -0.090605
C10   C     C_R   0.025321 0.248283 0.801982 0.006372
C11   C     C_3   0.229943 0.227482 0.782780 0.352728
C12   C     C_3   0.219116 0.300523 0.714017 -0.472183
H3    H     H_    0.324619 0.248845 0.834933 0.065433
H4    H     H_    0.236379 0.277398 0.648816 0.169409
H5    H     H_    0.304311 0.363067 0.728876 0.141205
C13   C     C_R   0.723810 0.184018 0.239883 0.015136
C14   C     C_R   0.881703 0.181348 0.186123 -0.081381
C15   C     C_R   0.033051 0.242799 0.202310 -0.180549
H6    H     H_    0.156248 0.244053 0.161896 0.136666
C16   C     C_R   0.020263 0.308003 0.266886 -0.192762
H7    H     H_    0.132313 0.358086 0.274392 0.191790
C17   C     C_R   0.857015 0.313831 0.317539 -0.089774
C18   C     C_R   0.710559 0.250187 0.302814 0.015475
C19   C     C_3   0.504115 0.267662 0.283897 0.353767
C20   C     C_3   0.516567 0.191335 0.218082 -0.473052
H8    H     H_    0.411941 0.247927 0.337289 0.071227
H9    H     H_    0.493395 0.209776 0.152022 0.170802
H10   H     H_    0.437890 0.128057 0.236743 0.163649
C21   C     C_R   0.507667 0.683283 0.740980 0.101507
C22   C     C_R   0.352882 0.682609 0.685329 -0.107858
C23   C     C_R   0.201110 0.744201 0.701246 -0.184395
H11   H     H_    0.078265 0.746140 0.660319 0.133379
C24   C     C_R   0.212324 0.808435 0.766735 -0.175612
H12   H     H_    0.097208 0.857638 0.774393 0.130699
C25   C     C_R   0.375918 0.813233 0.818178 -0.110905
C26   C     C_R   0.519150 0.747055 0.805565 0.094356
C27   C     C_3   0.728989 0.759920 0.793379 -0.409666
C28   C     C_3   0.716613 0.690081 0.723309 -0.397857
H13   H     H_    0.813861 0.735071 0.847506 0.173030
H14   H     H_    0.763941 0.830631 0.771615 0.168353
H15   H     H_    0.793674 0.624703 0.737071 0.167572
H16   H     H_    0.745123 0.720077 0.660934 0.169988
C29   C     C_R   0.465025 0.669084 0.246323 0.114142
C30   C     C_R   0.351796 0.684759 0.316519 -0.164001
C31   C     C_R   0.237769 0.765050 0.317144 -0.273091
H17   H     H_    0.150033 0.779661 0.371029 0.134544
C32   C     C_R   0.250491 0.831556 0.252372 0.446041
C33   C     C_R   0.375995 0.816279 0.184336 -0.191426
C34   C     C_R   0.473170 0.731734 0.180936 0.022402
C35   C     C_3   0.679850 0.711334 0.165547 -0.412381
C36   C     C_3   0.672694 0.645643 0.239138 -0.382189
H18   H     H_    0.773997 0.771375 0.175978 0.171734
H19   H     H_    0.702078 0.675636 0.105222 0.164766
H20   H     H_    0.757806 0.670054 0.293333 0.176055
H21   H     H_    0.698488 0.572828 0.221677 0.164151
O11   O     O_R   0.229000 0.916070 0.913330 -0.536967
O12   O     O_R   0.558770 0.905070 0.086080 -0.549956
O13   O     O_R   0.729000 0.083900 0.086690 -0.540472
C37   C     C_R   0.390068 0.884101 0.115574 0.747248
O14   O     O_R   0.558720 0.905070 0.913930 -0.541342
O15   O     O_R   0.728960 0.083900 0.913310 -0.543202
C38   C     C_R   0.389680 0.883318 0.885014 0.715523
O16   O     O_R   0.229050 0.916070 0.086710 -0.531445
O17   O     O_3   0.395460 0.058650 0.000020 -0.369664
V3    V     V_3+5 0.670340 0.989120 0.000000 1.394146
O18   O     O_R   0.058670 0.094960 0.913900 -0.521385
C39   C     C_R   0.889588 0.116577 0.884968 0.711641
O19   O     O_R   0.058720 0.094960 0.086050 -0.541274
C40   C     C_R   0.889998 0.116429 0.115103 0.688606
V4    V     V_3+5 0.170330 0.010930 0.999970 1.440317
O20   O     O_3   0.895340 0.941350 0.999980 -0.378814
O21   O     O_3   0.173839 0.918666 0.264174 -0.558699
C41   C     C_3   0.972938 0.915502 0.256167 -0.234788
H22   H     H_    0.932246 0.906736 0.189931 0.151547
H23   H     H_    0.913472 0.982612 0.276746 0.153621
H24   H     H_    0.906397 0.861223 0.295553 0.117157
O22   O     O_3   0.261067 0.132949 0.761653 -0.547894
C42   C     C_3   0.196105 0.106315 0.681996 -0.250803
H25   H     H_    0.302895 0.125780 0.634045 0.129920
H26   H     H_    0.052243 0.134235 0.666534 0.153351
H27   H     H_    0.184174 0.030114 0.680919 0.150908
O23   O     O_3   0.469726 0.360989 0.259328 -0.547188
C43   C     C_3   0.517145 0.382242 0.176171 -0.260172
H28   H     H_    0.408116 0.354386 0.132743 0.123925
H29   H     H_    0.663998 0.359230 0.159560 0.153241
H30   H     H_    0.511973 0.457947 0.168398 0.149615

loop_
_geom_bond_atom_site_label_1
_geom_bond_atom_site_label_2
_ccdc_geom_bond_type
C41   H22   S    
C4    C6    S    
C7    H1    S    
O18   V4    S    
O12   V3    S    
C43   H28   S    
C20   H9    S    
C23   H11   S    
C18   C19   S    
O14   C38   A    
C5    C12   S    
C17   C18   A    
C7    C8    A    
C6    C7    A    
O13   V3    S    
O5    C3    A    
C19   C20   S    
C21   C28   S    
V2    O10   S    
C14   C40   S    
C16   H7    S    
O8    V2    S    
C14   C15   A    
C9    C10   A    
C33   C37   S    
O1    V2    S    
C3    C17   S    
O11   V4    S    
O7    V1    S    
C2    C30   S    
C28   H15   S    
C1    O6    A    
C31   H17   S    
O9    C4    A    
C43   H29   S    
C29   C34   A    
C20   H10   S    
C23   C24   A    
C31   C32   A    
C5    C10   A    
C11   O22   S    
C27   C28   S    
C35   H19   S    
C10   C11   S    
C24   C25   A    
O22   C42   S    
O4    C2    A    
O17   V3    S    
O15   C39   A    
C1    C22   S    
O16   V4    S    
C26   C27   S    
C30   C31   A    
C42   H27   S    
C13   C18   A    
C27   H13   S    
C35   H18   S    
O2    C1    A    
C21   C22   A    
C33   C34   A    
C24   H12   S    
C36   H20   S    
O23   C43   S    
C42   H26   S    
C5    C6    A    
C25   C38   S    
V4    O20   S    
O3    C4    A    
O19   C40   A    
O6    V2    S    
O19   V4    S    
O14   V3    S    
O9    V2    S    
O11   C38   A    
O2    V1    S    
V3    O20   S    
C43   H30   S    
C22   C23   A    
O21   C41   S    
O12   C37   A    
C9    C39   S    
O1    C2    A    
C29   C36   S    
O18   C39   A    
O5    V1    S    
O8    C3    A    
C21   C26   A    
C11   H3    S    
C12   H4    S    
C27   H14   S    
C15   H6    S    
C8    C9    A    
C11   C12   S    
O4    V1    S    
O3    V1    S    
V1    O10   S    
C35   C36   S    
C19   H8    S    
C29   C30   A    
C13   C14   A    
C36   H21   S    
C42   H25   S    
C13   C20   S    
C16   C17   A    
O7    V2    S    
C32   C33   A    
O13   C40   A    
C32   O21   S    
C34   C35   S    
O17   V4    S    
C12   H5    S    
C25   C26   A    
C41   H24   S    
C19   O23   S    
C41   H23   S    
C37   O16   A    
C8    H2    S    
O15   V3    S    
C28   H16   S    
C15   C16   A    
