data_mof_unit_39443.cif
_audit_creation_date              2012-12-10T17:08:35-0500
_audit_creation_method            fapswitch 2.2
_symmetry_space_group_name_H-M    P1
_symmetry_Int_Tables_number       1
_space_group_crystal_system       triclinic
_cell_length_a                    15.712969
_cell_length_b                    10.752327
_cell_length_c                    10.037102
_cell_angle_alpha                 89.948358
_cell_angle_beta                  91.621583
_cell_angle_gamma                 90.726176
_cell_volume                      1694.96271922

loop_
_atom_site_label
_atom_site_type_symbol
_atom_type_description
_atom_site_fract_x
_atom_site_fract_y
_atom_site_fract_z
_atom_type_partial_charge
C1    C     C_R   0.503154 0.262875 0.499948 0.898520
C2    C     C_2   0.479506 0.867055 0.497705 0.244572
C3    C     C_2   0.497632 0.066696 0.389204 -0.119000
C4    C     C_R   0.338324 0.498536 0.498134 0.899360
C5    C     C_2   0.514615 0.132024 0.499547 -0.258084
C6    C     C_2   0.557715 0.559695 0.925773 0.541592
C7    C     C_2   0.544469 0.577227 0.075252 -0.116886
C8    C     C_R   0.496317 0.737164 0.499733 0.866589
C9    C     C_R   0.661584 0.501143 0.501723 0.877274
C10   C     C_3   0.050587 0.394806 0.586306 -0.472737
C11   C     C_3   0.042642 0.471335 0.343282 0.598261
C12   C     C_3   0.952402 0.390754 0.588681 0.289869
C13   C     C_3   0.941471 0.475073 0.347948 0.613046
C14   C     C_1   0.750357 0.502559 0.505556 -0.171214
C15   C     C_3   0.082024 0.495133 0.487145 -0.007625
C16   C     C_3   0.854629 0.223341 0.614092 0.127640
C17   C     C_3   0.884333 0.155193 0.741022 -0.394351
C18   C     C_3   0.817590 0.059435 0.783056 -0.996547
C19   C     C_3   0.950097 0.816140 0.414586 0.103739
C20   C     C_3   0.992033 0.924898 0.490386 -0.511314
C21   C     C_3   0.017261 0.029055 0.395664 -0.728361
C22   C     C_3   0.694459 0.654578 0.943587 0.059099
C23   C     C_3   0.917179 0.500372 0.498016 -0.045284
C24   C     C_3   0.687599 0.794593 0.970198 -0.370585
C25   C     C_3   0.747001 0.836167 0.084980 -0.925593
C26   C     C_3   0.398299 0.359239 0.115443 0.179123
C27   C     C_3   0.370754 0.248971 0.027668 -0.433773
C28   C     C_3   0.278110 0.211950 0.049983 -0.839249
C29   C     C_3   0.883953 0.335575 0.177000 0.212139
C30   C     C_3   0.787007 0.343969 0.156063 -0.350385
C31   C     C_3   0.760032 0.325069 0.010595 -0.974678
C32   C     C_3   0.954353 0.738670 0.762596 0.070224
C33   C     C_3   0.970360 0.712473 0.910767 -0.308385
C34   C     C_3   0.955480 0.627768 0.556611 0.844340
C35   C     C_3   0.996330 0.830452 0.986971 -0.882161
C36   C     C_3   0.054853 0.623757 0.539355 -0.641698
C37   C     C_1   0.825644 0.502252 0.505318 0.126766
C38   C     C_1   0.173937 0.493380 0.488400 0.132197
C39   C     C_1   0.249356 0.495127 0.492876 -0.133666
C40   C     C_2   0.505538 0.933761 0.393287 -0.269297
Cl1   Cl    Cl    0.412760 0.924072 0.623217 -0.621975
Cl2   Cl    Cl    0.085875 0.581918 0.227312 -0.639436
Cl3   Cl    Cl    0.079216 0.323910 0.282811 -0.634168
Cl4   Cl    Cl    0.894207 0.596558 0.242899 -0.749395
H1    H     H_    0.076462 0.415878 0.688447 0.172153
H2    H     H_    0.082795 0.697164 0.477129 0.209460
H3    H     H_    0.820420 0.156758 0.546273 0.181157
H4    H     H_    0.807789 0.295261 0.640036 0.107968
H5    H     H_    0.945516 0.107728 0.725168 0.238853
H6    H     H_    0.895479 0.223656 0.822656 0.207664
H7    H     H_    0.754102 0.102957 0.789260 0.274276
H8    H     H_    0.835532 0.020668 0.882116 0.268527
H9    H     H_    0.812903 0.982429 0.709510 0.268652
H10   H     H_    0.899144 0.855297 0.348546 0.205851
H11   H     H_    0.994267 0.773074 0.345260 0.200213
H12   H     H_    0.934621 0.405258 0.694387 0.127816
H13   H     H_    0.946447 0.961225 0.562394 0.249563
H14   H     H_    0.050269 0.894312 0.545184 0.220509
H15   H     H_    0.060479 0.993594 0.319060 0.259107
H16   H     H_    0.051114 0.103390 0.453242 0.297577
H17   H     H_    0.959852 0.069162 0.345752 0.280278
H18   H     H_    0.754267 0.639412 0.889785 0.179395
H19   H     H_    0.701912 0.599244 0.036827 0.155327
H20   H     H_    0.704026 0.846642 0.878532 0.235408
H21   H     H_    0.621304 0.818716 0.994441 0.225869
H22   H     H_    0.728933 0.789260 0.178911 0.287476
H23   H     H_    0.536768 0.890564 0.310137 0.152566
H24   H     H_    0.742336 0.938291 0.098774 0.256901
H25   H     H_    0.813806 0.813542 0.063330 0.290812
H26   H     H_    0.356247 0.439436 0.091045 0.137032
H27   H     H_    0.389756 0.332047 0.220404 0.198420
H28   H     H_    0.378164 0.273638 0.921031 0.241247
H29   H     H_    0.412092 0.168255 0.051153 0.240650
H30   H     H_    0.269502 0.184330 0.155493 0.279282
H31   H     H_    0.260037 0.131849 0.984945 0.271748
H32   H     H_    0.235404 0.290700 0.025055 0.284362
H33   H     H_    0.902977 0.239401 0.151964 0.154737
H34   H     H_    0.480733 0.110427 0.294618 0.177338
H35   H     H_    0.919247 0.397194 0.107964 0.187053
H36   H     H_    0.755600 0.271596 0.217530 0.224071
H37   H     H_    0.763974 0.435568 0.189327 0.268088
H38   H     H_    0.793102 0.393052 0.945903 0.266604
H39   H     H_    0.690231 0.337906 0.998217 0.290498
H40   H     H_    0.775364 0.229263 0.980185 0.275111
H41   H     H_    0.897294 0.797913 0.750199 0.184393
H42   H     H_    0.010667 0.789518 0.725662 0.142757
H43   H     H_    0.911803 0.671840 0.953462 0.246559
H44   H     H_    0.022114 0.643457 0.922826 0.267339
H45   H     H_    0.537517 0.088578 0.591330 0.187315
H46   H     H_    0.057759 0.867611 0.950701 0.265870
H47   H     H_    0.004101 0.809108 0.094746 0.306720
H48   H     H_    0.947002 0.902545 0.974223 0.242000
H49   H     H_    0.442891 0.483483 0.893103 0.157385
H50   H     H_    0.573268 0.656998 0.125363 0.110721
H51   H     H_    0.075904 0.302063 0.560516 0.239813
H52   H     H_    0.087661 0.638446 0.637946 0.206183
N1    N     N_2   0.500900 0.501330 0.852150 -0.193658
N2    N     N_2   0.500920 0.501360 0.147810 0.051081
O1    O     O_R   0.499990 0.319060 0.613040 -0.610661
O2    O     O_3   0.908888 0.731243 0.500756 -0.631952
O3    O     O_3   0.626030 0.613521 0.859363 -0.610865
O4    O     O_3   0.484319 0.389072 0.092316 -0.590986
O5    O     O_3   0.905371 0.355734 0.313356 -0.593602
O6    O     O_3   0.939521 0.624119 0.696135 -0.686976
O7    O     O_R   0.500010 0.319100 0.386900 -0.616805
O8    O     O_R   0.377130 0.499990 0.613120 -0.616626
O9    O     O_R   0.377160 0.500030 0.386980 -0.628262
O10   O     O_R   0.499990 0.680900 0.613100 -0.551668
O11   O     O_R   0.500010 0.680940 0.386960 -0.650251
O12   O     O_R   0.622840 0.499970 0.613020 -0.566207
O13   O     O_R   0.622870 0.500010 0.386880 -0.611325
O14   O     O_3   0.924528 0.271267 0.543474 -0.581281
Zn1   Zn    Zn3+2 0.499980 0.499970 0.650990 1.016495
Zn2   Zn    Zn3+2 0.500020 0.500030 0.349010 0.978372

loop_
_geom_bond_atom_site_label_1
_geom_bond_atom_site_label_2
_ccdc_geom_bond_type
C9    O13   A    
C7    N2    D    
C19   C20   S    
C28   H30   S    
C1    O1    A    
C18   H8    S    
C15   C38   S    
C12   C23   S    
C13   C23   S    
C26   C27   S    
C31   H38   S    
C1    C5    S    
C33   H44   S    
C28   H31   S    
C21   H15   S    
C10   C15   S    
C30   C31   S    
N2    Zn2   S    
C2    Cl1   S    
C31   H39   S    
C29   O5    S    
C11   Cl2   S    
C6    O3    S    
C18   H9    S    
C22   H19   S    
C11   C15   S    
C16   C17   S    
C40   H23   S    
C34   O2    S    
C32   O6    S    
C36   H2    S    
C13   O5    S    
C21   H17   S    
C30   H36   S    
C35   H48   S    
C24   H20   S    
C26   H27   S    
C16   H4    S    
C25   H24   S    
C8    O10   A    
C16   H3    S    
C18   H7    S    
C4    O9    A    
O8    Zn1   S    
C6    N1    D    
O7    Zn2   S    
C24   C25   S    
C21   H16   S    
C17   H5    S    
N2    O4    S    
C4    O8    A    
C34   O6    S    
C31   H40   S    
O10   Zn1   S    
C9    C14   S    
O9    Zn2   S    
C29   C30   S    
C22   H18   S    
C36   H52   S    
C29   H35   S    
C4    C39   S    
C23   C34   S    
C32   H42   S    
C10   H1    S    
C17   C18   S    
C11   Cl3   S    
C22   O3    S    
O12   Zn1   S    
C12   H12   S    
C10   C12   S    
O11   Zn2   S    
C24   H21   S    
C19   H10   S    
C3    C40   S    
C26   H26   S    
C22   C24   S    
C25   H25   S    
N1    Zn1   S    
C28   H32   S    
H49   N1    S    
C15   C36   S    
C12   O14   S    
C16   O14   S    
C19   H11   S    
C9    O12   A    
C7    H50   S    
C2    C8    S    
C25   H22   S    
C3    C5    D    
C17   H6    S    
O1    Zn1   S    
C19   O2    S    
C6    C7    S    
C32   C33   S    
C30   H37   S    
C33   H43   S    
C23   C37   S    
C8    O11   A    
C26   O4    S    
C14   C37   T    
C11   C13   S    
C38   C39   T    
C10   H51   S    
C32   H41   S    
C33   C35   S    
O13   Zn2   S    
C34   C36   S    
C35   H46   S    
C2    C40   D    
C29   H33   S    
C20   C21   S    
C27   C28   S    
C20   H13   S    
C27   H29   S    
C3    H34   S    
C20   H14   S    
C13   Cl4   S    
C5    H45   S    
C27   H28   S    
C1    O7    A    
C35   H47   S    
