data_mof_unit_41609.cif
_audit_creation_date              2013-03-05T16:41:35-0500
_audit_creation_method            fapswitch 2.2
_symmetry_space_group_name_H-M    P1
_symmetry_Int_Tables_number       1
_space_group_crystal_system       triclinic
_cell_length_a                    12.795183
_cell_length_b                    10.661122
_cell_length_c                    9.866326
_cell_angle_alpha                 90.046201
_cell_angle_beta                  98.012976
_cell_angle_gamma                 90.094364
_cell_volume                      1332.73250555

loop_
_atom_site_label
_atom_site_type_symbol
_atom_site_description
_atom_site_fract_x
_atom_site_fract_y
_atom_site_fract_z
_atom_type_partial_charge
O1    O     O_R   0.500010 0.316790 0.614690 -0.610270
O2    O     O_R   0.500000 0.316760 0.385350 -0.629420
C1    C     C_R   0.496897 0.259908 0.499466 0.874251
O3    O     O_R   0.346360 0.499990 0.595720 -0.626979
O4    O     O_R   0.346350 0.499960 0.366370 -0.622187
C2    C     C_R   0.298393 0.502530 0.472144 0.888893
Zn1   Zn    Zn3+2 0.500010 0.500020 0.653130 0.927746
Zn2   Zn    Zn3+2 0.499990 0.499980 0.346870 0.930754
O5    O     O_R   0.500000 0.683240 0.614650 -0.632653
O6    O     O_R   0.499990 0.683210 0.385310 -0.620116
O7    O     O_R   0.653650 0.500040 0.633630 -0.620802
O8    O     O_R   0.653640 0.500010 0.404280 -0.629159
C3    C     C_R   0.496172 0.740033 0.499571 0.879337
C4    C     C_R   0.701624 0.497114 0.527968 0.874664
C5    C     C_R   0.814031 0.497696 0.548119 -0.077545
C6    C     C_R   0.186048 0.499406 0.452390 -0.046267
C7    C     C_R   0.032977 0.375261 0.379357 -0.223697
C8    C     C_R   0.137896 0.400083 0.376606 -0.271678
C9    C     C_R   0.129283 0.584114 0.523042 0.104587
C10   C     C_R   0.024851 0.551105 0.538211 0.100390
C11   C     C_R   0.975912 0.445685 0.464214 0.132238
C12   C     C_R   0.870351 0.414911 0.474772 0.102302
C13   C     C_R   0.863636 0.592520 0.629893 -0.249977
C14   C     C_R   0.968726 0.617312 0.627731 -0.219599
H1    H     H_    0.819501 0.651658 0.691130 0.151585
H2    H     H_    0.999359 0.297329 0.318204 0.162851
H3    H     H_    0.002968 0.689074 0.696914 0.140839
C15   C     C_R   0.481424 0.064156 0.620214 0.078659
C16   C     C_R   0.479720 0.128482 0.497304 -0.089048
C17   C     C_R   0.456284 0.064468 0.372585 -0.225249
C18   C     C_R   0.455245 0.934823 0.372912 -0.218887
C19   C     C_R   0.477772 0.871223 0.497905 -0.117697
C20   C     C_R   0.479080 0.936177 0.620907 0.058252
C21   C     C_3   0.554699 0.928725 0.751407 -0.028079
C22   C     C_3   0.558219 0.071533 0.748915 -0.481046
H4    H     H_    0.523652 0.118229 0.833088 0.202741
C23   C     C_R   0.409147 0.476940 0.054852 0.221145
N1    N     N_R   0.499290 0.499140 0.142710 -0.107879
C24   C     C_R   0.587353 0.534288 0.087568 -0.131475
C25   C     C_R   0.587405 0.534052 0.943734 -0.145476
N2    N     N_R   0.499290 0.499180 0.857070 -0.112602
C26   C     C_R   0.409111 0.477131 0.912386 0.212494
C27   C     C_3   0.343519 0.361081 0.894443 -0.495227
C28   C     C_3   0.343886 0.360601 0.048530 -0.523040
H5    H     H_    0.264212 0.379233 0.836162 0.206043
H6    H     H_    0.387316 0.279875 0.100498 0.207429
C29   C     C_3   0.818672 0.293904 0.413511 -0.414905
C30   C     C_3   0.862982 0.178629 0.493867 -0.891117
H7    H     H_    0.949226 0.169173 0.493548 0.265020
H8    H     H_    0.847183 0.185390 0.601557 0.259044
H9    H     H_    0.823778 0.092806 0.447284 0.252192
H10   H     H_    0.732455 0.291305 0.415823 0.221691
H11   H     H_    0.827530 0.285241 0.303615 0.198150
H12   H     H_    0.630763 0.883592 0.736820 0.157364
H13   H     H_    0.636248 0.109312 0.731141 0.183077
H14   H     H_    0.658432 0.560608 0.153966 0.159475
H15   H     H_    0.658357 0.559957 0.902396 0.151090
H16   H     H_    0.386350 0.280476 0.856736 0.210721
H17   H     H_    0.264745 0.378041 0.078972 0.202761
H18   H     H_    0.183016 0.337971 0.319800 0.156344
C31   C     C_3   0.180429 0.709704 0.571851 -0.446101
C32   C     C_3   0.201509 0.790749 0.450677 -0.857576
H19   H     H_    0.258293 0.744974 0.391228 0.254769
H20   H     H_    0.126587 0.808464 0.381955 0.262211
H21   H     H_    0.235403 0.882298 0.488670 0.253051
H22   H     H_    0.132264 0.768286 0.630951 0.202575
H23   H     H_    0.255275 0.694257 0.641108 0.222860
H24   H     H_    0.446272 0.113254 0.275443 0.162733
H25   H     H_    0.444277 0.885451 0.276034 0.169193
C33   C     C_3   0.503272 0.874203 0.870676 -0.347384
C34   C     C_3   0.580027 0.875981 0.003687 -0.889559
H26   H     H_    0.652852 0.823242 0.991031 0.253855
H27   H     H_    0.601232 0.973976 0.034553 0.264323
H28   H     H_    0.542629 0.830729 0.086117 0.251860
H29   H     H_    0.430956 0.927493 0.885201 0.201740
H30   H     H_    0.479257 0.775640 0.847352 0.229400

loop_
_geom_bond_atom_site_label_1
_geom_bond_atom_site_label_2
_geom_bond_distance
_ccdc_geom_bond_type
N2    C26   1.363594 A    
C3    C19   1.418420 S    
C9    C10   1.409274 A    
C14   H3    1.076047 S    
Zn1   O7    2.001757 S    
C16   C17   1.401767 A    
C7    H2    1.079363 S    
C15   C16   1.391177 A    
C23   N1    1.362999 A    
O4    C2    1.282542 A    
O7    C4    1.281789 A    
C28   H17   1.111528 S    
C21   C22   1.523397 S    
C23   C26   1.405550 A    
C1    C16   1.417603 S    
O5    C3    1.282128 A    
C32   H20   1.110854 S    
C27   H16   1.111345 S    
C31   H22   1.100333 S    
C5    C12   1.402993 A    
C18   C19   1.402341 A    
C15   C22   1.495269 S    
C13   C14   1.373032 A    
C33   C34   1.525671 S    
C21   C33   1.539907 S    
C29   H11   1.109576 S    
C30   H8    1.111208 S    
C12   C29   1.533406 S    
C11   C12   1.407346 A    
Zn2   N1    2.013094 S    
O3    Zn1   1.968617 S    
C28   H6    1.111415 S    
C20   C21   1.501134 S    
C30   H9    1.110664 S    
N1    C24   1.369634 A    
C22   H13   1.112372 S    
C29   C30   1.529345 S    
C10   C14   1.404111 A    
O3    C2    1.286645 A    
C24   C25   1.419201 A    
C34   H27   1.110558 S    
C7    C11   1.403207 A    
O1    C1    1.283711 A    
C22   H4    1.111577 S    
C27   C28   1.519642 S    
C32   H19   1.108870 S    
C34   H28   1.109739 S    
C31   H23   1.108791 S    
C24   H14   1.080635 S    
Zn2   O8    1.968617 S    
C7    C8    1.371841 A    
C27   H5    1.111738 S    
C8    H18   1.084792 S    
C30   H7    1.108708 S    
O8    C4    1.287786 A    
C15   C20   1.364728 A    
C21   H12   1.113522 S    
C33   H30   1.109224 S    
C26   C27   1.490378 S    
Zn1   O5    1.990182 S    
C25   N2    1.367420 A    
C25   H15   1.081380 S    
C32   H21   1.110799 S    
O1    Zn1   1.989615 S    
Zn2   O6    1.989612 S    
O2    Zn2   1.990182 S    
O6    C3    1.286317 A    
O4    Zn2   2.001758 S    
C29   H10   1.106877 S    
C19   C20   1.394821 A    
C23   C28   1.490457 S    
O2    C1    1.284561 A    
C34   H26   1.110869 S    
C17   C18   1.382208 A    
C9    C31   1.536597 S    
C6    C9    1.404022 A    
C5    C13   1.389098 A    
Zn1   N2    2.013470 S    
C31   C32   1.529519 S    
C2    C6    1.423789 S    
C18   H25   1.082552 S    
C13   H1    1.084953 S    
C10   C11   1.434281 A    
C6    C8    1.388548 A    
C33   H29   1.112678 S    
C4    C5    1.424227 S    
C17   H24   1.082734 S    
