data_mof_unit_67174.cif
_audit_creation_date              2012-12-11T17:48:50-0500
_audit_creation_method            fapswitch 2.2
_symmetry_space_group_name_H-M    P1
_symmetry_Int_Tables_number       1
_space_group_crystal_system       triclinic
_cell_length_a                    8.493704
_cell_length_b                    13.043445
_cell_length_c                    15.035617
_cell_angle_alpha                 98.669367
_cell_angle_beta                  97.424822
_cell_angle_gamma                 99.19063
_cell_volume                      1605.39913167

loop_
_atom_site_label
_atom_site_type_symbol
_atom_type_description
_atom_site_fract_x
_atom_site_fract_y
_atom_site_fract_z
_atom_type_partial_charge
Ba1   Ba    Ba6+2 0.843750 0.550210 0.455600 1.890658
Ba2   Ba    Ba6+2 0.346090 0.449880 0.544410 1.893796
C1    C     C_3   0.479782 0.821953 0.084695 -0.304613
C2    C     C_R   0.896351 0.453141 0.926010 -0.097480
C3    C     C_R   0.038938 0.456892 0.109616 -0.085215
C4    C     C_3   0.046491 0.755136 0.212088 0.391018
C5    C     C_R   0.876199 0.412247 0.077381 -0.044894
C6    C     C_R   0.806330 0.410982 0.988281 -0.046881
C7    C     C_R   0.112522 0.455085 0.200738 -0.098541
C8    C     C_R   0.280518 0.487607 0.222020 0.113877
C9    C     C_R   0.082404 0.540830 0.800405 -0.057634
C10   C     C_R   0.157025 0.538239 0.891075 -0.074032
C11   C     C_R   0.062402 0.496453 0.954357 0.012365
C12   C     C_3   0.516207 0.792843 0.179067 0.327507
C13   C     C_R   0.321200 0.578912 0.922194 -0.016356
C14   C     C_R   0.392237 0.575249 0.010316 -0.096127
C15   C     C_R   0.300173 0.539029 0.074338 -0.076775
C16   C     C_3   0.023313 0.773837 0.114194 -0.334970
C17   C     C_R   0.133873 0.497513 0.046264 0.045685
C18   C     C_R   0.371094 0.540314 0.164905 -0.062011
C19   C     C_R   0.913964 0.507603 0.780436 0.090770
C20   C     C_R   0.774578 0.175357 0.522190 -0.170296
C21   C     C_R   0.426828 0.808670 0.466225 -0.253567
C22   C     C_R   0.386976 0.984329 0.449672 -0.134863
C23   C     C_3   0.307434 0.133359 0.273217 0.376837
C24   C     C_R   0.326793 0.876839 0.438032 -0.021844
C25   C     C_R   0.584915 0.847469 0.512162 -0.010575
C26   C     C_R   0.649624 0.958757 0.518955 -0.015247
C27   C     C_R   0.549449 0.026889 0.483069 -0.015241
C28   C     C_3   0.216832 0.779520 0.648712 0.368360
C29   C     C_R   0.613466 0.136159 0.483924 -0.020664
C30   C     C_R   0.872063 0.111674 0.560281 0.035260
C31   C     C_R   0.809299 0.004939 0.560307 -0.085060
C32   C     C_3   0.160197 0.884073 0.670709 -0.288105
C33   C     C_3   0.862035 0.202296 0.219707 0.631375
C34   C     C_3   0.303536 0.045780 0.194168 0.253073
C35   C     C_3   0.940425 0.191264 0.133030 -0.415839
C36   C     C_3   0.606932 0.795588 0.732670 0.306125
C37   C     C_3   0.661018 0.801070 0.834394 -0.237623
C38   C     C_3   0.020486 0.217151 0.778839 0.307510
C39   C     C_3   0.015357 0.188338 0.872920 -0.228697
C40   C     C_3   0.547084 0.176672 0.731849 0.397366
C41   C     C_3   0.556900 0.067137 0.751522 0.372278
C42   C     C_R   0.823725 0.455275 0.836762 -0.019444
H1    H     H_    0.559345 0.865532 0.230337 0.143506
H2    H     H_    0.470266 0.905707 0.090446 0.181070
H3    H     H_    0.733292 0.880179 0.864719 0.143676
H4    H     H_    0.736010 0.741068 0.846977 0.092255
H5    H     H_    0.554258 0.785875 0.868983 0.106436
H6    H     H_    0.403134 0.753851 0.198407 -0.123339
H7    H     H_    0.363416 0.775259 0.047263 0.081479
H8    H     H_    0.249299 0.097992 0.324461 -0.020870
H9    H     H_    0.225547 0.182629 0.246820 0.106902
H10   H     H_    0.386281 0.992875 0.213372 0.019809
H11   H     H_    0.179526 0.998604 0.178334 0.050850
H12   H     H_    0.240295 0.936991 0.727975 0.188449
H13   H     H_    0.576887 0.808556 0.043772 0.133818
H14   H     H_    0.003149 0.697320 0.066845 0.056964
H15   H     H_    0.076819 0.301763 0.787276 0.016464
H16   H     H_    0.893891 0.205581 0.743915 -0.062668
H17   H     H_    0.134393 0.217055 0.916560 0.164254
H18   H     H_    0.924781 0.226421 0.905832 0.093782
H19   H     H_    0.981391 0.101534 0.867568 0.166258
H20   H     H_    0.608892 0.186955 0.672327 -0.161062
H21   H     H_    0.418489 0.183330 0.715958 0.095365
H22   H     H_    0.681597 0.051965 0.749833 -0.035136
H23   H     H_    0.156673 0.923501 0.610332 0.071403
H24   H     H_    0.474673 0.010110 0.696679 -0.136411
H25   H     H_    0.935189 0.704370 0.222236 0.117841
H26   H     H_    0.800060 0.374677 0.119413 0.078847
H27   H     H_    0.520925 0.603294 0.027880 0.090754
H28   H     H_    0.398044 0.615294 0.879916 0.098026
H29   H     H_    0.302827 0.034347 0.436242 0.106523
H30   H     H_    0.886354 0.959125 0.592744 0.080184
H31   H     H_    0.825204 0.257061 0.522445 0.041168
H32   H     H_    0.148809 0.712490 0.221868 -0.093969
H33   H     H_    0.376782 0.725566 0.458421 0.057355
H34   H     H_    0.039263 0.871605 0.691119 0.149389
H35   H     H_    0.916696 0.811509 0.100676 0.186767
H36   H     H_    0.131853 0.824882 0.100872 0.114702
H37   H     H_    0.330534 0.793677 0.621338 -0.164029
H38   H     H_    0.745492 0.996154 0.111203 0.351218
H39   H     H_    0.519415 0.723005 0.705642 0.101319
H40   H     H_    0.373158 0.255477 0.065130 0.331308
H41   H     H_    0.445303 0.200933 0.923752 0.355984
H42   H     H_    0.679489 0.377215 0.969505 0.100188
H43   H     H_    0.503635 0.352868 0.209833 0.309907
H44   H     H_    0.945219 0.713341 0.761295 0.296111
H45   H     H_    0.747372 0.232312 0.207603 0.043972
H46   H     H_    0.127104 0.730780 0.592733 0.115972
H47   H     H_    0.031609 0.260439 0.132161 0.101693
H48   H     H_    0.846904 0.180555 0.072244 0.147474
H49   H     H_    0.003889 0.123361 0.126161 0.188450
H50   H     H_    0.549694 0.863309 0.722861 0.013165
O1    O     O_2   0.827880 0.435260 0.277750 -0.442117
O2    O     O_2   0.209555 0.121106 0.572596 -0.511953
O3    O     O_3   0.110742 0.153526 0.729762 -0.585731
O4    O     O_3   0.100280 0.438960 0.391170 -0.379888
O5    O     O_3   0.587780 0.631850 0.546230 -0.367059
O6    O     O_2   0.332590 0.233690 0.456160 -0.434100
O7    O     O_3   0.465819 0.192565 0.305426 -0.566996
O8    O     O_2   0.479168 0.413440 0.831403 -0.495952
O9    O     O_3   0.621993 0.250940 0.808692 -0.643544
O10   O     O_3   0.625580 0.634130 0.333250 -0.396367
O11   O     O_2   0.704049 0.548315 0.178272 -0.490045
O12   O     O_3   0.741231 0.799547 0.688596 -0.616559
O13   O     O_3   0.966043 0.267066 0.294181 -0.597654
O14   O     O_3   0.641046 0.733834 0.179724 -0.596035
O15   O     O_2   0.857130 0.766340 0.543890 -0.452104
O16   O     O_3   0.056550 0.691050 0.379010 -0.524933
O17   O     O_2   0.994820 0.879931 0.436073 -0.442944
O18   O     O_2   0.952795 0.064831 0.324957 -0.271305
O19   O     O_2   0.665349 0.059938 0.288962 -0.350157
O20   O     O_3   0.810767 0.976490 0.163147 -0.527738
O21   O     O_2   0.523724 0.107562 0.091219 -0.294207
O22   O     O_2   0.254421 0.018452 0.012719 -0.216975
O23   O     O_3   0.074822 0.851597 0.273326 -0.564983
O24   O     O_3   0.290005 0.213653 0.092120 -0.586465
O25   O     O_2   0.425436 0.943752 0.864392 -0.277945
O26   O     O_2   0.656512 0.082916 0.930314 -0.312878
O27   O     O_3   0.376858 0.135819 0.887337 -0.447487
O28   O     O_2   0.430569 0.518749 0.391288 -0.256594
O29   O     O_2   0.291372 0.342359 0.329939 -0.321118
O30   O     O_3   0.545452 0.397839 0.269936 -0.464533
O31   O     O_2   0.782655 0.487273 0.611043 -0.256380
O32   O     O_2   0.650829 0.578184 0.725846 -0.332936
O33   O     O_3   0.916489 0.677846 0.696678 -0.524884
O34   O     O_2   0.361830 0.564780 0.722310 -0.454628
O35   O     O_3   0.089430 0.561130 0.608830 -0.432171
O36   O     O_3   0.564130 0.365960 0.666760 -0.410824
O37   O     O_3   0.242060 0.735728 0.728920 -0.630034
O38   O     O_3   0.601940 0.368240 0.453770 -0.323014
O39   O     O_3   0.133170 0.309040 0.621000 -0.477702
P1    P     P_3+3 0.998730 0.403530 0.291970 1.081007
P2    P     P_3+3 0.687380 0.751030 0.571310 1.109611
P3    P     P_3+3 0.114475 0.825990 0.384661 0.982808
P4    P     P_3+3 0.190990 0.596560 0.708040 1.052128
P5    P     P_3+3 0.080177 0.172798 0.616513 0.975267
P6    P     P_3+3 0.581112 0.612942 0.213592 1.025161
P7    P     P_3+3 0.504721 0.230157 0.426043 1.127877
P8    P     P_3+3 0.618852 0.377211 0.785446 1.027643
S1    S     S_3+6 0.820558 0.074084 0.251675 -0.063229
S2    S     S_3+6 0.346137 0.095962 0.094124 -0.073583
S3    S     S_3+6 0.504868 0.054191 0.861545 -0.033372
S4    S     S_3+6 0.386232 0.436996 0.307121 -0.048748
S5    S     S_3+6 0.808379 0.561252 0.699733 -0.078466

loop_
_geom_bond_atom_site_label_1
_geom_bond_atom_site_label_2
_ccdc_geom_bond_type
C4    H25   S    
C32   H12   S    
C38   H16   S    
C40   H20   S    
C36   H39   S    
O15   P2    D    
O16   P3    S    
O26   S3    D    
C39   H17   S    
C28   H46   S    
Ba1   O38   S    
C40   O9    S    
Ba1   O5    S    
C5    H26   S    
O32   S5    D    
C5    C6    A    
C30   P5    S    
C13   H28   S    
C20   C30   A    
C39   H18   S    
C18   P6    S    
C26   C27   A    
C33   C35   S    
C34   S2    S    
C23   H9    S    
H44   O33   S    
Ba1   O35   S    
O31   S5    D    
O2    P5    D    
C36   C37   S    
O17   P3    D    
O28   S4    D    
C13   C14   A    
C19   C42   A    
Ba2   O35   S    
O19   S1    D    
Ba1   Ba2   S    
C21   C24   A    
O18   S1    D    
C2    C11   A    
O36   P8    S    
C22   C27   A    
O6    P7    D    
Ba1   O15   S    
C16   H14   S    
O29   S4    D    
C8    C18   A    
C16   H35   S    
C40   H21   S    
Ba2   O38   S    
H41   O27   S    
O8    P8    D    
C21   C25   A    
C7    C8    A    
C4    O23   S    
C2    C6    A    
C7    P1    S    
C12   O14   S    
Ba2   O6    S    
O39   P5    S    
C38   H15   S    
O25   S3    D    
O27   S3    S    
C41   S3    S    
C14   H27   S    
C20   H31   S    
H43   O30   S    
O9    P8    S    
O7    P7    S    
C12   H1    S    
C4    C16   S    
O21   S2    D    
Ba2   O39   S    
C20   C29   A    
C28   C32   S    
O5    P2    S    
C33   O13   S    
C24   P3    S    
H38   O20   S    
O24   S2    S    
C38   O3    S    
C3    C5    A    
C1    H7    S    
C14   C15   A    
C11   C17   A    
C23   C34   S    
C9    C19   A    
O1    P1    D    
C36   O12   S    
O34   P4    D    
C3    C7    A    
O37   P4    S    
Ba1   O16   S    
O11   P6    D    
O22   S2    D    
C10   C13   A    
Ba1   O1    S    
C36   H50   S    
C35   H49   S    
C21   H33   S    
Ba1   O10   S    
C1    C12   S    
C1    H13   S    
H40   O24   S    
C38   C39   S    
C37   H5    S    
C26   C31   A    
O38   P7    S    
C40   C41   S    
C39   H19   S    
C15   C17   A    
Ba1   P1    S    
C33   H45   S    
O3    P5    S    
C37   H3    S    
O33   S5    S    
C42   P8    S    
O20   S1    S    
O12   P2    S    
C35   H48   S    
Ba2   P4    S    
C15   C18   A    
C22   C24   A    
C32   H23   S    
Ba2   O5    S    
O14   P6    S    
C9    C10   A    
C4    H32   S    
C3    C17   A    
O13   P1    S    
C2    C42   A    
O30   S4    S    
O4    P1    S    
C1    H2    S    
O10   P6    S    
C25   P2    S    
C30   C31   A    
C28   H37   S    
C9    P4    S    
Ba1   O4    S    
C27   C29   A    
C34   H11   S    
C19   S5    S    
C23   O7    S    
C12   H6    S    
C41   H22   S    
Ba2   O36   S    
C6    H42   S    
C22   H29   S    
C23   H8    S    
C34   H10   S    
C33   S1    S    
C31   H30   S    
O35   P4    S    
C10   C11   A    
Ba2   O4    S    
C16   H36   S    
C8    S4    S    
C25   C26   A    
C29   P7    S    
Ba1   P2    S    
O23   P3    S    
C32   H34   S    
C28   O37   S    
C35   H47   S    
C37   H4    S    
C41   H24   S    
Ba2   O34   S    
